MODEL 1
REMARK VINA RESULT: -7.459811088      0.000      0.000
REMARK  8 active torsions:
REMARK  status: ('A' for Active; 'I' for Inactive)
REMARK    1  A    between atoms: C1_2  and  C2_3 
REMARK    2  A    between atoms: C1_2  and  C9_11 
REMARK    3  A    between atoms: C2_3  and  C3_4 
REMARK    4  A    between atoms: C3_4  and  C4_5 
REMARK    5  A    between atoms: C4_5  and  C5_6 
REMARK    6  A    between atoms: C4_5  and  C6_8 
REMARK    7  A    between atoms: C9_11  and  O2_12 
REMARK    8  A    between atoms: C9_11  and  N1_14 
ROOT
HETATM    1  O1  UNL     1     109.062  23.934  22.771  1.00  0.00    -0.294 OA
HETATM    2  C1  UNL     1     108.368  22.920  22.817  1.00  0.00     0.170 C 
ENDROOT
BRANCH   2   3
HETATM    3  C2  UNL     1     107.443  22.480  21.774  1.00  0.00     0.083 C 
BRANCH   3   4
HETATM    4  C3  UNL     1     107.538  23.172  20.463  1.00  0.00     0.013 C 
BRANCH   4   5
HETATM    5  C4  UNL     1     106.224  23.221  19.689  1.00  0.00     0.000 C 
BRANCH   5   6
HETATM    6  C5  UNL     1     105.095  22.723  20.569  1.00  0.00     0.091 C 
HETATM    7  S1  UNL     1     103.532  22.537  19.729  1.00  0.00    -0.097 SA
ENDBRANCH   5   6
BRANCH   5   8
HETATM    8  C6  UNL     1     106.069  24.655  19.265  1.00  0.00    -0.010 A 
HETATM    9  C7  UNL     1     107.071  25.429  18.536  1.00  0.00     0.005 A 
HETATM   10  C8  UNL     1     105.849  24.996  17.815  1.00  0.00     0.005 A 
ENDBRANCH   5   8
ENDBRANCH   4   5
ENDBRANCH   3   4
ENDBRANCH   2   3
BRANCH   2  11
HETATM   11  C9  UNL     1     108.528  22.117  24.058  1.00  0.00     0.273 C 
BRANCH  11  12
HETATM   12  O2  UNL     1     107.264  21.682  24.450  1.00  0.00    -0.373 OA
ATOM     13  H2  UNL     1     106.848  22.391  24.926  1.00  0.00     0.212 HD
ENDBRANCH  11  12
BRANCH  11  14
HETATM   14  N1  UNL     1     109.380  20.964  23.824  1.00  0.00    -0.222 NA
HETATM   15  C10 UNL     1     110.775  21.218  23.985  1.00  0.00     0.132 C 
HETATM   16  C11 UNL     1     111.478  19.917  24.332  1.00  0.00     0.183 C 
HETATM   17  O3  UNL     1     111.951  19.923  25.642  1.00  0.00    -0.389 OA
HETATM   18  C12 UNL     1     111.100  19.093  26.385  1.00  0.00     0.179 C 
HETATM   19  C13 UNL     1     109.793  19.846  26.526  1.00  0.00     0.117 C 
HETATM   20  S2  UNL     1     108.865  19.730  24.974  1.00  0.00    -0.078 SA
ENDBRANCH  11  14
ENDBRANCH   2  11
TORSDOF 8
ENDMDL
MODEL 2
REMARK VINA RESULT: -7.215348045      1.326      2.064
REMARK  8 active torsions:
REMARK  status: ('A' for Active; 'I' for Inactive)
REMARK    1  A    between atoms: C1_2  and  C2_3 
REMARK    2  A    between atoms: C1_2  and  C9_11 
REMARK    3  A    between atoms: C2_3  and  C3_4 
REMARK    4  A    between atoms: C3_4  and  C4_5 
REMARK    5  A    between atoms: C4_5  and  C5_6 
REMARK    6  A    between atoms: C4_5  and  C6_8 
REMARK    7  A    between atoms: C9_11  and  O2_12 
REMARK    8  A    between atoms: C9_11  and  N1_14 
ROOT
HETATM    1  O1  UNL     1     109.164  24.012  22.596  1.00  0.00    -0.294 OA
HETATM    2  C1  UNL     1     108.475  23.017  22.818  1.00  0.00     0.170 C 
ENDROOT
BRANCH   2   3
HETATM    3  C2  UNL     1     107.401  22.522  21.959  1.00  0.00     0.083 C 
BRANCH   3   4
HETATM    4  C3  UNL     1     107.319  23.101  20.594  1.00  0.00     0.013 C 
BRANCH   4   5
HETATM    5  C4  UNL     1     105.957  23.697  20.251  1.00  0.00     0.000 C 
BRANCH   5   6
HETATM    6  C5  UNL     1     106.112  24.722  19.146  1.00  0.00     0.091 C 
HETATM    7  S1  UNL     1     107.791  25.253  18.863  1.00  0.00    -0.097 SA
ENDBRANCH   5   6
BRANCH   5   8
HETATM    8  C6  UNL     1     105.099  22.524  19.866  1.00  0.00    -0.010 A 
HETATM    9  C7  UNL     1     104.153  21.848  20.753  1.00  0.00     0.005 A 
HETATM   10  C8  UNL     1     103.617  22.704  19.667  1.00  0.00     0.005 A 
ENDBRANCH   5   8
ENDBRANCH   4   5
ENDBRANCH   3   4
ENDBRANCH   2   3
BRANCH   2  11
HETATM   11  C9  UNL     1     108.811  22.302  24.077  1.00  0.00     0.273 C 
BRANCH  11  12
HETATM   12  O2  UNL     1     107.622  22.064  24.762  1.00  0.00    -0.373 OA
ATOM     13  H2  UNL     1     106.903  22.269  24.176  1.00  0.00     0.212 HD
ENDBRANCH  11  12
BRANCH  11  14
HETATM   14  N1  UNL     1     109.465  21.035  23.797  1.00  0.00    -0.222 NA
HETATM   15  C10 UNL     1     110.880  21.047  23.977  1.00  0.00     0.132 C 
HETATM   16  C11 UNL     1     111.354  19.634  24.269  1.00  0.00     0.183 C 
HETATM   17  O3  UNL     1     111.804  19.505  25.581  1.00  0.00    -0.389 OA
HETATM   18  C12 UNL     1     110.818  18.795  26.280  1.00  0.00     0.179 C 
HETATM   19  C13 UNL     1     109.651  19.747  26.448  1.00  0.00     0.117 C 
HETATM   20  S2  UNL     1     108.737  19.854  24.886  1.00  0.00    -0.078 SA
ENDBRANCH  11  14
ENDBRANCH   2  11
TORSDOF 8
ENDMDL
MODEL 3
REMARK VINA RESULT: -6.825352696      2.191      7.335
REMARK  8 active torsions:
REMARK  status: ('A' for Active; 'I' for Inactive)
REMARK    1  A    between atoms: C1_2  and  C2_3 
REMARK    2  A    between atoms: C1_2  and  C9_11 
REMARK    3  A    between atoms: C2_3  and  C3_4 
REMARK    4  A    between atoms: C3_4  and  C4_5 
REMARK    5  A    between atoms: C4_5  and  C5_6 
REMARK    6  A    between atoms: C4_5  and  C6_8 
REMARK    7  A    between atoms: C9_11  and  O2_12 
REMARK    8  A    between atoms: C9_11  and  N1_14 
ROOT
HETATM    1  O1  UNL     1     107.411  21.762  23.537  1.00  0.00    -0.294 OA
HETATM    2  C1  UNL     1     108.411  22.398  23.208  1.00  0.00     0.170 C 
ENDROOT
BRANCH   2   3
HETATM    3  C2  UNL     1     109.760  22.187  23.730  1.00  0.00     0.083 C 
BRANCH   3   4
HETATM    4  C3  UNL     1     109.863  21.694  25.128  1.00  0.00     0.013 C 
BRANCH   4   5
HETATM    5  C4  UNL     1     110.295  20.235  25.242  1.00  0.00     0.000 C 
BRANCH   5   6
HETATM    6  C5  UNL     1     109.072  19.342  25.286  1.00  0.00     0.091 C 
HETATM    7  S1  UNL     1     109.247  17.900  26.320  1.00  0.00    -0.097 SA
ENDBRANCH   5   6
BRANCH   5   8
HETATM    8  C6  UNL     1     111.177  19.990  24.050  1.00  0.00    -0.010 A 
HETATM    9  C7  UNL     1     112.624  20.189  24.019  1.00  0.00     0.005 A 
HETATM   10  C8  UNL     1     112.101  18.801  24.023  1.00  0.00     0.005 A 
ENDBRANCH   5   8
ENDBRANCH   4   5
ENDBRANCH   3   4
ENDBRANCH   2   3
BRANCH   2  11
HETATM   11  C9  UNL     1     108.163  23.454  22.191  1.00  0.00     0.273 C 
BRANCH  11  12
HETATM   12  O2  UNL     1     109.369  24.112  21.958  1.00  0.00    -0.373 OA
ATOM     13  H2  UNL     1     110.029  23.453  21.777  1.00  0.00     0.212 HD
ENDBRANCH  11  12
BRANCH  11  14
HETATM   14  N1  UNL     1     107.684  22.876  20.948  1.00  0.00    -0.222 NA
HETATM   15  C10 UNL     1     106.264  22.814  20.833  1.00  0.00     0.132 C 
HETATM   16  C11 UNL     1     105.886  22.801  19.362  1.00  0.00     0.183 C 
HETATM   17  O3  UNL     1     105.251  23.983  18.985  1.00  0.00    -0.389 OA
HETATM   18  C12 UNL     1     106.178  24.721  18.237  1.00  0.00     0.179 C 
HETATM   19  C13 UNL     1     107.209  25.228  19.225  1.00  0.00     0.117 C 
HETATM   20  S2  UNL     1     108.342  23.878  19.654  1.00  0.00    -0.078 SA
ENDBRANCH  11  14
ENDBRANCH   2  11
TORSDOF 8
ENDMDL
MODEL 4
REMARK VINA RESULT: -6.819870340      2.376      7.622
REMARK  8 active torsions:
REMARK  status: ('A' for Active; 'I' for Inactive)
REMARK    1  A    between atoms: C1_2  and  C2_3 
REMARK    2  A    between atoms: C1_2  and  C9_11 
REMARK    3  A    between atoms: C2_3  and  C3_4 
REMARK    4  A    between atoms: C3_4  and  C4_5 
REMARK    5  A    between atoms: C4_5  and  C5_6 
REMARK    6  A    between atoms: C4_5  and  C6_8 
REMARK    7  A    between atoms: C9_11  and  O2_12 
REMARK    8  A    between atoms: C9_11  and  N1_14 
ROOT
HETATM    1  O1  UNL     1     107.519  21.666  23.574  1.00  0.00    -0.294 OA
HETATM    2  C1  UNL     1     108.478  22.361  23.241  1.00  0.00     0.170 C 
ENDROOT
BRANCH   2   3
HETATM    3  C2  UNL     1     109.845  22.214  23.738  1.00  0.00     0.083 C 
BRANCH   3   4
HETATM    4  C3  UNL     1     110.048  21.254  24.853  1.00  0.00     0.013 C 
BRANCH   4   5
HETATM    5  C4  UNL     1     110.744  19.960  24.441  1.00  0.00     0.000 C 
BRANCH   5   6
HETATM    6  C5  UNL     1     112.230  20.209  24.281  1.00  0.00     0.091 C 
HETATM    7  S1  UNL     1     113.147  18.816  23.649  1.00  0.00    -0.097 SA
ENDBRANCH   5   6
BRANCH   5   8
HETATM    8  C6  UNL     1     110.413  18.971  25.523  1.00  0.00    -0.010 A 
HETATM    9  C7  UNL     1     109.063  18.649  25.983  1.00  0.00     0.005 A 
HETATM   10  C8  UNL     1     109.793  17.644  25.172  1.00  0.00     0.005 A 
ENDBRANCH   5   8
ENDBRANCH   4   5
ENDBRANCH   3   4
ENDBRANCH   2   3
BRANCH   2  11
HETATM   11  C9  UNL     1     108.157  23.420  22.248  1.00  0.00     0.273 C 
BRANCH  11  12
HETATM   12  O2  UNL     1     109.326  24.133  21.993  1.00  0.00    -0.373 OA
ATOM     13  H2  UNL     1     109.492  24.095  21.058  1.00  0.00     0.212 HD
ENDBRANCH  11  12
BRANCH  11  14
HETATM   14  N1  UNL     1     107.670  22.840  21.009  1.00  0.00    -0.222 NA
HETATM   15  C10 UNL     1     106.249  22.805  20.890  1.00  0.00     0.132 C 
HETATM   16  C11 UNL     1     105.875  22.786  19.419  1.00  0.00     0.183 C 
HETATM   17  O3  UNL     1     105.266  23.976  19.027  1.00  0.00    -0.389 OA
HETATM   18  C12 UNL     1     106.210  24.687  18.275  1.00  0.00     0.179 C 
HETATM   19  C13 UNL     1     107.249  25.183  19.261  1.00  0.00     0.117 C 
HETATM   20  S2  UNL     1     108.351  23.815  19.707  1.00  0.00    -0.078 SA
ENDBRANCH  11  14
ENDBRANCH   2  11
TORSDOF 8
ENDMDL
MODEL 5
REMARK VINA RESULT: -6.494475706      5.375      7.820
REMARK  8 active torsions:
REMARK  status: ('A' for Active; 'I' for Inactive)
REMARK    1  A    between atoms: C1_2  and  C2_3 
REMARK    2  A    between atoms: C1_2  and  C9_11 
REMARK    3  A    between atoms: C2_3  and  C3_4 
REMARK    4  A    between atoms: C3_4  and  C4_5 
REMARK    5  A    between atoms: C4_5  and  C5_6 
REMARK    6  A    between atoms: C4_5  and  C6_8 
REMARK    7  A    between atoms: C9_11  and  O2_12 
REMARK    8  A    between atoms: C9_11  and  N1_14 
ROOT
HETATM    1  O1  UNL     1     107.300  22.442  18.934  1.00  0.00    -0.294 OA
HETATM    2  C1  UNL     1     106.732  23.343  19.549  1.00  0.00     0.170 C 
ENDROOT
BRANCH   2   3
HETATM    3  C2  UNL     1     105.552  23.177  20.396  1.00  0.00     0.083 C 
BRANCH   3   4
HETATM    4  C3  UNL     1     104.619  22.080  20.031  1.00  0.00     0.013 C 
BRANCH   4   5
HETATM    5  C4  UNL     1     103.172  22.332  20.444  1.00  0.00     0.000 C 
BRANCH   5   6
HETATM    6  C5  UNL     1     102.334  22.618  19.214  1.00  0.00     0.091 C 
HETATM    7  S1  UNL     1     100.863  21.619  19.075  1.00  0.00    -0.097 SA
ENDBRANCH   5   6
BRANCH   5   8
HETATM    8  C6  UNL     1     102.751  21.092  21.183  1.00  0.00    -0.010 A 
HETATM    9  C7  UNL     1     103.449  20.521  22.333  1.00  0.00     0.005 A 
HETATM   10  C8  UNL     1     102.150  21.199  22.559  1.00  0.00     0.005 A 
ENDBRANCH   5   8
ENDBRANCH   4   5
ENDBRANCH   3   4
ENDBRANCH   2   3
BRANCH   2  11
HETATM   11  C9  UNL     1     107.343  24.688  19.379  1.00  0.00     0.273 C 
BRANCH  11  12
HETATM   12  O2  UNL     1     108.656  24.621  19.840  1.00  0.00    -0.373 OA
ATOM     13  H2  UNL     1     108.635  24.688  20.787  1.00  0.00     0.212 HD
ENDBRANCH  11  12
BRANCH  11  14
HETATM   14  N1  UNL     1     107.345  25.084  17.982  1.00  0.00    -0.222 NA
HETATM   15  C10 UNL     1     106.049  25.319  17.432  1.00  0.00     0.132 C 
HETATM   16  C11 UNL     1     106.175  26.276  16.260  1.00  0.00     0.183 C 
HETATM   17  O3  UNL     1     105.606  27.515  16.546  1.00  0.00    -0.389 OA
HETATM   18  C12 UNL     1     106.663  28.409  16.759  1.00  0.00     0.179 C 
HETATM   19  C13 UNL     1     107.271  28.034  18.095  1.00  0.00     0.117 C 
HETATM   20  S2  UNL     1     108.306  26.560  17.890  1.00  0.00    -0.078 SA
ENDBRANCH  11  14
ENDBRANCH   2  11
TORSDOF 8
ENDMDL
