MODEL 1
REMARK VINA RESULT: -7.651639423      0.000      0.000
REMARK  12 active torsions:
REMARK  status: ('A' for Active; 'I' for Inactive)
REMARK    1  A    between atoms: C2_2  and  C4_4 
REMARK    2  A    between atoms: C4_4  and  C5_5 
REMARK    3  A    between atoms: C5_5  and  C6_6 
REMARK    4  A    between atoms: C6_6  and  C7_7 
REMARK    5  A    between atoms: C7_7  and  C9_9 
REMARK    6  A    between atoms: C18_18  and  O1_19 
REMARK    7  A    between atoms: C19_21  and  C20_22 
REMARK    8  A    between atoms: C20_22  and  C22_24 
REMARK    9  A    between atoms: C20_22  and  N1_27 
REMARK   10  A    between atoms: C22_24  and  O2_25 
REMARK   11  A    between atoms: N1_27  and  S1_29 
REMARK   12  A    between atoms: C28_37  and  O5_38 
ROOT
HETATM    1  C9  UNL     1     -10.102  15.497  30.812  1.00  0.00     0.000 C 
HETATM    2  C10 UNL     1     -11.147  16.634  30.951  1.00  0.00     0.006 C 
HETATM    3  C11 UNL     1     -11.693  16.692  29.533  1.00  0.00     0.006 C 
HETATM    4  C12 UNL     1     -10.381  16.703  28.853  1.00  0.00     0.001 C 
HETATM    5  C13 UNL     1     -10.315  16.981  27.435  1.00  0.00    -0.005 C 
HETATM    6  C14 UNL     1     -11.038  16.063  26.508  1.00  0.00     0.006 C 
HETATM    7  C15 UNL     1     -11.076  16.806  25.196  1.00  0.00     0.006 C 
HETATM    8  C16 UNL     1      -9.743  17.076  24.638  1.00  0.00    -0.003 C 
HETATM    9  C17 UNL     1      -9.240  15.912  23.890  1.00  0.00     0.037 C 
HETATM   10  C18 UNL     1      -7.742  16.171  23.856  1.00  0.00     0.126 C 
HETATM   11  C19 UNL     1      -7.439  17.181  24.932  1.00  0.00     0.053 C 
HETATM   12  C24 UNL     1      -8.657  17.555  25.613  1.00  0.00    -0.028 C 
HETATM   13  C25 UNL     1      -9.046  19.018  25.735  1.00  0.00     0.016 C 
HETATM   14  C26 UNL     1      -8.844  17.043  27.014  1.00  0.00     0.001 C 
HETATM   15  C27 UNL     1      -8.207  15.781  27.428  1.00  0.00     0.038 C 
HETATM   16  C28 UNL     1      -8.343  15.584  28.957  1.00  0.00     0.127 C 
HETATM   17  C29 UNL     1      -9.746  15.434  29.372  1.00  0.00    -0.010 C 
HETATM   18  C30 UNL     1     -10.351  14.184  28.781  1.00  0.00     0.018 C 
ENDROOT
BRANCH  11  19
HETATM   19  C20 UNL     1      -6.417  18.186  24.431  1.00  0.00     0.064 C 
HETATM   20  C21 UNL     1      -6.873  18.903  23.188  1.00  0.00     0.041 C 
BRANCH  19  21
HETATM   21  C22 UNL     1      -5.955  19.085  25.531  1.00  0.00     0.195 C 
BRANCH  21  22
HETATM   22  O2  UNL     1      -5.896  20.392  24.994  1.00  0.00    -0.398 OA
ATOM     23  H2  UNL     1      -6.302  20.969  25.630  1.00  0.00     0.209 HD
ENDBRANCH  21  22
ENDBRANCH  19  21
BRANCH  19  24
HETATM   24  N1  UNL     1      -5.293  17.424  24.029  1.00  0.00    -0.308 N 
ATOM     25  H1  UNL     1      -5.411  16.413  24.088  1.00  0.00     0.173 HD
BRANCH  24  26
HETATM   26  S1  UNL     1      -3.855  17.915  23.491  1.00  0.00     0.223 S 
HETATM   27  C23 UNL     1      -2.433  17.178  24.234  1.00  0.00     0.185 C 
HETATM   28  O3  UNL     1      -3.714  17.525  21.986  1.00  0.00    -0.206 OA
HETATM   29  O4  UNL     1      -3.563  19.400  23.434  1.00  0.00    -0.206 OA
ENDBRANCH  24  26
ENDBRANCH  19  24
ENDBRANCH  11  19
BRANCH  10  30
HETATM   30  O1  UNL     1      -7.209  14.884  24.119  1.00  0.00    -0.395 OA
ATOM     31  H1  UNL     1      -7.061  14.545  23.243  1.00  0.00     0.210 HD
ENDBRANCH  10  30
BRANCH  16  32
HETATM   32  O5  UNL     1      -7.763  16.761  29.434  1.00  0.00    -0.395 OA
ATOM     33  H5  UNL     1      -7.611  16.535  30.344  1.00  0.00     0.210 HD
ENDBRANCH  16  32
BRANCH   1  34
HETATM   34  C7  UNL     1      -9.047  15.612  31.822  1.00  0.00    -0.014 C 
HETATM   35  C8  UNL     1      -8.639  14.336  32.506  1.00  0.00     0.010 C 
BRANCH  34  36
HETATM   36  C6  UNL     1      -9.517  16.543  32.970  1.00  0.00     0.005 C 
BRANCH  36  37
HETATM   37  C5  UNL     1      -9.981  15.839  34.166  1.00  0.00     0.001 C 
BRANCH  37  38
HETATM   38  C4  UNL     1     -11.452  15.823  34.344  1.00  0.00     0.004 C 
BRANCH  38  39
HETATM   39  C2  UNL     1     -12.207  14.553  34.310  1.00  0.00    -0.023 C 
HETATM   40  C1  UNL     1     -12.675  14.029  33.002  1.00  0.00     0.009 C 
HETATM   41  C3  UNL     1     -11.337  13.461  34.983  1.00  0.00     0.009 C 
ENDBRANCH  38  39
ENDBRANCH  37  38
ENDBRANCH  36  37
ENDBRANCH  34  36
ENDBRANCH   1  34
TORSDOF 12
ENDMDL
MODEL 2
REMARK VINA RESULT: -7.434212605      4.002      9.100
REMARK  12 active torsions:
REMARK  status: ('A' for Active; 'I' for Inactive)
REMARK    1  A    between atoms: C2_2  and  C4_4 
REMARK    2  A    between atoms: C4_4  and  C5_5 
REMARK    3  A    between atoms: C5_5  and  C6_6 
REMARK    4  A    between atoms: C6_6  and  C7_7 
REMARK    5  A    between atoms: C7_7  and  C9_9 
REMARK    6  A    between atoms: C18_18  and  O1_19 
REMARK    7  A    between atoms: C19_21  and  C20_22 
REMARK    8  A    between atoms: C20_22  and  C22_24 
REMARK    9  A    between atoms: C20_22  and  N1_27 
REMARK   10  A    between atoms: C22_24  and  O2_25 
REMARK   11  A    between atoms: N1_27  and  S1_29 
REMARK   12  A    between atoms: C28_37  and  O5_38 
ROOT
HETATM    1  C9  UNL     1      -8.292  16.526  25.355  1.00  0.00     0.000 C 
HETATM    2  C10 UNL     1      -8.951  17.919  25.186  1.00  0.00     0.006 C 
HETATM    3  C11 UNL     1      -8.708  18.517  26.564  1.00  0.00     0.006 C 
HETATM    4  C12 UNL     1      -9.175  17.346  27.335  1.00  0.00     0.001 C 
HETATM    5  C13 UNL     1      -9.367  17.464  28.764  1.00  0.00    -0.005 C 
HETATM    6  C14 UNL     1      -8.187  17.826  29.601  1.00  0.00     0.006 C 
HETATM    7  C15 UNL     1      -8.775  18.213  30.934  1.00  0.00     0.006 C 
HETATM    8  C16 UNL     1      -9.497  17.116  31.596  1.00  0.00    -0.003 C 
HETATM    9  C17 UNL     1      -8.568  16.243  32.332  1.00  0.00     0.037 C 
HETATM   10  C18 UNL     1      -9.376  14.963  32.483  1.00  0.00     0.126 C 
HETATM   11  C19 UNL     1     -10.490  15.018  31.471  1.00  0.00     0.053 C 
HETATM   12  C24 UNL     1     -10.414  16.249  30.720  1.00  0.00    -0.028 C 
HETATM   13  C25 UNL     1     -11.623  17.163  30.627  1.00  0.00     0.016 C 
HETATM   14  C26 UNL     1      -9.958  16.153  29.291  1.00  0.00     0.001 C 
HETATM   15  C27 UNL     1      -9.063  15.060  28.874  1.00  0.00     0.038 C 
HETATM   16  C28 UNL     1      -8.926  15.032  27.333  1.00  0.00     0.127 C 
HETATM   17  C29 UNL     1      -8.278  16.247  26.815  1.00  0.00    -0.010 C 
HETATM   18  C30 UNL     1      -6.858  16.354  27.312  1.00  0.00     0.018 C 
ENDROOT
BRANCH  11  19
HETATM   19  C20 UNL     1     -11.775  14.487  32.081  1.00  0.00     0.064 C 
HETATM   20  C21 UNL     1     -11.680  14.324  33.576  1.00  0.00     0.041 C 
BRANCH  19  21
HETATM   21  C22 UNL     1     -12.961  15.269  31.617  1.00  0.00     0.195 C 
BRANCH  21  22
HETATM   22  O2  UNL     1     -13.664  15.674  32.776  1.00  0.00    -0.398 OA
ATOM     23  H2  UNL     1     -14.531  15.940  32.492  1.00  0.00     0.209 HD
ENDBRANCH  21  22
ENDBRANCH  19  21
BRANCH  19  24
HETATM   24  N1  UNL     1     -11.930  13.173  31.574  1.00  0.00    -0.308 N 
ATOM     25  H1  UNL     1     -11.353  12.464  32.025  1.00  0.00     0.173 HD
BRANCH  24  26
HETATM   26  S1  UNL     1     -12.880  12.632  30.390  1.00  0.00     0.223 S 
HETATM   27  C23 UNL     1     -12.697  13.396  28.810  1.00  0.00     0.185 C 
HETATM   28  O3  UNL     1     -12.536  11.136  30.105  1.00  0.00    -0.206 OA
HETATM   29  O4  UNL     1     -14.372  12.545  30.632  1.00  0.00    -0.206 OA
ENDBRANCH  24  26
ENDBRANCH  19  24
ENDBRANCH  11  19
BRANCH  10  30
HETATM   30  O1  UNL     1      -8.408  13.964  32.209  1.00  0.00    -0.395 OA
ATOM     31  H1  UNL     1      -8.842  13.176  32.514  1.00  0.00     0.210 HD
ENDBRANCH  10  30
BRANCH  16  32
HETATM   32  O5  UNL     1     -10.262  14.925  26.944  1.00  0.00    -0.395 OA
ATOM     33  H5  UNL     1     -10.262  14.076  26.520  1.00  0.00     0.210 HD
ENDBRANCH  16  32
BRANCH   1  34
HETATM   34  C7  UNL     1      -8.863  15.546  24.429  1.00  0.00    -0.014 C 
HETATM   35  C8  UNL     1      -7.881  14.732  23.631  1.00  0.00     0.010 C 
BRANCH  34  36
HETATM   36  C6  UNL     1      -9.731  16.270  23.367  1.00  0.00     0.005 C 
BRANCH  36  37
HETATM   37  C5  UNL     1      -9.144  16.302  22.027  1.00  0.00     0.001 C 
BRANCH  37  38
HETATM   38  C4  UNL     1      -8.777  17.654  21.543  1.00  0.00     0.004 C 
BRANCH  38  39
HETATM   39  C2  UNL     1      -7.363  18.078  21.475  1.00  0.00    -0.023 C 
HETATM   40  C1  UNL     1      -6.749  18.733  22.657  1.00  0.00     0.009 C 
HETATM   41  C3  UNL     1      -6.508  16.835  21.115  1.00  0.00     0.009 C 
ENDBRANCH  38  39
ENDBRANCH  37  38
ENDBRANCH  36  37
ENDBRANCH  34  36
ENDBRANCH   1  34
TORSDOF 12
ENDMDL
MODEL 3
REMARK VINA RESULT: -7.328425851      3.858      8.996
REMARK  12 active torsions:
REMARK  status: ('A' for Active; 'I' for Inactive)
REMARK    1  A    between atoms: C2_2  and  C4_4 
REMARK    2  A    between atoms: C4_4  and  C5_5 
REMARK    3  A    between atoms: C5_5  and  C6_6 
REMARK    4  A    between atoms: C6_6  and  C7_7 
REMARK    5  A    between atoms: C7_7  and  C9_9 
REMARK    6  A    between atoms: C18_18  and  O1_19 
REMARK    7  A    between atoms: C19_21  and  C20_22 
REMARK    8  A    between atoms: C20_22  and  C22_24 
REMARK    9  A    between atoms: C20_22  and  N1_27 
REMARK   10  A    between atoms: C22_24  and  O2_25 
REMARK   11  A    between atoms: N1_27  and  S1_29 
REMARK   12  A    between atoms: C28_37  and  O5_38 
ROOT
HETATM    1  C9  UNL     1      -8.123  16.601  25.045  1.00  0.00     0.000 C 
HETATM    2  C10 UNL     1      -8.627  18.057  24.875  1.00  0.00     0.006 C 
HETATM    3  C11 UNL     1      -8.375  18.609  26.271  1.00  0.00     0.006 C 
HETATM    4  C12 UNL     1      -8.992  17.483  27.004  1.00  0.00     0.001 C 
HETATM    5  C13 UNL     1      -9.225  17.602  28.427  1.00  0.00    -0.005 C 
HETATM    6  C14 UNL     1      -8.047  17.827  29.313  1.00  0.00     0.006 C 
HETATM    7  C15 UNL     1      -8.643  18.257  30.630  1.00  0.00     0.006 C 
HETATM    8  C16 UNL     1      -9.500  17.233  31.246  1.00  0.00    -0.003 C 
HETATM    9  C17 UNL     1      -8.695  16.258  32.001  1.00  0.00     0.037 C 
HETATM   10  C18 UNL     1      -9.637  15.068  32.100  1.00  0.00     0.126 C 
HETATM   11  C19 UNL     1     -10.700  15.252  31.048  1.00  0.00     0.053 C 
HETATM   12  C24 UNL     1     -10.467  16.478  30.322  1.00  0.00    -0.028 C 
HETATM   13  C25 UNL     1     -11.570  17.515  30.200  1.00  0.00     0.016 C 
HETATM   14  C26 UNL     1      -9.970  16.354  28.909  1.00  0.00     0.001 C 
HETATM   15  C27 UNL     1      -9.178  15.179  28.508  1.00  0.00     0.038 C 
HETATM   16  C28 UNL     1      -8.984  15.156  26.972  1.00  0.00     0.127 C 
HETATM   17  C29 UNL     1      -8.195  16.303  26.499  1.00  0.00    -0.010 C 
HETATM   18  C30 UNL     1      -6.791  16.254  27.050  1.00  0.00     0.018 C 
ENDROOT
BRANCH  11  19
HETATM   19  C20 UNL     1     -12.056  14.851  31.602  1.00  0.00     0.064 C 
HETATM   20  C21 UNL     1     -12.265  13.360  31.596  1.00  0.00     0.041 C 
BRANCH  19  21
HETATM   21  C22 UNL     1     -12.322  15.509  32.917  1.00  0.00     0.195 C 
BRANCH  21  22
HETATM   22  O2  UNL     1     -13.697  15.841  32.938  1.00  0.00    -0.398 OA
ATOM     23  H2  UNL     1     -13.874  16.227  33.788  1.00  0.00     0.209 HD
ENDBRANCH  21  22
ENDBRANCH  19  21
BRANCH  19  24
HETATM   24  N1  UNL     1     -13.012  15.363  30.690  1.00  0.00    -0.308 N 
ATOM     25  H1  UNL     1     -13.422  16.259  30.951  1.00  0.00     0.173 HD
BRANCH  24  26
HETATM   26  S1  UNL     1     -13.546  14.742  29.302  1.00  0.00     0.223 S 
HETATM   27  C23 UNL     1     -12.610  13.416  28.610  1.00  0.00     0.185 C 
HETATM   28  O3  UNL     1     -14.951  14.104  29.538  1.00  0.00    -0.206 OA
HETATM   29  O4  UNL     1     -13.843  15.678  28.149  1.00  0.00    -0.206 OA
ENDBRANCH  24  26
ENDBRANCH  19  24
ENDBRANCH  11  19
BRANCH  10  30
HETATM   30  O1  UNL     1      -8.769  13.977  31.846  1.00  0.00    -0.395 OA
ATOM     31  H1  UNL     1      -9.300  13.233  32.106  1.00  0.00     0.210 HD
ENDBRANCH  10  30
BRANCH  16  32
HETATM   32  O5  UNL     1     -10.309  15.195  26.533  1.00  0.00    -0.395 OA
ATOM     33  H5  UNL     1     -10.260  14.654  25.754  1.00  0.00     0.210 HD
ENDBRANCH  16  32
BRANCH   1  34
HETATM   34  C7  UNL     1      -8.757  15.698  24.082  1.00  0.00    -0.014 C 
HETATM   35  C8  UNL     1      -7.839  14.764  23.340  1.00  0.00     0.010 C 
BRANCH  34  36
HETATM   36  C6  UNL     1      -9.461  16.523  22.972  1.00  0.00     0.005 C 
BRANCH  36  37
HETATM   37  C5  UNL     1      -8.713  16.610  21.718  1.00  0.00     0.001 C 
BRANCH  37  38
HETATM   38  C4  UNL     1      -7.990  17.888  21.515  1.00  0.00     0.004 C 
BRANCH  38  39
HETATM   39  C2  UNL     1      -6.517  17.917  21.397  1.00  0.00    -0.023 C 
HETATM   40  C1  UNL     1      -5.699  18.053  22.628  1.00  0.00     0.009 C 
HETATM   41  C3  UNL     1      -6.070  16.628  20.662  1.00  0.00     0.009 C 
ENDBRANCH  38  39
ENDBRANCH  37  38
ENDBRANCH  36  37
ENDBRANCH  34  36
ENDBRANCH   1  34
TORSDOF 12
ENDMDL
MODEL 4
REMARK VINA RESULT: -7.300008212      1.699      2.644
REMARK  12 active torsions:
REMARK  status: ('A' for Active; 'I' for Inactive)
REMARK    1  A    between atoms: C2_2  and  C4_4 
REMARK    2  A    between atoms: C4_4  and  C5_5 
REMARK    3  A    between atoms: C5_5  and  C6_6 
REMARK    4  A    between atoms: C6_6  and  C7_7 
REMARK    5  A    between atoms: C7_7  and  C9_9 
REMARK    6  A    between atoms: C18_18  and  O1_19 
REMARK    7  A    between atoms: C19_21  and  C20_22 
REMARK    8  A    between atoms: C20_22  and  C22_24 
REMARK    9  A    between atoms: C20_22  and  N1_27 
REMARK   10  A    between atoms: C22_24  and  O2_25 
REMARK   11  A    between atoms: N1_27  and  S1_29 
REMARK   12  A    between atoms: C28_37  and  O5_38 
ROOT
HETATM    1  C9  UNL     1     -12.634  14.029  29.521  1.00  0.00     0.000 C 
HETATM    2  C10 UNL     1     -13.657  15.194  29.514  1.00  0.00     0.006 C 
HETATM    3  C11 UNL     1     -13.556  15.651  28.067  1.00  0.00     0.006 C 
HETATM    4  C12 UNL     1     -12.080  15.700  28.013  1.00  0.00     0.001 C 
HETATM    5  C13 UNL     1     -11.427  16.309  26.876  1.00  0.00    -0.005 C 
HETATM    6  C14 UNL     1     -11.680  15.722  25.527  1.00  0.00     0.006 C 
HETATM    7  C15 UNL     1     -11.173  16.764  24.562  1.00  0.00     0.006 C 
HETATM    8  C16 UNL     1      -9.733  17.031  24.692  1.00  0.00    -0.003 C 
HETATM    9  C17 UNL     1      -8.944  16.042  23.938  1.00  0.00     0.037 C 
HETATM   10  C18 UNL     1      -7.575  16.155  24.590  1.00  0.00     0.126 C 
HETATM   11  C19 UNL     1      -7.769  16.835  25.920  1.00  0.00     0.053 C 
HETATM   12  C24 UNL     1      -9.166  17.148  26.114  1.00  0.00    -0.028 C 
HETATM   13  C25 UNL     1      -9.592  18.567  26.448  1.00  0.00     0.016 C 
HETATM   14  C26 UNL     1      -9.917  16.329  27.126  1.00  0.00     0.001 C 
HETATM   15  C27 UNL     1      -9.494  14.948  27.417  1.00  0.00     0.038 C 
HETATM   16  C28 UNL     1     -10.259  14.396  28.644  1.00  0.00     0.127 C 
HETATM   17  C29 UNL     1     -11.703  14.286  28.392  1.00  0.00    -0.010 C 
HETATM   18  C30 UNL     1     -11.984  13.285  27.299  1.00  0.00     0.018 C 
ENDROOT
BRANCH  11  19
HETATM   19  C20 UNL     1      -6.647  17.828  26.166  1.00  0.00     0.064 C 
HETATM   20  C21 UNL     1      -6.875  18.665  27.397  1.00  0.00     0.041 C 
BRANCH  19  21
HETATM   21  C22 UNL     1      -5.310  17.162  26.107  1.00  0.00     0.195 C 
BRANCH  21  22
HETATM   22  O2  UNL     1      -4.527  17.723  27.143  1.00  0.00    -0.398 OA
ATOM     23  H2  UNL     1      -3.947  17.037  27.451  1.00  0.00     0.209 HD
ENDBRANCH  21  22
ENDBRANCH  19  21
BRANCH  19  24
HETATM   24  N1  UNL     1      -6.695  18.741  25.083  1.00  0.00    -0.308 N 
ATOM     25  H1  UNL     1      -7.593  19.205  24.949  1.00  0.00     0.173 HD
BRANCH  24  26
HETATM   26  S1  UNL     1      -5.545  19.155  24.033  1.00  0.00     0.223 S 
HETATM   27  C23 UNL     1      -5.197  18.006  22.739  1.00  0.00     0.185 C 
HETATM   28  O3  UNL     1      -5.996  20.435  23.263  1.00  0.00    -0.206 OA
HETATM   29  O4  UNL     1      -4.196  19.596  24.562  1.00  0.00    -0.206 OA
ENDBRANCH  24  26
ENDBRANCH  19  24
ENDBRANCH  11  19
BRANCH  10  30
HETATM   30  O1  UNL     1      -7.183  14.797  24.699  1.00  0.00    -0.395 OA
ATOM     31  H1  UNL     1      -7.506  14.429  23.884  1.00  0.00     0.210 HD
ENDBRANCH  10  30
BRANCH  16  32
HETATM   32  O5  UNL     1      -9.951  15.358  29.609  1.00  0.00    -0.395 OA
ATOM     33  H5  UNL     1     -10.760  15.854  29.637  1.00  0.00     0.210 HD
ENDBRANCH  16  32
BRANCH   1  34
HETATM   34  C7  UNL     1     -12.103  13.789  30.865  1.00  0.00    -0.014 C 
HETATM   35  C8  UNL     1     -12.724  12.655  31.634  1.00  0.00     0.010 C 
BRANCH  34  36
HETATM   36  C6  UNL     1     -12.334  15.041  31.752  1.00  0.00     0.005 C 
BRANCH  36  37
HETATM   37  C5  UNL     1     -11.485  15.102  32.943  1.00  0.00     0.001 C 
BRANCH  37  38
HETATM   38  C4  UNL     1     -10.565  16.263  32.988  1.00  0.00     0.004 C 
BRANCH  38  39
HETATM   39  C2  UNL     1      -9.100  16.072  32.967  1.00  0.00    -0.023 C 
HETATM   40  C1  UNL     1      -8.539  14.881  32.282  1.00  0.00     0.009 C 
HETATM   41  C3  UNL     1      -8.462  17.336  32.337  1.00  0.00     0.009 C 
ENDBRANCH  38  39
ENDBRANCH  37  38
ENDBRANCH  36  37
ENDBRANCH  34  36
ENDBRANCH   1  34
TORSDOF 12
ENDMDL
MODEL 5
REMARK VINA RESULT: -7.278562225      4.316      9.504
REMARK  12 active torsions:
REMARK  status: ('A' for Active; 'I' for Inactive)
REMARK    1  A    between atoms: C2_2  and  C4_4 
REMARK    2  A    between atoms: C4_4  and  C5_5 
REMARK    3  A    between atoms: C5_5  and  C6_6 
REMARK    4  A    between atoms: C6_6  and  C7_7 
REMARK    5  A    between atoms: C7_7  and  C9_9 
REMARK    6  A    between atoms: C18_18  and  O1_19 
REMARK    7  A    between atoms: C19_21  and  C20_22 
REMARK    8  A    between atoms: C20_22  and  C22_24 
REMARK    9  A    between atoms: C20_22  and  N1_27 
REMARK   10  A    between atoms: C22_24  and  O2_25 
REMARK   11  A    between atoms: N1_27  and  S1_29 
REMARK   12  A    between atoms: C28_37  and  O5_38 
ROOT
HETATM    1  C9  UNL     1      -8.338  16.511  25.471  1.00  0.00     0.000 C 
HETATM    2  C10 UNL     1      -9.027  17.886  25.279  1.00  0.00     0.006 C 
HETATM    3  C11 UNL     1      -8.835  18.495  26.660  1.00  0.00     0.006 C 
HETATM    4  C12 UNL     1      -9.293  17.315  27.424  1.00  0.00     0.001 C 
HETATM    5  C13 UNL     1      -9.527  17.433  28.846  1.00  0.00    -0.005 C 
HETATM    6  C14 UNL     1      -8.378  17.827  29.713  1.00  0.00     0.006 C 
HETATM    7  C15 UNL     1      -9.012  18.204  31.029  1.00  0.00     0.006 C 
HETATM    8  C16 UNL     1      -9.724  17.091  31.675  1.00  0.00    -0.003 C 
HETATM    9  C17 UNL     1      -8.793  16.244  32.439  1.00  0.00     0.037 C 
HETATM   10  C18 UNL     1      -9.573  14.946  32.573  1.00  0.00     0.126 C 
HETATM   11  C19 UNL     1     -10.661  14.969  31.532  1.00  0.00     0.053 C 
HETATM   12  C24 UNL     1     -10.595  16.199  30.779  1.00  0.00    -0.028 C 
HETATM   13  C25 UNL     1     -11.824  17.083  30.649  1.00  0.00     0.016 C 
HETATM   14  C26 UNL     1     -10.099  16.110  29.362  1.00  0.00     0.001 C 
HETATM   15  C27 UNL     1      -9.166  15.038  28.974  1.00  0.00     0.038 C 
HETATM   16  C28 UNL     1      -8.987  15.008  27.437  1.00  0.00     0.127 C 
HETATM   17  C29 UNL     1      -8.356  16.237  26.931  1.00  0.00    -0.010 C 
HETATM   18  C30 UNL     1      -6.953  16.381  27.466  1.00  0.00     0.018 C 
ENDROOT
BRANCH  11  19
HETATM   19  C20 UNL     1     -11.948  14.408  32.110  1.00  0.00     0.064 C 
HETATM   20  C21 UNL     1     -12.832  15.478  32.696  1.00  0.00     0.041 C 
BRANCH  19  21
HETATM   21  C22 UNL     1     -12.631  13.502  31.138  1.00  0.00     0.195 C 
BRANCH  21  22
HETATM   22  O2  UNL     1     -11.614  12.862  30.392  1.00  0.00    -0.398 OA
ATOM     23  H2  UNL     1     -12.033  12.479  29.630  1.00  0.00     0.209 HD
ENDBRANCH  21  22
ENDBRANCH  19  21
BRANCH  19  24
HETATM   24  N1  UNL     1     -11.559  13.606  33.211  1.00  0.00    -0.308 N 
ATOM     25  H1  UNL     1     -10.565  13.381  33.253  1.00  0.00     0.173 HD
BRANCH  24  26
HETATM   26  S1  UNL     1     -12.450  12.995  34.407  1.00  0.00     0.223 S 
HETATM   27  C23 UNL     1     -13.858  12.038  33.942  1.00  0.00     0.185 C 
HETATM   28  O3  UNL     1     -11.584  11.985  35.222  1.00  0.00    -0.206 OA
HETATM   29  O4  UNL     1     -12.929  13.919  35.507  1.00  0.00    -0.206 OA
ENDBRANCH  24  26
ENDBRANCH  19  24
ENDBRANCH  11  19
BRANCH  10  30
HETATM   30  O1  UNL     1      -8.573  13.970  32.330  1.00  0.00    -0.395 OA
ATOM     31  H1  UNL     1      -8.932  13.203  32.761  1.00  0.00     0.210 HD
ENDBRANCH  10  30
BRANCH  16  32
HETATM   32  O5  UNL     1     -10.309  14.867  27.014  1.00  0.00    -0.395 OA
ATOM     33  H5  UNL     1     -10.678  15.700  27.281  1.00  0.00     0.210 HD
ENDBRANCH  16  32
BRANCH   1  34
HETATM   34  C7  UNL     1      -8.859  15.514  24.534  1.00  0.00    -0.014 C 
HETATM   35  C8  UNL     1      -7.838  14.764  23.722  1.00  0.00     0.010 C 
BRANCH  34  36
HETATM   36  C6  UNL     1      -9.768  16.205  23.484  1.00  0.00     0.005 C 
BRANCH  36  37
HETATM   37  C5  UNL     1      -9.246  16.171  22.118  1.00  0.00     0.001 C 
BRANCH  37  38
HETATM   38  C4  UNL     1      -8.930  17.500  21.542  1.00  0.00     0.004 C 
BRANCH  38  39
HETATM   39  C2  UNL     1      -7.542  18.005  21.516  1.00  0.00    -0.023 C 
HETATM   40  C1  UNL     1      -7.000  18.685  22.720  1.00  0.00     0.009 C 
HETATM   41  C3  UNL     1      -6.607  16.818  21.172  1.00  0.00     0.009 C 
ENDBRANCH  38  39
ENDBRANCH  37  38
ENDBRANCH  36  37
ENDBRANCH  34  36
ENDBRANCH   1  34
TORSDOF 12
ENDMDL
