MODEL 1
REMARK VINA RESULT: -9.399918166      0.000      0.000
REMARK  11 active torsions:
REMARK  status: ('A' for Active; 'I' for Inactive)
REMARK    1  A    between atoms: C2_2  and  C3_3 
REMARK    2  A    between atoms: C2_2  and  C14_23 
REMARK       I    between atoms: C3_3  and  N1_5 
REMARK    3  A    between atoms: N1_5  and  C4_7 
REMARK    4  A    between atoms: C4_7  and  C5_8 
REMARK    5  A    between atoms: C4_7  and  C13_20 
REMARK    6  A    between atoms: C5_8  and  C6_9 
REMARK    7  A    between atoms: C6_9  and  C7_10 
REMARK    8  A    between atoms: C7_10  and  N2_11 
REMARK       I    between atoms: N2_11  and  C8_13 
REMARK    9  A    between atoms: C8_13  and  O3_15 
REMARK   10  A    between atoms: O3_15  and  C9_16 
REMARK   11  A    between atoms: C23_32  and  O6_33 
ROOT
HETATM    1  C1  UNL     1     -13.257  13.966  27.447  1.00  0.00     0.020 C 
HETATM    2  C2  UNL     1     -12.671  14.838  28.520  1.00  0.00     0.078 C 
ENDROOT
BRANCH   2   3
HETATM    3  C3  UNL     1     -13.058  14.286  29.838  1.00  0.00     0.222 C 
HETATM    4  O1  UNL     1     -14.006  14.801  30.488  1.00  0.00    -0.273 OA
HETATM    5  N1  UNL     1     -12.398  13.177  30.423  1.00  0.00    -0.346 N 
ATOM      6  H1  UNL     1     -11.627  12.761  29.902  1.00  0.00     0.163 HD
BRANCH   5   7
HETATM    7  C4  UNL     1     -12.729  12.595  31.685  1.00  0.00     0.185 C 
BRANCH   7   8
HETATM    8  C5  UNL     1     -13.119  13.570  32.739  1.00  0.00     0.038 C 
BRANCH   8   9
HETATM    9  C6  UNL     1     -13.024  13.047  34.142  1.00  0.00     0.022 C 
BRANCH   9  10
HETATM   10  C7  UNL     1     -12.049  13.863  34.977  1.00  0.00     0.125 C 
BRANCH  10  11
HETATM   11  N2  UNL     1     -10.901  14.313  34.261  1.00  0.00    -0.337 N 
HETATM   12  C8  UNL     1     -10.526  15.684  34.166  1.00  0.00     0.361 C 
HETATM   13  O2  UNL     1     -11.181  16.603  34.709  1.00  0.00    -0.238 OA
ATOM     14  H2  UNL     1     -10.318  13.619  33.795  1.00  0.00     0.164 HD
BRANCH  12  15
HETATM   15  O3  UNL     1      -9.403  16.017  33.450  1.00  0.00    -0.294 OA
BRANCH  15  16
HETATM   16  C9  UNL     1      -9.329  16.143  32.054  1.00  0.00     0.061 C 
HETATM   17  C10 UNL     1      -8.464  17.332  31.629  1.00  0.00     0.046 C 
HETATM   18  C11 UNL     1      -8.839  14.867  31.431  1.00  0.00     0.046 C 
HETATM   19  C12 UNL     1     -10.740  16.419  31.543  1.00  0.00     0.046 C 
ENDBRANCH  15  16
ENDBRANCH  12  15
ENDBRANCH  10  11
ENDBRANCH   9  10
ENDBRANCH   8   9
ENDBRANCH   7   8
BRANCH   7  20
HETATM   20  C13 UNL     1     -13.846  11.603  31.471  1.00  0.00     0.196 C 
HETATM   21  O4  UNL     1     -15.051  11.915  31.491  1.00  0.00    -0.646 OA
HETATM   22  O5  UNL     1     -13.465  10.289  31.245  1.00  0.00    -0.646 OA
ENDBRANCH   7  20
ENDBRANCH   5   7
ENDBRANCH   2   3
BRANCH   2  23
HETATM   23  C14 UNL     1     -11.231  15.069  28.470  1.00  0.00     0.007 C 
HETATM   24  C15 UNL     1     -10.344  14.034  27.902  1.00  0.00     0.007 C 
HETATM   25  C16 UNL     1      -9.030  14.798  27.671  1.00  0.00     0.006 C 
HETATM   26  C17 UNL     1      -9.291  16.220  28.067  1.00  0.00    -0.002 C 
HETATM   27  C18 UNL     1      -8.482  17.232  27.353  1.00  0.00    -0.005 C 
HETATM   28  C29 UNL     1     -10.780  16.331  27.780  1.00  0.00    -0.036 C 
HETATM   29  C19 UNL     1      -7.071  17.257  27.821  1.00  0.00     0.006 C 
HETATM   30  C26 UNL     1      -8.618  17.124  25.845  1.00  0.00    -0.005 C 
HETATM   31  C20 UNL     1      -6.404  18.477  27.166  1.00  0.00     0.005 C 
HETATM   32  C21 UNL     1      -6.447  18.244  25.697  1.00  0.00    -0.008 C 
HETATM   33  C22 UNL     1      -5.878  19.341  24.857  1.00  0.00     0.036 C 
HETATM   34  C25 UNL     1      -7.915  18.301  25.244  1.00  0.00    -0.004 C 
HETATM   35  C23 UNL     1      -6.473  19.011  23.482  1.00  0.00     0.118 C 
HETATM   36  C24 UNL     1      -7.718  18.189  23.750  1.00  0.00     0.037 C 
HETATM   37  C27 UNL     1     -10.110  17.319  25.575  1.00  0.00     0.006 C 
HETATM   38  C28 UNL     1     -10.954  16.295  26.295  1.00  0.00     0.010 C 
HETATM   39  C30 UNL     1     -11.395  17.563  28.393  1.00  0.00     0.016 C 
BRANCH  35  40
HETATM   40  O6  UNL     1      -6.735  20.156  22.754  1.00  0.00    -0.396 OA
ATOM     41  H6  UNL     1      -7.614  20.146  22.393  1.00  0.00     0.210 HD
ENDBRANCH  35  40
ENDBRANCH   2  23
TORSDOF 11
ENDMDL
MODEL 2
REMARK VINA RESULT: -9.296552372      3.513      9.955
REMARK  11 active torsions:
REMARK  status: ('A' for Active; 'I' for Inactive)
REMARK    1  A    between atoms: C2_2  and  C3_3 
REMARK    2  A    between atoms: C2_2  and  C14_23 
REMARK       I    between atoms: C3_3  and  N1_5 
REMARK    3  A    between atoms: N1_5  and  C4_7 
REMARK    4  A    between atoms: C4_7  and  C5_8 
REMARK    5  A    between atoms: C4_7  and  C13_20 
REMARK    6  A    between atoms: C5_8  and  C6_9 
REMARK    7  A    between atoms: C6_9  and  C7_10 
REMARK    8  A    between atoms: C7_10  and  N2_11 
REMARK       I    between atoms: N2_11  and  C8_13 
REMARK    9  A    between atoms: C8_13  and  O3_15 
REMARK   10  A    between atoms: O3_15  and  C9_16 
REMARK   11  A    between atoms: C23_32  and  O6_33 
ROOT
HETATM    1  C1  UNL     1      -6.137  19.004  26.852  1.00  0.00     0.020 C 
HETATM    2  C2  UNL     1      -7.431  18.514  26.269  1.00  0.00     0.078 C 
ENDROOT
BRANCH   2   3
HETATM    3  C3  UNL     1      -7.262  18.365  24.807  1.00  0.00     0.222 C 
HETATM    4  O1  UNL     1      -6.301  18.926  24.218  1.00  0.00    -0.273 OA
HETATM    5  N1  UNL     1      -8.152  17.602  24.011  1.00  0.00    -0.346 N 
ATOM      6  H1  UNL     1      -8.935  17.151  24.483  1.00  0.00     0.163 HD
BRANCH   5   7
HETATM    7  C4  UNL     1      -8.038  17.414  22.600  1.00  0.00     0.185 C 
BRANCH   7   8
HETATM    8  C5  UNL     1      -6.967  16.471  22.179  1.00  0.00     0.038 C 
BRANCH   8   9
HETATM    9  C6  UNL     1      -6.480  16.664  20.773  1.00  0.00     0.022 C 
BRANCH   9  10
HETATM   10  C7  UNL     1      -4.997  17.002  20.737  1.00  0.00     0.125 C 
BRANCH  10  11
HETATM   11  N2  UNL     1      -4.512  17.630  21.922  1.00  0.00    -0.337 N 
HETATM   12  C8  UNL     1      -3.621  18.741  21.910  1.00  0.00     0.361 C 
HETATM   13  O2  UNL     1      -3.195  19.254  20.851  1.00  0.00    -0.238 OA
ATOM     14  H2  UNL     1      -4.819  17.265  22.824  1.00  0.00     0.164 HD
BRANCH  12  15
HETATM   15  O3  UNL     1      -3.208  19.273  23.105  1.00  0.00    -0.294 OA
BRANCH  15  16
HETATM   16  C9  UNL     1      -2.312  18.673  24.004  1.00  0.00     0.061 C 
HETATM   17  C10 UNL     1      -3.036  17.947  25.140  1.00  0.00     0.046 C 
HETATM   18  C11 UNL     1      -1.375  17.749  23.281  1.00  0.00     0.046 C 
HETATM   19  C12 UNL     1      -1.491  19.788  24.646  1.00  0.00     0.046 C 
ENDBRANCH  15  16
ENDBRANCH  12  15
ENDBRANCH  10  11
ENDBRANCH   9  10
ENDBRANCH   8   9
ENDBRANCH   7   8
BRANCH   7  20
HETATM   20  C13 UNL     1      -9.371  16.935  22.077  1.00  0.00     0.196 C 
HETATM   21  O4  UNL     1      -9.858  17.312  20.994  1.00  0.00    -0.646 OA
HETATM   22  O5  UNL     1     -10.053  16.030  22.875  1.00  0.00    -0.646 OA
ENDBRANCH   7  20
ENDBRANCH   5   7
ENDBRANCH   2   3
BRANCH   2  23
HETATM   23  C14 UNL     1      -7.994  17.295  26.841  1.00  0.00     0.007 C 
HETATM   24  C15 UNL     1      -7.091  16.244  27.353  1.00  0.00     0.007 C 
HETATM   25  C16 UNL     1      -8.030  15.367  28.197  1.00  0.00     0.006 C 
HETATM   26  C17 UNL     1      -9.378  16.021  28.150  1.00  0.00    -0.002 C 
HETATM   27  C18 UNL     1     -10.231  15.794  29.336  1.00  0.00    -0.005 C 
HETATM   28  C29 UNL     1      -8.986  17.478  27.962  1.00  0.00    -0.036 C 
HETATM   29  C19 UNL     1     -10.792  14.418  29.374  1.00  0.00     0.006 C 
HETATM   30  C26 UNL     1      -9.547  16.205  30.628  1.00  0.00    -0.005 C 
HETATM   31  C20 UNL     1     -11.815  14.381  30.519  1.00  0.00     0.005 C 
HETATM   32  C21 UNL     1     -11.058  14.655  31.770  1.00  0.00    -0.008 C 
HETATM   33  C22 UNL     1     -11.878  14.704  33.019  1.00  0.00     0.036 C 
HETATM   34  C25 UNL     1     -10.561  16.109  31.725  1.00  0.00    -0.004 C 
HETATM   35  C23 UNL     1     -10.925  15.425  33.981  1.00  0.00     0.118 C 
HETATM   36  C24 UNL     1      -9.966  16.211  33.110  1.00  0.00     0.037 C 
HETATM   37  C27 UNL     1      -9.236  17.690  30.447  1.00  0.00     0.006 C 
HETATM   38  C28 UNL     1      -8.365  17.943  29.241  1.00  0.00     0.010 C 
HETATM   39  C30 UNL     1     -10.152  18.340  27.551  1.00  0.00     0.016 C 
BRANCH  35  40
HETATM   40  O6  UNL     1     -11.614  16.224  34.874  1.00  0.00    -0.396 OA
ATOM     41  H6  UNL     1     -11.030  16.614  35.514  1.00  0.00     0.210 HD
ENDBRANCH  35  40
ENDBRANCH   2  23
TORSDOF 11
ENDMDL
MODEL 3
REMARK VINA RESULT: -9.224207133      1.415      3.821
REMARK  11 active torsions:
REMARK  status: ('A' for Active; 'I' for Inactive)
REMARK    1  A    between atoms: C2_2  and  C3_3 
REMARK    2  A    between atoms: C2_2  and  C14_23 
REMARK       I    between atoms: C3_3  and  N1_5 
REMARK    3  A    between atoms: N1_5  and  C4_7 
REMARK    4  A    between atoms: C4_7  and  C5_8 
REMARK    5  A    between atoms: C4_7  and  C13_20 
REMARK    6  A    between atoms: C5_8  and  C6_9 
REMARK    7  A    between atoms: C6_9  and  C7_10 
REMARK    8  A    between atoms: C7_10  and  N2_11 
REMARK       I    between atoms: N2_11  and  C8_13 
REMARK    9  A    between atoms: C8_13  and  O3_15 
REMARK   10  A    between atoms: O3_15  and  C9_16 
REMARK   11  A    between atoms: C23_32  and  O6_33 
ROOT
HETATM    1  C1  UNL     1     -13.394  14.270  28.273  1.00  0.00     0.020 C 
HETATM    2  C2  UNL     1     -12.591  15.308  29.003  1.00  0.00     0.078 C 
ENDROOT
BRANCH   2   3
HETATM    3  C3  UNL     1     -12.860  15.178  30.452  1.00  0.00     0.222 C 
HETATM    4  O1  UNL     1     -13.944  14.678  30.854  1.00  0.00    -0.273 OA
HETATM    5  N1  UNL     1     -11.935  15.599  31.439  1.00  0.00    -0.346 N 
ATOM      6  H1  UNL     1     -11.059  16.010  31.118  1.00  0.00     0.163 HD
BRANCH   5   7
HETATM    7  C4  UNL     1     -12.133  15.494  32.850  1.00  0.00     0.185 C 
BRANCH   7   8
HETATM    8  C5  UNL     1     -12.448  14.124  33.336  1.00  0.00     0.038 C 
BRANCH   8   9
HETATM    9  C6  UNL     1     -12.854  14.048  34.779  1.00  0.00     0.022 C 
BRANCH   9  10
HETATM   10  C7  UNL     1     -12.358  12.768  35.432  1.00  0.00     0.125 C 
BRANCH  10  11
HETATM   11  N2  UNL     1     -12.168  11.684  34.525  1.00  0.00    -0.337 N 
HETATM   12  C8  UNL     1     -13.175  10.719  34.238  1.00  0.00     0.361 C 
HETATM   13  O2  UNL     1     -14.312  10.751  34.762  1.00  0.00    -0.238 OA
ATOM     14  H2  UNL     1     -11.266  11.596  34.058  1.00  0.00     0.164 HD
BRANCH  12  15
HETATM   15  O3  UNL     1     -12.894   9.710  33.351  1.00  0.00    -0.294 OA
BRANCH  15  16
HETATM   16  C9  UNL     1     -13.351   9.633  32.026  1.00  0.00     0.061 C 
HETATM   17  C10 UNL     1     -14.752   9.024  31.935  1.00  0.00     0.046 C 
HETATM   18  C11 UNL     1     -13.303  10.983  31.368  1.00  0.00     0.046 C 
HETATM   19  C12 UNL     1     -12.413   8.696  31.271  1.00  0.00     0.046 C 
ENDBRANCH  15  16
ENDBRANCH  12  15
ENDBRANCH  10  11
ENDBRANCH   9  10
ENDBRANCH   8   9
ENDBRANCH   7   8
BRANCH   7  20
HETATM   20  C13 UNL     1     -10.893  16.006  33.542  1.00  0.00     0.196 C 
HETATM   21  O4  UNL     1     -10.921  16.812  34.490  1.00  0.00    -0.646 OA
HETATM   22  O5  UNL     1      -9.683  15.527  33.064  1.00  0.00    -0.646 OA
ENDBRANCH   7  20
ENDBRANCH   5   7
ENDBRANCH   2   3
BRANCH   2  23
HETATM   23  C14 UNL     1     -11.153  15.326  28.754  1.00  0.00     0.007 C 
HETATM   24  C15 UNL     1     -10.526  14.214  28.011  1.00  0.00     0.007 C 
HETATM   25  C16 UNL     1      -9.153  14.789  27.628  1.00  0.00     0.006 C 
HETATM   26  C17 UNL     1      -9.130  16.202  28.128  1.00  0.00    -0.002 C 
HETATM   27  C18 UNL     1      -8.277  17.130  27.355  1.00  0.00    -0.005 C 
HETATM   28  C29 UNL     1     -10.608  16.553  28.069  1.00  0.00    -0.036 C 
HETATM   29  C19 UNL     1      -6.829  16.913  27.612  1.00  0.00     0.006 C 
HETATM   30  C26 UNL     1      -8.635  17.152  25.880  1.00  0.00    -0.005 C 
HETATM   31  C20 UNL     1      -6.074  18.063  26.928  1.00  0.00     0.005 C 
HETATM   32  C21 UNL     1      -6.355  17.946  25.471  1.00  0.00    -0.008 C 
HETATM   33  C22 UNL     1      -5.741  19.003  24.612  1.00  0.00     0.036 C 
HETATM   34  C25 UNL     1      -7.844  18.252  25.241  1.00  0.00    -0.004 C 
HETATM   35  C23 UNL     1      -6.564  18.864  23.325  1.00  0.00     0.118 C 
HETATM   36  C24 UNL     1      -7.874  18.220  23.731  1.00  0.00     0.037 C 
HETATM   37  C27 UNL     1     -10.099  17.586  25.842  1.00  0.00     0.006 C 
HETATM   38  C28 UNL     1     -10.987  16.650  26.625  1.00  0.00     0.010 C 
HETATM   39  C30 UNL     1     -10.931  17.816  28.826  1.00  0.00     0.016 C 
BRANCH  35  40
HETATM   40  O6  UNL     1      -6.739  20.085  22.701  1.00  0.00    -0.396 OA
ATOM     41  H6  UNL     1      -6.995  20.759  23.320  1.00  0.00     0.210 HD
ENDBRANCH  35  40
ENDBRANCH   2  23
TORSDOF 11
ENDMDL
MODEL 4
REMARK VINA RESULT: -9.180043775      1.936      4.451
REMARK  11 active torsions:
REMARK  status: ('A' for Active; 'I' for Inactive)
REMARK    1  A    between atoms: C2_2  and  C3_3 
REMARK    2  A    between atoms: C2_2  and  C14_23 
REMARK       I    between atoms: C3_3  and  N1_5 
REMARK    3  A    between atoms: N1_5  and  C4_7 
REMARK    4  A    between atoms: C4_7  and  C5_8 
REMARK    5  A    between atoms: C4_7  and  C13_20 
REMARK    6  A    between atoms: C5_8  and  C6_9 
REMARK    7  A    between atoms: C6_9  and  C7_10 
REMARK    8  A    between atoms: C7_10  and  N2_11 
REMARK       I    between atoms: N2_11  and  C8_13 
REMARK    9  A    between atoms: C8_13  and  O3_15 
REMARK   10  A    between atoms: O3_15  and  C9_16 
REMARK   11  A    between atoms: C23_32  and  O6_33 
ROOT
HETATM    1  C1  UNL     1      -8.614  17.856  31.032  1.00  0.00     0.020 C 
HETATM    2  C2  UNL     1      -8.802  16.548  30.321  1.00  0.00     0.078 C 
ENDROOT
BRANCH   2   3
HETATM    3  C3  UNL     1      -9.487  15.608  31.236  1.00  0.00     0.222 C 
HETATM    4  O1  UNL     1      -8.902  14.564  31.627  1.00  0.00    -0.273 OA
HETATM    5  N1  UNL     1     -10.803  15.829  31.710  1.00  0.00    -0.346 N 
ATOM      6  H1  UNL     1     -11.282  16.671  31.391  1.00  0.00     0.163 HD
BRANCH   5   7
HETATM    7  C4  UNL     1     -11.514  14.966  32.599  1.00  0.00     0.185 C 
BRANCH   7   8
HETATM    8  C5  UNL     1     -11.234  15.190  34.043  1.00  0.00     0.038 C 
BRANCH   8   9
HETATM    9  C6  UNL     1     -10.818  13.962  34.798  1.00  0.00     0.022 C 
BRANCH   9  10
HETATM   10  C7  UNL     1     -12.021  13.191  35.318  1.00  0.00     0.125 C 
BRANCH  10  11
HETATM   11  N2  UNL     1     -12.252  11.951  34.653  1.00  0.00    -0.337 N 
HETATM   12  C8  UNL     1     -13.489  11.616  34.030  1.00  0.00     0.361 C 
HETATM   13  O2  UNL     1     -14.471  12.391  34.018  1.00  0.00    -0.238 OA
ATOM     14  H2  UNL     1     -11.494  11.269  34.621  1.00  0.00     0.164 HD
BRANCH  12  15
HETATM   15  O3  UNL     1     -13.614  10.394  33.417  1.00  0.00    -0.294 OA
BRANCH  15  16
HETATM   16  C9  UNL     1     -13.737  10.179  32.035  1.00  0.00     0.061 C 
HETATM   17  C10 UNL     1     -15.199  10.067  31.598  1.00  0.00     0.046 C 
HETATM   18  C11 UNL     1     -13.023  11.254  31.265  1.00  0.00     0.046 C 
HETATM   19  C12 UNL     1     -13.078   8.840  31.719  1.00  0.00     0.046 C 
ENDBRANCH  15  16
ENDBRANCH  12  15
ENDBRANCH  10  11
ENDBRANCH   9  10
ENDBRANCH   8   9
ENDBRANCH   7   8
BRANCH   7  20
HETATM   20  C13 UNL     1     -12.991  15.127  32.336  1.00  0.00     0.196 C 
HETATM   21  O4  UNL     1     -13.790  15.584  33.175  1.00  0.00    -0.646 OA
HETATM   22  O5  UNL     1     -13.438  14.734  31.084  1.00  0.00    -0.646 OA
ENDBRANCH   7  20
ENDBRANCH   5   7
ENDBRANCH   2   3
BRANCH   2  23
HETATM   23  C14 UNL     1      -9.487  16.589  29.032  1.00  0.00     0.007 C 
HETATM   24  C15 UNL     1     -10.286  17.777  28.668  1.00  0.00     0.007 C 
HETATM   25  C16 UNL     1     -10.486  17.603  27.153  1.00  0.00     0.006 C 
HETATM   26  C17 UNL     1      -9.734  16.366  26.765  1.00  0.00    -0.002 C 
HETATM   27  C18 UNL     1      -9.222  16.349  25.378  1.00  0.00    -0.005 C 
HETATM   28  C29 UNL     1      -8.632  16.357  27.813  1.00  0.00    -0.036 C 
HETATM   29  C19 UNL     1     -10.301  16.124  24.380  1.00  0.00     0.006 C 
HETATM   30  C26 UNL     1      -8.351  17.553  25.067  1.00  0.00    -0.005 C 
HETATM   31  C20 UNL     1      -9.618  15.915  23.020  1.00  0.00     0.005 C 
HETATM   32  C21 UNL     1      -8.896  17.179  22.711  1.00  0.00    -0.008 C 
HETATM   33  C22 UNL     1      -8.121  17.178  21.433  1.00  0.00     0.036 C 
HETATM   34  C25 UNL     1      -7.744  17.334  23.716  1.00  0.00    -0.004 C 
HETATM   35  C23 UNL     1      -7.184  18.375  21.645  1.00  0.00     0.118 C 
HETATM   36  C24 UNL     1      -7.079  18.564  23.145  1.00  0.00     0.037 C 
HETATM   37  C27 UNL     1      -7.208  17.477  26.079  1.00  0.00     0.006 C 
HETATM   38  C28 UNL     1      -7.711  17.494  27.502  1.00  0.00     0.010 C 
HETATM   39  C30 UNL     1      -7.905  15.038  27.873  1.00  0.00     0.016 C 
BRANCH  35  40
HETATM   40  O6  UNL     1      -5.957  18.171  21.044  1.00  0.00    -0.396 OA
ATOM     41  H6  UNL     1      -5.652  18.954  20.600  1.00  0.00     0.210 HD
ENDBRANCH  35  40
ENDBRANCH   2  23
TORSDOF 11
ENDMDL
MODEL 5
REMARK VINA RESULT: -9.036715610      1.545      4.130
REMARK  11 active torsions:
REMARK  status: ('A' for Active; 'I' for Inactive)
REMARK    1  A    between atoms: C2_2  and  C3_3 
REMARK    2  A    between atoms: C2_2  and  C14_23 
REMARK       I    between atoms: C3_3  and  N1_5 
REMARK    3  A    between atoms: N1_5  and  C4_7 
REMARK    4  A    between atoms: C4_7  and  C5_8 
REMARK    5  A    between atoms: C4_7  and  C13_20 
REMARK    6  A    between atoms: C5_8  and  C6_9 
REMARK    7  A    between atoms: C6_9  and  C7_10 
REMARK    8  A    between atoms: C7_10  and  N2_11 
REMARK       I    between atoms: N2_11  and  C8_13 
REMARK    9  A    between atoms: C8_13  and  O3_15 
REMARK   10  A    between atoms: O3_15  and  C9_16 
REMARK   11  A    between atoms: C23_32  and  O6_33 
ROOT
HETATM    1  C1  UNL     1     -13.288  14.216  28.443  1.00  0.00     0.020 C 
HETATM    2  C2  UNL     1     -12.429  15.268  29.084  1.00  0.00     0.078 C 
ENDROOT
BRANCH   2   3
HETATM    3  C3  UNL     1     -12.619  15.203  30.549  1.00  0.00     0.222 C 
HETATM    4  O1  UNL     1     -13.725  14.843  31.031  1.00  0.00    -0.273 OA
HETATM    5  N1  UNL     1     -11.590  15.534  31.466  1.00  0.00    -0.346 N 
ATOM      6  H1  UNL     1     -10.695  15.832  31.080  1.00  0.00     0.163 HD
BRANCH   5   7
HETATM    7  C4  UNL     1     -11.709  15.484  32.889  1.00  0.00     0.185 C 
BRANCH   7   8
HETATM    8  C5  UNL     1     -11.713  14.114  33.467  1.00  0.00     0.038 C 
BRANCH   8   9
HETATM    9  C6  UNL     1     -12.669  13.918  34.607  1.00  0.00     0.022 C 
BRANCH   9  10
HETATM   10  C7  UNL     1     -13.629  12.768  34.340  1.00  0.00     0.125 C 
BRANCH  10  11
HETATM   11  N2  UNL     1     -13.034  11.652  33.682  1.00  0.00    -0.337 N 
HETATM   12  C8  UNL     1     -13.499  11.138  32.438  1.00  0.00     0.361 C 
HETATM   13  O2  UNL     1     -14.470  11.634  31.823  1.00  0.00    -0.238 OA
ATOM     14  H2  UNL     1     -12.235  11.197  34.125  1.00  0.00     0.164 HD
BRANCH  12  15
HETATM   15  O3  UNL     1     -12.861  10.056  31.886  1.00  0.00    -0.294 OA
BRANCH  15  16
HETATM   16  C9  UNL     1     -13.120   8.710  32.187  1.00  0.00     0.061 C 
HETATM   17  C10 UNL     1     -12.758   8.364  33.633  1.00  0.00     0.046 C 
HETATM   18  C11 UNL     1     -14.552   8.366  31.891  1.00  0.00     0.046 C 
HETATM   19  C12 UNL     1     -12.225   7.859  31.292  1.00  0.00     0.046 C 
ENDBRANCH  15  16
ENDBRANCH  12  15
ENDBRANCH  10  11
ENDBRANCH   9  10
ENDBRANCH   8   9
ENDBRANCH   7   8
BRANCH   7  20
HETATM   20  C13 UNL     1     -10.578  16.285  33.487  1.00  0.00     0.196 C 
HETATM   21  O4  UNL     1      -9.452  16.377  32.963  1.00  0.00    -0.646 OA
HETATM   22  O5  UNL     1     -10.852  16.936  34.680  1.00  0.00    -0.646 OA
ENDBRANCH   7  20
ENDBRANCH   5   7
ENDBRANCH   2   3
BRANCH   2  23
HETATM   23  C14 UNL     1     -11.007  15.250  28.755  1.00  0.00     0.007 C 
HETATM   24  C15 UNL     1     -10.462  14.154  27.928  1.00  0.00     0.007 C 
HETATM   25  C16 UNL     1      -9.092  14.700  27.495  1.00  0.00     0.006 C 
HETATM   26  C17 UNL     1      -8.991  16.086  28.057  1.00  0.00    -0.002 C 
HETATM   27  C18 UNL     1      -8.148  17.022  27.281  1.00  0.00    -0.005 C 
HETATM   28  C29 UNL     1     -10.456  16.490  28.097  1.00  0.00    -0.036 C 
HETATM   29  C19 UNL     1      -6.698  16.743  27.445  1.00  0.00     0.006 C 
HETATM   30  C26 UNL     1      -8.585  17.126  25.830  1.00  0.00    -0.005 C 
HETATM   31  C20 UNL     1      -5.940  17.900  26.773  1.00  0.00     0.005 C 
HETATM   32  C21 UNL     1      -6.305  17.861  25.331  1.00  0.00    -0.008 C 
HETATM   33  C22 UNL     1      -5.701  18.937  24.488  1.00  0.00     0.036 C 
HETATM   34  C25 UNL     1      -7.791  18.228  25.199  1.00  0.00    -0.004 C 
HETATM   35  C23 UNL     1      -6.597  18.888  23.244  1.00  0.00     0.118 C 
HETATM   36  C24 UNL     1      -7.905  18.269  23.693  1.00  0.00     0.037 C 
HETATM   37  C27 UNL     1     -10.033  17.610  25.895  1.00  0.00     0.006 C 
HETATM   38  C28 UNL     1     -10.910  16.668  26.683  1.00  0.00     0.010 C 
HETATM   39  C30 UNL     1     -10.692  17.724  28.928  1.00  0.00     0.016 C 
BRANCH  35  40
HETATM   40  O6  UNL     1      -6.762  20.142  22.687  1.00  0.00    -0.396 OA
ATOM     41  H6  UNL     1      -6.452  20.826  23.271  1.00  0.00     0.210 HD
ENDBRANCH  35  40
ENDBRANCH   2  23
TORSDOF 11
ENDMDL
