MODEL 1
REMARK VINA RESULT: -9.371699814      0.000      0.000
REMARK  10 active torsions:
REMARK  status: ('A' for Active; 'I' for Inactive)
REMARK    1  A    between atoms: C4_4  and  N1_5 
REMARK       I    between atoms: N1_5  and  C5_7 
REMARK    2  A    between atoms: C5_7  and  C6_9 
REMARK    3  A    between atoms: C14_17  and  C15_18 
REMARK    4  A    between atoms: C15_18  and  C17_20 
REMARK    5  A    between atoms: C17_20  and  C18_21 
REMARK    6  A    between atoms: C18_21  and  C19_22 
REMARK    7  A    between atoms: C19_22  and  O2_23 
REMARK    8  A    between atoms: C19_22  and  C20_25 
REMARK    9  A    between atoms: C20_25  and  C21_26 
REMARK   10  A    between atoms: C27_34  and  O5_35 
ROOT
HETATM    1  C6  UNL     1      -8.057  17.609  23.773  1.00  0.00     0.090 C 
HETATM    2  C7  UNL     1      -8.116  18.271  25.169  1.00  0.00     0.025 C 
HETATM    3  C8  UNL     1      -8.151  16.863  25.734  1.00  0.00     0.027 C 
HETATM    4  C9  UNL     1      -9.278  16.722  26.728  1.00  0.00    -0.074 C 
HETATM    5  C10 UNL     1      -9.525  17.598  27.644  1.00  0.00    -0.022 C 
HETATM    6  C11 UNL     1     -10.597  17.504  28.620  1.00  0.00     0.037 C 
HETATM    7  C12 UNL     1     -11.463  16.270  28.556  1.00  0.00    -0.033 C 
HETATM    8  C13 UNL     1     -12.793  16.745  28.016  1.00  0.00     0.016 C 
HETATM    9  C14 UNL     1     -11.533  15.702  29.956  1.00  0.00    -0.002 C 
HETATM   10  C22 UNL     1     -10.114  15.185  30.072  1.00  0.00     0.006 C 
HETATM   11  C23 UNL     1      -9.981  14.417  28.755  1.00  0.00     0.006 C 
HETATM   12  C24 UNL     1     -10.895  15.131  27.788  1.00  0.00     0.002 C 
HETATM   13  C25 UNL     1     -10.104  15.500  26.592  1.00  0.00     0.022 C 
HETATM   14  C26 UNL     1     -10.873  15.541  25.294  1.00  0.00     0.042 C 
HETATM   15  C27 UNL     1     -10.233  16.549  24.376  1.00  0.00     0.128 C 
HETATM   16  C28 UNL     1      -8.707  16.425  24.384  1.00  0.00     0.002 C 
HETATM   17  C29 UNL     1      -8.219  15.112  23.869  1.00  0.00     0.019 C 
ENDROOT
BRANCH   1  18
HETATM   18  C5  UNL     1      -6.694  17.524  23.246  1.00  0.00     0.223 C 
HETATM   19  N1  UNL     1      -5.578  17.810  24.088  1.00  0.00    -0.356 N 
ATOM     20  H1  UNL     1      -5.755  18.074  25.056  1.00  0.00     0.162 HD
HETATM   21  O1  UNL     1      -6.445  17.206  22.075  1.00  0.00    -0.273 OA
BRANCH  19  22
HETATM   22  C4  UNL     1      -4.222  17.744  23.636  1.00  0.00     0.088 C 
HETATM   23  C3  UNL     1      -3.189  17.710  24.717  1.00  0.00     0.056 C 
HETATM   24  C2  UNL     1      -1.857  18.247  24.272  1.00  0.00     0.119 C 
HETATM   25  C1  UNL     1      -1.665  19.713  24.621  1.00  0.00     0.039 C 
HETATM   26  O6  UNL     1      -1.618  18.023  22.921  1.00  0.00    -0.386 OA
HETATM   27  C31 UNL     1      -2.533  18.636  22.078  1.00  0.00     0.170 C 
HETATM   28  C30 UNL     1      -3.873  18.886  22.706  1.00  0.00     0.051 C 
ENDBRANCH  19  22
ENDBRANCH   1  18
BRANCH  15  29
HETATM   29  O5  UNL     1     -10.637  16.360  23.052  1.00  0.00    -0.395 OA
ATOM     30  H5  UNL     1     -11.169  17.086  22.747  1.00  0.00     0.210 HD
ENDBRANCH  15  29
BRANCH   9  31
HETATM   31  C15 UNL     1     -12.432  14.567  30.176  1.00  0.00    -0.014 C 
HETATM   32  C16 UNL     1     -13.900  14.772  29.971  1.00  0.00     0.010 C 
BRANCH  31  33
HETATM   33  C17 UNL     1     -12.229  14.002  31.562  1.00  0.00     0.007 C 
BRANCH  33  34
HETATM   34  C18 UNL     1     -12.732  14.906  32.664  1.00  0.00     0.032 C 
BRANCH  34  35
HETATM   35  C19 UNL     1     -12.109  14.614  33.983  1.00  0.00     0.128 C 
BRANCH  35  36
HETATM   36  O2  UNL     1     -12.745  15.270  35.036  1.00  0.00    -0.395 OA
ATOM     37  H2  UNL     1     -12.206  15.318  35.817  1.00  0.00     0.210 HD
ENDBRANCH  35  36
BRANCH  35  38
HETATM   38  C20 UNL     1     -10.637  14.784  34.078  1.00  0.00     0.144 C 
BRANCH  38  39
HETATM   39  C21 UNL     1     -10.139  16.144  33.954  1.00  0.00     0.175 C 
HETATM   40  O3  UNL     1     -10.697  17.048  34.629  1.00  0.00    -0.648 OA
HETATM   41  O4  UNL     1      -9.092  16.521  33.146  1.00  0.00    -0.648 OA
ENDBRANCH  38  39
ENDBRANCH  35  38
ENDBRANCH  34  35
ENDBRANCH  33  34
ENDBRANCH  31  33
ENDBRANCH   9  31
TORSDOF 10
ENDMDL
MODEL 2
REMARK VINA RESULT: -9.318084625      1.568      1.945
REMARK  10 active torsions:
REMARK  status: ('A' for Active; 'I' for Inactive)
REMARK    1  A    between atoms: C4_4  and  N1_5 
REMARK       I    between atoms: N1_5  and  C5_7 
REMARK    2  A    between atoms: C5_7  and  C6_9 
REMARK    3  A    between atoms: C14_17  and  C15_18 
REMARK    4  A    between atoms: C15_18  and  C17_20 
REMARK    5  A    between atoms: C17_20  and  C18_21 
REMARK    6  A    between atoms: C18_21  and  C19_22 
REMARK    7  A    between atoms: C19_22  and  O2_23 
REMARK    8  A    between atoms: C19_22  and  C20_25 
REMARK    9  A    between atoms: C20_25  and  C21_26 
REMARK   10  A    between atoms: C27_34  and  O5_35 
ROOT
HETATM    1  C6  UNL     1      -7.967  17.622  23.689  1.00  0.00     0.090 C 
HETATM    2  C7  UNL     1      -8.059  18.310  25.071  1.00  0.00     0.025 C 
HETATM    3  C8  UNL     1      -8.066  16.913  25.664  1.00  0.00     0.027 C 
HETATM    4  C9  UNL     1      -9.201  16.765  26.647  1.00  0.00    -0.074 C 
HETATM    5  C10 UNL     1      -9.480  17.652  27.543  1.00  0.00    -0.022 C 
HETATM    6  C11 UNL     1     -10.561  17.552  28.507  1.00  0.00     0.037 C 
HETATM    7  C12 UNL     1     -11.397  16.296  28.459  1.00  0.00    -0.033 C 
HETATM    8  C13 UNL     1     -12.731  16.727  27.894  1.00  0.00     0.016 C 
HETATM    9  C14 UNL     1     -11.469  15.755  29.869  1.00  0.00    -0.002 C 
HETATM   10  C22 UNL     1     -10.039  15.275  30.012  1.00  0.00     0.006 C 
HETATM   11  C23 UNL     1      -9.872  14.484  28.712  1.00  0.00     0.006 C 
HETATM   12  C24 UNL     1     -10.791  15.156  27.721  1.00  0.00     0.002 C 
HETATM   13  C25 UNL     1      -9.995  15.520  26.526  1.00  0.00     0.022 C 
HETATM   14  C26 UNL     1     -10.750  15.515  25.219  1.00  0.00     0.042 C 
HETATM   15  C27 UNL     1     -10.123  16.520  24.288  1.00  0.00     0.128 C 
HETATM   16  C28 UNL     1      -8.595  16.435  24.316  1.00  0.00     0.002 C 
HETATM   17  C29 UNL     1      -8.069  15.124  23.834  1.00  0.00     0.019 C 
ENDROOT
BRANCH   1  18
HETATM   18  C5  UNL     1      -6.596  17.559  23.180  1.00  0.00     0.223 C 
HETATM   19  N1  UNL     1      -6.352  17.261  21.805  1.00  0.00    -0.356 N 
ATOM     20  H1  UNL     1      -7.152  17.095  21.195  1.00  0.00     0.162 HD
HETATM   21  O1  UNL     1      -5.603  17.756  23.894  1.00  0.00    -0.273 OA
BRANCH  19  22
HETATM   22  C4  UNL     1      -5.039  17.185  21.243  1.00  0.00     0.088 C 
HETATM   23  C3  UNL     1      -4.436  18.494  20.847  1.00  0.00     0.056 C 
HETATM   24  C2  UNL     1      -3.409  18.360  19.757  1.00  0.00     0.119 C 
HETATM   25  C1  UNL     1      -3.982  18.606  18.372  1.00  0.00     0.039 C 
HETATM   26  O6  UNL     1      -2.736  17.145  19.807  1.00  0.00    -0.386 OA
HETATM   27  C31 UNL     1      -3.557  16.039  19.641  1.00  0.00     0.170 C 
HETATM   28  C30 UNL     1      -4.986  16.272  20.037  1.00  0.00     0.051 C 
ENDBRANCH  19  22
ENDBRANCH   1  18
BRANCH  15  29
HETATM   29  O5  UNL     1     -10.507  16.296  22.964  1.00  0.00    -0.395 OA
ATOM     30  H5  UNL     1      -9.751  16.218  22.393  1.00  0.00     0.210 HD
ENDBRANCH  15  29
BRANCH   9  31
HETATM   31  C15 UNL     1     -12.343  14.602  30.101  1.00  0.00    -0.014 C 
HETATM   32  C16 UNL     1     -13.816  14.776  29.905  1.00  0.00     0.010 C 
BRANCH  31  33
HETATM   33  C17 UNL     1     -12.119  14.050  31.490  1.00  0.00     0.007 C 
BRANCH  33  34
HETATM   34  C18 UNL     1     -12.662  14.937  32.588  1.00  0.00     0.032 C 
BRANCH  34  35
HETATM   35  C19 UNL     1     -12.097  14.613  33.926  1.00  0.00     0.128 C 
BRANCH  35  36
HETATM   36  O2  UNL     1     -12.782  15.240  34.966  1.00  0.00    -0.395 OA
ATOM     37  H2  UNL     1     -12.233  15.396  35.726  1.00  0.00     0.210 HD
ENDBRANCH  35  36
BRANCH  35  38
HETATM   38  C20 UNL     1     -10.632  14.786  34.091  1.00  0.00     0.144 C 
BRANCH  38  39
HETATM   39  C21 UNL     1     -10.127  16.145  33.961  1.00  0.00     0.175 C 
HETATM   40  O3  UNL     1     -10.682  17.053  34.632  1.00  0.00    -0.648 OA
HETATM   41  O4  UNL     1      -9.078  16.513  33.153  1.00  0.00    -0.648 OA
ENDBRANCH  38  39
ENDBRANCH  35  38
ENDBRANCH  34  35
ENDBRANCH  33  34
ENDBRANCH  31  33
ENDBRANCH   9  31
TORSDOF 10
ENDMDL
MODEL 3
REMARK VINA RESULT: -9.083591937      3.095     11.071
REMARK  10 active torsions:
REMARK  status: ('A' for Active; 'I' for Inactive)
REMARK    1  A    between atoms: C4_4  and  N1_5 
REMARK       I    between atoms: N1_5  and  C5_7 
REMARK    2  A    between atoms: C5_7  and  C6_9 
REMARK    3  A    between atoms: C14_17  and  C15_18 
REMARK    4  A    between atoms: C15_18  and  C17_20 
REMARK    5  A    between atoms: C17_20  and  C18_21 
REMARK    6  A    between atoms: C18_21  and  C19_22 
REMARK    7  A    between atoms: C19_22  and  O2_23 
REMARK    8  A    between atoms: C19_22  and  C20_25 
REMARK    9  A    between atoms: C20_25  and  C21_26 
REMARK   10  A    between atoms: C27_34  and  O5_35 
ROOT
HETATM    1  C6  UNL     1     -10.896  15.683  33.173  1.00  0.00     0.090 C 
HETATM    2  C7  UNL     1     -11.873  15.684  31.975  1.00  0.00     0.025 C 
HETATM    3  C8  UNL     1     -10.785  14.959  31.205  1.00  0.00     0.027 C 
HETATM    4  C9  UNL     1     -10.546  15.630  29.874  1.00  0.00    -0.074 C 
HETATM    5  C10 UNL     1     -11.501  16.005  29.090  1.00  0.00    -0.022 C 
HETATM    6  C11 UNL     1     -11.317  16.653  27.804  1.00  0.00     0.037 C 
HETATM    7  C12 UNL     1      -9.893  16.876  27.356  1.00  0.00    -0.033 C 
HETATM    8  C13 UNL     1      -9.667  18.366  27.476  1.00  0.00     0.016 C 
HETATM    9  C14 UNL     1      -9.782  16.347  25.944  1.00  0.00    -0.002 C 
HETATM   10  C22 UNL     1      -9.877  14.863  26.240  1.00  0.00     0.006 C 
HETATM   11  C23 UNL     1      -8.856  14.732  27.373  1.00  0.00     0.006 C 
HETATM   12  C24 UNL     1      -8.867  16.071  28.070  1.00  0.00     0.002 C 
HETATM   13  C25 UNL     1      -9.125  15.841  29.510  1.00  0.00     0.022 C 
HETATM   14  C26 UNL     1      -8.495  16.840  30.449  1.00  0.00     0.042 C 
HETATM   15  C27 UNL     1      -9.346  16.952  31.688  1.00  0.00     0.128 C 
HETATM   16  C28 UNL     1      -9.796  15.576  32.186  1.00  0.00     0.002 C 
HETATM   17  C29 UNL     1      -8.662  14.703  32.609  1.00  0.00     0.019 C 
ENDROOT
BRANCH   1  18
HETATM   18  C5  UNL     1     -11.160  14.595  34.116  1.00  0.00     0.223 C 
HETATM   19  N1  UNL     1     -12.179  13.634  33.839  1.00  0.00    -0.356 N 
ATOM     20  H1  UNL     1     -12.711  13.726  32.975  1.00  0.00     0.162 HD
HETATM   21  O1  UNL     1     -10.531  14.454  35.174  1.00  0.00    -0.273 OA
BRANCH  19  22
HETATM   22  C4  UNL     1     -12.487  12.547  34.717  1.00  0.00     0.088 C 
HETATM   23  C3  UNL     1     -12.911  11.281  34.043  1.00  0.00     0.056 C 
HETATM   24  C2  UNL     1     -13.780  10.416  34.913  1.00  0.00     0.119 C 
HETATM   25  C1  UNL     1     -15.264  10.630  34.665  1.00  0.00     0.039 C 
HETATM   26  O6  UNL     1     -13.479  10.549  36.263  1.00  0.00    -0.386 OA
HETATM   27  C31 UNL     1     -13.666  11.831  36.760  1.00  0.00     0.170 C 
HETATM   28  C30 UNL     1     -13.558  12.911  35.723  1.00  0.00     0.051 C 
ENDBRANCH  19  22
ENDBRANCH   1  18
BRANCH  15  29
HETATM   29  O5  UNL     1      -8.640  17.541  32.738  1.00  0.00    -0.395 OA
ATOM     30  H5  UNL     1      -8.907  18.443  32.872  1.00  0.00     0.210 HD
ENDBRANCH  15  29
BRANCH   9  31
HETATM   31  C15 UNL     1      -8.518  16.572  25.240  1.00  0.00    -0.014 C 
HETATM   32  C16 UNL     1      -8.059  17.982  25.038  1.00  0.00     0.010 C 
BRANCH  31  33
HETATM   33  C17 UNL     1      -8.543  15.891  23.892  1.00  0.00     0.007 C 
BRANCH  33  34
HETATM   34  C18 UNL     1      -9.589  16.448  22.952  1.00  0.00     0.032 C 
BRANCH  34  35
HETATM   35  C19 UNL     1      -9.005  17.266  21.856  1.00  0.00     0.128 C 
BRANCH  35  36
HETATM   36  O2  UNL     1      -9.821  17.315  20.726  1.00  0.00    -0.395 OA
ATOM     37  H2  UNL     1     -10.354  18.101  20.692  1.00  0.00     0.210 HD
ENDBRANCH  35  36
BRANCH  35  38
HETATM   38  C20 UNL     1      -7.603  16.964  21.471  1.00  0.00     0.144 C 
BRANCH  38  39
HETATM   39  C21 UNL     1      -6.643  18.043  21.644  1.00  0.00     0.175 C 
HETATM   40  O3  UNL     1      -7.061  19.148  22.075  1.00  0.00    -0.648 OA
HETATM   41  O4  UNL     1      -5.299  17.943  21.372  1.00  0.00    -0.648 OA
ENDBRANCH  38  39
ENDBRANCH  35  38
ENDBRANCH  34  35
ENDBRANCH  33  34
ENDBRANCH  31  33
ENDBRANCH   9  31
TORSDOF 10
ENDMDL
MODEL 4
REMARK VINA RESULT: -9.060345477      2.441      3.305
REMARK  10 active torsions:
REMARK  status: ('A' for Active; 'I' for Inactive)
REMARK    1  A    between atoms: C4_4  and  N1_5 
REMARK       I    between atoms: N1_5  and  C5_7 
REMARK    2  A    between atoms: C5_7  and  C6_9 
REMARK    3  A    between atoms: C14_17  and  C15_18 
REMARK    4  A    between atoms: C15_18  and  C17_20 
REMARK    5  A    between atoms: C17_20  and  C18_21 
REMARK    6  A    between atoms: C18_21  and  C19_22 
REMARK    7  A    between atoms: C19_22  and  O2_23 
REMARK    8  A    between atoms: C19_22  and  C20_25 
REMARK    9  A    between atoms: C20_25  and  C21_26 
REMARK   10  A    between atoms: C27_34  and  O5_35 
ROOT
HETATM    1  C6  UNL     1      -7.433  17.836  22.833  1.00  0.00     0.090 C 
HETATM    2  C7  UNL     1      -7.211  18.599  24.159  1.00  0.00     0.025 C 
HETATM    3  C8  UNL     1      -7.114  17.237  24.820  1.00  0.00     0.027 C 
HETATM    4  C9  UNL     1      -8.010  17.174  26.032  1.00  0.00    -0.074 C 
HETATM    5  C10 UNL     1      -8.073  18.116  26.913  1.00  0.00    -0.022 C 
HETATM    6  C11 UNL     1      -8.921  18.099  28.093  1.00  0.00     0.037 C 
HETATM    7  C12 UNL     1      -9.768  16.866  28.299  1.00  0.00    -0.033 C 
HETATM    8  C13 UNL     1     -11.185  17.305  28.011  1.00  0.00     0.016 C 
HETATM    9  C14 UNL     1      -9.542  16.404  29.721  1.00  0.00    -0.002 C 
HETATM   10  C22 UNL     1      -8.123  15.890  29.579  1.00  0.00     0.006 C 
HETATM   11  C23 UNL     1      -8.255  15.027  28.323  1.00  0.00     0.006 C 
HETATM   12  C24 UNL     1      -9.356  15.672  27.516  1.00  0.00     0.002 C 
HETATM   13  C25 UNL     1      -8.832  15.948  26.158  1.00  0.00     0.022 C 
HETATM   14  C26 UNL     1      -9.853  15.896  25.047  1.00  0.00     0.042 C 
HETATM   15  C27 UNL     1      -9.426  16.831  23.946  1.00  0.00     0.128 C 
HETATM   16  C28 UNL     1      -7.930  16.703  23.649  1.00  0.00     0.002 C 
HETATM   17  C29 UNL     1      -7.543  15.353  23.142  1.00  0.00     0.019 C 
ENDROOT
BRANCH   1  18
HETATM   18  C5  UNL     1      -6.207  17.706  22.044  1.00  0.00     0.223 C 
HETATM   19  N1  UNL     1      -6.277  17.501  20.633  1.00  0.00    -0.356 N 
ATOM     20  H1  UNL     1      -7.196  17.448  20.195  1.00  0.00     0.162 HD
HETATM   21  O1  UNL     1      -5.075  17.766  22.545  1.00  0.00    -0.273 OA
BRANCH  19  22
HETATM   22  C4  UNL     1      -5.118  17.366  19.804  1.00  0.00     0.088 C 
HETATM   23  C3  UNL     1      -5.165  18.119  18.513  1.00  0.00     0.056 C 
HETATM   24  C2  UNL     1      -4.295  17.510  17.448  1.00  0.00     0.119 C 
HETATM   25  C1  UNL     1      -5.058  16.576  16.525  1.00  0.00     0.039 C 
HETATM   26  O6  UNL     1      -3.174  16.881  17.974  1.00  0.00    -0.386 OA
HETATM   27  C31 UNL     1      -3.467  15.822  18.823  1.00  0.00     0.170 C 
HETATM   28  C30 UNL     1      -4.812  15.920  19.481  1.00  0.00     0.051 C 
ENDBRANCH  19  22
ENDBRANCH   1  18
BRANCH  15  29
HETATM   29  O5  UNL     1     -10.092  16.548  22.751  1.00  0.00    -0.395 OA
ATOM     30  H5  UNL     1      -9.666  16.964  22.011  1.00  0.00     0.210 HD
ENDBRANCH  15  29
BRANCH   9  31
HETATM   31  C15 UNL     1     -10.363  15.291  30.203  1.00  0.00    -0.014 C 
HETATM   32  C16 UNL     1     -11.852  15.430  30.146  1.00  0.00     0.010 C 
BRANCH  31  33
HETATM   33  C17 UNL     1      -9.981  14.938  31.621  1.00  0.00     0.007 C 
BRANCH  33  34
HETATM   34  C18 UNL     1      -9.881  16.137  32.537  1.00  0.00     0.032 C 
BRANCH  34  35
HETATM   35  C19 UNL     1     -10.954  16.169  33.568  1.00  0.00     0.128 C 
BRANCH  35  36
HETATM   36  O2  UNL     1     -10.595  16.906  34.696  1.00  0.00    -0.395 OA
ATOM     37  H2  UNL     1     -10.614  16.390  35.493  1.00  0.00     0.210 HD
ENDBRANCH  35  36
BRANCH  35  38
HETATM   38  C20 UNL     1     -11.537  14.863  33.965  1.00  0.00     0.144 C 
BRANCH  38  39
HETATM   39  C21 UNL     1     -12.943  14.665  33.647  1.00  0.00     0.175 C 
HETATM   40  O3  UNL     1     -13.592  15.640  33.186  1.00  0.00    -0.648 OA
HETATM   41  O4  UNL     1     -13.621  13.481  33.811  1.00  0.00    -0.648 OA
ENDBRANCH  38  39
ENDBRANCH  35  38
ENDBRANCH  34  35
ENDBRANCH  33  34
ENDBRANCH  31  33
ENDBRANCH   9  31
TORSDOF 10
ENDMDL
MODEL 5
REMARK VINA RESULT: -9.023467338      1.532      2.213
REMARK  10 active torsions:
REMARK  status: ('A' for Active; 'I' for Inactive)
REMARK    1  A    between atoms: C4_4  and  N1_5 
REMARK       I    between atoms: N1_5  and  C5_7 
REMARK    2  A    between atoms: C5_7  and  C6_9 
REMARK    3  A    between atoms: C14_17  and  C15_18 
REMARK    4  A    between atoms: C15_18  and  C17_20 
REMARK    5  A    between atoms: C17_20  and  C18_21 
REMARK    6  A    between atoms: C18_21  and  C19_22 
REMARK    7  A    between atoms: C19_22  and  O2_23 
REMARK    8  A    between atoms: C19_22  and  C20_25 
REMARK    9  A    between atoms: C20_25  and  C21_26 
REMARK   10  A    between atoms: C27_34  and  O5_35 
ROOT
HETATM    1  C6  UNL     1      -7.541  17.520  22.670  1.00  0.00     0.090 C 
HETATM    2  C7  UNL     1      -7.214  18.303  23.962  1.00  0.00     0.025 C 
HETATM    3  C8  UNL     1      -7.183  16.957  24.662  1.00  0.00     0.027 C 
HETATM    4  C9  UNL     1      -8.032  16.991  25.909  1.00  0.00    -0.074 C 
HETATM    5  C10 UNL     1      -7.996  17.960  26.762  1.00  0.00    -0.022 C 
HETATM    6  C11 UNL     1      -8.794  18.035  27.972  1.00  0.00     0.037 C 
HETATM    7  C12 UNL     1      -9.714  16.871  28.249  1.00  0.00    -0.033 C 
HETATM    8  C13 UNL     1     -11.109  17.398  28.002  1.00  0.00     0.016 C 
HETATM    9  C14 UNL     1      -9.463  16.434  29.675  1.00  0.00    -0.002 C 
HETATM   10  C22 UNL     1      -8.089  15.820  29.496  1.00  0.00     0.006 C 
HETATM   11  C23 UNL     1      -8.329  14.932  28.273  1.00  0.00     0.006 C 
HETATM   12  C24 UNL     1      -9.416  15.629  27.489  1.00  0.00     0.002 C 
HETATM   13  C25 UNL     1      -8.930  15.829  26.104  1.00  0.00     0.022 C 
HETATM   14  C26 UNL     1      -9.995  15.816  25.035  1.00  0.00     0.042 C 
HETATM   15  C27 UNL     1      -9.551  16.687  23.889  1.00  0.00     0.128 C 
HETATM   16  C28 UNL     1      -8.080  16.447  23.540  1.00  0.00     0.002 C 
HETATM   17  C29 UNL     1      -7.806  15.060  23.061  1.00  0.00     0.019 C 
ENDROOT
BRANCH   1  18
HETATM   18  C5  UNL     1      -6.359  17.283  21.840  1.00  0.00     0.223 C 
HETATM   19  N1  UNL     1      -5.074  17.730  22.272  1.00  0.00    -0.356 N 
ATOM     20  H1  UNL     1      -5.004  18.214  23.166  1.00  0.00     0.162 HD
HETATM   21  O1  UNL     1      -6.410  16.698  20.749  1.00  0.00    -0.273 OA
BRANCH  19  22
HETATM   22  C4  UNL     1      -3.880  17.530  21.509  1.00  0.00     0.088 C 
HETATM   23  C3  UNL     1      -2.648  17.256  22.311  1.00  0.00     0.056 C 
HETATM   24  C2  UNL     1      -1.385  17.654  21.599  1.00  0.00     0.119 C 
HETATM   25  C1  UNL     1      -0.901  19.041  21.984  1.00  0.00     0.039 C 
HETATM   26  O6  UNL     1      -1.492  17.532  20.219  1.00  0.00    -0.386 OA
HETATM   27  C31 UNL     1      -2.471  18.339  19.655  1.00  0.00     0.170 C 
HETATM   28  C30 UNL     1      -3.582  18.701  20.598  1.00  0.00     0.051 C 
ENDBRANCH  19  22
ENDBRANCH   1  18
BRANCH  15  29
HETATM   29  O5  UNL     1     -10.281  16.416  22.731  1.00  0.00    -0.395 OA
ATOM     30  H5  UNL     1     -10.860  17.137  22.510  1.00  0.00     0.210 HD
ENDBRANCH  15  29
BRANCH   9  31
HETATM   31  C15 UNL     1     -10.338  15.395  30.223  1.00  0.00    -0.014 C 
HETATM   32  C16 UNL     1     -11.813  15.646  30.241  1.00  0.00     0.010 C 
BRANCH  31  33
HETATM   33  C17 UNL     1      -9.907  15.038  31.626  1.00  0.00     0.007 C 
BRANCH  33  34
HETATM   34  C18 UNL     1      -9.842  16.225  32.560  1.00  0.00     0.032 C 
BRANCH  34  35
HETATM   35  C19 UNL     1     -10.921  16.216  33.584  1.00  0.00     0.128 C 
BRANCH  35  36
HETATM   36  O2  UNL     1     -10.589  16.948  34.723  1.00  0.00    -0.395 OA
ATOM     37  H2  UNL     1     -11.240  17.606  34.939  1.00  0.00     0.210 HD
ENDBRANCH  35  36
BRANCH  35  38
HETATM   38  C20 UNL     1     -11.472  14.890  33.962  1.00  0.00     0.144 C 
BRANCH  38  39
HETATM   39  C21 UNL     1     -12.885  14.681  33.688  1.00  0.00     0.175 C 
HETATM   40  O3  UNL     1     -13.562  15.657  33.272  1.00  0.00    -0.648 OA
HETATM   41  O4  UNL     1     -13.543  13.485  33.850  1.00  0.00    -0.648 OA
ENDBRANCH  38  39
ENDBRANCH  35  38
ENDBRANCH  34  35
ENDBRANCH  33  34
ENDBRANCH  31  33
ENDBRANCH   9  31
TORSDOF 10
ENDMDL
