MODEL 1
REMARK VINA RESULT: -9.762142218      0.000      0.000
REMARK  11 active torsions:
REMARK  status: ('A' for Active; 'I' for Inactive)
REMARK    1  A    between atoms: C2_2  and  C3_3 
REMARK    2  A    between atoms: C2_2  and  C29_40 
REMARK    3  A    between atoms: C3_3  and  C4_4 
REMARK    4  A    between atoms: C4_4  and  C5_5 
REMARK    5  A    between atoms: C5_5  and  C7_7 
REMARK    6  A    between atoms: C11_11  and  O1_12 
REMARK    7  A    between atoms: C18_20  and  N1_21 
REMARK       I    between atoms: N1_21  and  C19_23 
REMARK       I    between atoms: C19_23  and  N2_25 
REMARK    8  A    between atoms: N2_25  and  C20_27 
REMARK    9  A    between atoms: C20_27  and  C21_28 
REMARK   10  A    between atoms: C21_28  and  O4_30 
REMARK   11  A    between atoms: C26_35  and  O5_36 
ROOT
HETATM    1  C7  UNL     1      -9.822  15.363  30.552  1.00  0.00     0.000 C 
HETATM    2  C8  UNL     1     -10.617  16.569  31.180  1.00  0.00     0.006 C 
HETATM    3  C9  UNL     1     -10.888  17.549  30.121  1.00  0.00     0.008 C 
HETATM    4  C10 UNL     1     -10.332  16.952  28.884  1.00  0.00     0.026 C 
HETATM    5  C11 UNL     1      -9.827  17.968  27.894  1.00  0.00     0.128 C 
HETATM    6  C12 UNL     1      -8.860  17.382  26.886  1.00  0.00     0.026 C 
HETATM    7  C13 UNL     1      -9.182  17.900  25.533  1.00  0.00    -0.001 C 
HETATM    8  C14 UNL     1     -10.070  16.910  24.761  1.00  0.00     0.010 C 
HETATM    9  C15 UNL     1      -9.024  16.288  23.873  1.00  0.00    -0.008 C 
HETATM   10  C16 UNL     1      -8.471  17.631  23.334  1.00  0.00     0.012 C 
HETATM   11  C17 UNL     1      -7.938  18.098  24.682  1.00  0.00     0.014 C 
HETATM   12  C18 UNL     1      -6.977  16.999  24.965  1.00  0.00     0.095 C 
HETATM   13  C23 UNL     1      -7.886  15.808  24.702  1.00  0.00     0.013 C 
HETATM   14  C24 UNL     1      -8.252  15.098  25.968  1.00  0.00     0.014 C 
HETATM   15  C25 UNL     1      -8.915  15.905  27.028  1.00  0.00     0.022 C 
HETATM   16  C26 UNL     1      -8.306  15.600  28.426  1.00  0.00     0.131 C 
HETATM   17  C27 UNL     1      -9.203  16.071  29.470  1.00  0.00    -0.008 C 
HETATM   18  C28 UNL     1      -8.337  17.149  30.216  1.00  0.00     0.019 C 
ENDROOT
BRANCH  12  19
HETATM   19  N1  UNL     1      -5.852  17.086  24.070  1.00  0.00    -0.338 N 
HETATM   20  C19 UNL     1      -4.584  17.523  24.555  1.00  0.00     0.316 C 
HETATM   21  O2  UNL     1      -4.485  17.816  25.773  1.00  0.00    -0.247 OA
HETATM   22  N2  UNL     1      -3.439  17.645  23.751  1.00  0.00    -0.334 N 
ATOM     23  H2  UNL     1      -3.543  17.402  22.766  1.00  0.00     0.164 HD
ATOM     24  H1  UNL     1      -5.962  16.834  23.087  1.00  0.00     0.164 HD
BRANCH  22  25
HETATM   25  C20 UNL     1      -2.150  18.074  24.171  1.00  0.00     0.235 C 
BRANCH  25  26
HETATM   26  C21 UNL     1      -1.794  19.449  23.773  1.00  0.00     0.276 C 
HETATM   27  O3  UNL     1      -1.932  20.403  24.562  1.00  0.00    -0.263 OA
BRANCH  26  28
HETATM   28  O4  UNL     1      -1.303  19.675  22.511  1.00  0.00    -0.325 OA
HETATM   29  C22 UNL     1      -0.504  18.759  21.795  1.00  0.00     0.213 C 
ENDBRANCH  26  28
ENDBRANCH  25  26
ENDBRANCH  22  25
ENDBRANCH  12  19
BRANCH   5  30
HETATM   30  O1  UNL     1     -10.963  18.410  27.169  1.00  0.00    -0.395 OA
ATOM     31  H1  UNL     1     -10.843  19.342  27.033  1.00  0.00     0.210 HD
ENDBRANCH   5  30
BRANCH  16  32
HETATM   32  O5  UNL     1      -7.708  14.397  28.394  1.00  0.00    -0.394 OA
ATOM     33  H5  UNL     1      -8.184  13.797  28.957  1.00  0.00     0.210 HD
ENDBRANCH  16  32
BRANCH   1  34
HETATM   34  C5  UNL     1     -10.761  14.252  30.598  1.00  0.00    -0.013 C 
HETATM   35  C6  UNL     1     -12.039  14.511  31.392  1.00  0.00     0.010 C 
BRANCH  34  36
HETATM   36  C4  UNL     1     -11.172  13.676  29.247  1.00  0.00     0.009 C 
BRANCH  36  37
HETATM   37  C3  UNL     1     -12.554  13.072  29.284  1.00  0.00     0.034 C 
BRANCH  37  38
HETATM   38  C2  UNL     1     -13.442  13.365  28.188  1.00  0.00    -0.086 C 
HETATM   39  C1  UNL     1     -13.573  12.506  27.195  1.00  0.00     0.014 C 
BRANCH  38  40
HETATM   40  C29 UNL     1     -14.266  14.584  28.141  1.00  0.00     0.005 C 
HETATM   41  C30 UNL     1     -14.979  14.648  29.507  1.00  0.00     0.014 C 
HETATM   42  C31 UNL     1     -13.529  15.875  28.010  1.00  0.00     0.014 C 
ENDBRANCH  38  40
ENDBRANCH  37  38
ENDBRANCH  36  37
ENDBRANCH  34  36
ENDBRANCH   1  34
TORSDOF 11
ENDMDL
MODEL 2
REMARK VINA RESULT: -9.502620921      4.122      9.383
REMARK  11 active torsions:
REMARK  status: ('A' for Active; 'I' for Inactive)
REMARK    1  A    between atoms: C2_2  and  C3_3 
REMARK    2  A    between atoms: C2_2  and  C29_40 
REMARK    3  A    between atoms: C3_3  and  C4_4 
REMARK    4  A    between atoms: C4_4  and  C5_5 
REMARK    5  A    between atoms: C5_5  and  C7_7 
REMARK    6  A    between atoms: C11_11  and  O1_12 
REMARK    7  A    between atoms: C18_20  and  N1_21 
REMARK       I    between atoms: N1_21  and  C19_23 
REMARK       I    between atoms: C19_23  and  N2_25 
REMARK    8  A    between atoms: N2_25  and  C20_27 
REMARK    9  A    between atoms: C20_27  and  C21_28 
REMARK   10  A    between atoms: C21_28  and  O4_30 
REMARK   11  A    between atoms: C26_35  and  O5_36 
ROOT
HETATM    1  C7  UNL     1      -9.373  15.511  25.195  1.00  0.00     0.000 C 
HETATM    2  C8  UNL     1     -10.550  16.363  24.587  1.00  0.00     0.006 C 
HETATM    3  C9  UNL     1     -11.088  17.231  25.640  1.00  0.00     0.008 C 
HETATM    4  C10 UNL     1     -10.248  16.968  26.833  1.00  0.00     0.026 C 
HETATM    5  C11 UNL     1     -10.982  17.124  28.138  1.00  0.00     0.128 C 
HETATM    6  C12 UNL     1     -10.296  16.417  29.290  1.00  0.00     0.026 C 
HETATM    7  C13 UNL     1     -10.303  17.297  30.485  1.00  0.00    -0.001 C 
HETATM    8  C14 UNL     1      -8.980  18.071  30.607  1.00  0.00     0.010 C 
HETATM    9  C15 UNL     1      -8.313  17.244  31.674  1.00  0.00    -0.008 C 
HETATM   10  C16 UNL     1      -9.499  17.302  32.668  1.00  0.00     0.012 C 
HETATM   11  C17 UNL     1     -10.449  16.511  31.778  1.00  0.00     0.014 C 
HETATM   12  C18 UNL     1      -9.683  15.242  31.662  1.00  0.00     0.095 C 
HETATM   13  C23 UNL     1      -8.326  15.810  31.276  1.00  0.00     0.013 C 
HETATM   14  C24 UNL     1      -7.989  15.524  29.846  1.00  0.00     0.014 C 
HETATM   15  C25 UNL     1      -8.951  16.002  28.816  1.00  0.00     0.022 C 
HETATM   16  C26 UNL     1      -9.208  14.908  27.742  1.00  0.00     0.131 C 
HETATM   17  C27 UNL     1      -9.810  15.508  26.560  1.00  0.00    -0.008 C 
HETATM   18  C28 UNL     1     -11.204  14.787  26.472  1.00  0.00     0.019 C 
ENDROOT
BRANCH  12  19
HETATM   19  N1  UNL     1      -9.690  14.546  32.922  1.00  0.00    -0.338 N 
HETATM   20  C19 UNL     1     -10.923  14.114  33.495  1.00  0.00     0.316 C 
HETATM   21  O2  UNL     1     -11.984  14.352  32.864  1.00  0.00    -0.247 OA
HETATM   22  N2  UNL     1     -11.021  13.438  34.722  1.00  0.00    -0.334 N 
ATOM     23  H2  UNL     1     -10.148  13.256  35.215  1.00  0.00     0.164 HD
ATOM     24  H1  UNL     1      -8.811  14.360  33.407  1.00  0.00     0.164 HD
BRANCH  22  25
HETATM   25  C20 UNL     1     -12.215  12.983  35.346  1.00  0.00     0.235 C 
BRANCH  25  26
HETATM   26  C21 UNL     1     -12.615  11.608  34.991  1.00  0.00     0.276 C 
HETATM   27  O3  UNL     1     -12.153  10.626  35.601  1.00  0.00    -0.263 OA
BRANCH  26  28
HETATM   28  O4  UNL     1     -13.512  11.415  33.969  1.00  0.00    -0.325 OA
HETATM   29  C22 UNL     1     -13.213  10.733  32.771  1.00  0.00     0.213 C 
ENDBRANCH  26  28
ENDBRANCH  25  26
ENDBRANCH  22  25
ENDBRANCH  12  19
BRANCH   5  30
HETATM   30  O1  UNL     1     -10.965  18.511  28.436  1.00  0.00    -0.395 OA
ATOM     31  H1  UNL     1     -10.263  18.636  29.064  1.00  0.00     0.210 HD
ENDBRANCH   5  30
BRANCH  16  32
HETATM   32  O5  UNL     1      -8.184  14.040  27.741  1.00  0.00    -0.394 OA
ATOM     33  H5  UNL     1      -8.124  13.629  26.886  1.00  0.00     0.210 HD
ENDBRANCH  16  32
BRANCH   1  34
HETATM   34  C5  UNL     1      -8.180  16.028  24.540  1.00  0.00    -0.013 C 
HETATM   35  C6  UNL     1      -7.691  15.216  23.344  1.00  0.00     0.010 C 
BRANCH  34  36
HETATM   36  C4  UNL     1      -8.244  17.488  24.104  1.00  0.00     0.009 C 
BRANCH  36  37
HETATM   37  C3  UNL     1      -6.881  18.132  24.074  1.00  0.00     0.034 C 
BRANCH  37  38
HETATM   38  C2  UNL     1      -6.318  18.568  25.327  1.00  0.00    -0.086 C 
HETATM   39  C1  UNL     1      -5.260  19.356  25.339  1.00  0.00     0.014 C 
BRANCH  38  40
HETATM   40  C29 UNL     1      -6.907  18.207  26.627  1.00  0.00     0.005 C 
HETATM   41  C30 UNL     1      -5.845  17.337  27.329  1.00  0.00     0.014 C 
HETATM   42  C31 UNL     1      -7.186  19.336  27.563  1.00  0.00     0.014 C 
ENDBRANCH  38  40
ENDBRANCH  37  38
ENDBRANCH  36  37
ENDBRANCH  34  36
ENDBRANCH   1  34
TORSDOF 11
ENDMDL
MODEL 3
REMARK VINA RESULT: -9.457657688      0.928      1.101
REMARK  11 active torsions:
REMARK  status: ('A' for Active; 'I' for Inactive)
REMARK    1  A    between atoms: C2_2  and  C3_3 
REMARK    2  A    between atoms: C2_2  and  C29_40 
REMARK    3  A    between atoms: C3_3  and  C4_4 
REMARK    4  A    between atoms: C4_4  and  C5_5 
REMARK    5  A    between atoms: C5_5  and  C7_7 
REMARK    6  A    between atoms: C11_11  and  O1_12 
REMARK    7  A    between atoms: C18_20  and  N1_21 
REMARK       I    between atoms: N1_21  and  C19_23 
REMARK       I    between atoms: C19_23  and  N2_25 
REMARK    8  A    between atoms: N2_25  and  C20_27 
REMARK    9  A    between atoms: C20_27  and  C21_28 
REMARK   10  A    between atoms: C21_28  and  O4_30 
REMARK   11  A    between atoms: C26_35  and  O5_36 
ROOT
HETATM    1  C7  UNL     1      -9.776  15.385  30.522  1.00  0.00     0.000 C 
HETATM    2  C8  UNL     1     -10.504  16.613  31.186  1.00  0.00     0.006 C 
HETATM    3  C9  UNL     1     -10.788  17.604  30.142  1.00  0.00     0.008 C 
HETATM    4  C10 UNL     1     -10.307  16.994  28.880  1.00  0.00     0.026 C 
HETATM    5  C11 UNL     1      -9.812  17.996  27.871  1.00  0.00     0.128 C 
HETATM    6  C12 UNL     1      -8.909  17.382  26.821  1.00  0.00     0.026 C 
HETATM    7  C13 UNL     1      -9.273  17.914  25.484  1.00  0.00    -0.001 C 
HETATM    8  C14 UNL     1     -10.225  16.956  24.750  1.00  0.00     0.010 C 
HETATM    9  C15 UNL     1      -9.239  16.303  23.816  1.00  0.00    -0.008 C 
HETATM   10  C16 UNL     1      -8.667  17.629  23.256  1.00  0.00     0.012 C 
HETATM   11  C17 UNL     1      -8.061  18.075  24.580  1.00  0.00     0.014 C 
HETATM   12  C18 UNL     1      -7.125  16.944  24.819  1.00  0.00     0.095 C 
HETATM   13  C23 UNL     1      -8.082  15.784  24.595  1.00  0.00     0.013 C 
HETATM   14  C24 UNL     1      -8.416  15.082  25.874  1.00  0.00     0.014 C 
HETATM   15  C25 UNL     1      -9.005  15.907  26.963  1.00  0.00     0.022 C 
HETATM   16  C26 UNL     1      -8.346  15.578  28.333  1.00  0.00     0.131 C 
HETATM   17  C27 UNL     1      -9.182  16.075  29.416  1.00  0.00    -0.008 C 
HETATM   18  C28 UNL     1      -8.250  17.123  30.125  1.00  0.00     0.019 C 
ENDROOT
BRANCH  12  19
HETATM   19  N1  UNL     1      -6.038  16.998  23.876  1.00  0.00    -0.338 N 
HETATM   20  C19 UNL     1      -4.833  17.684  24.212  1.00  0.00     0.316 C 
HETATM   21  O2  UNL     1      -4.754  18.223  25.345  1.00  0.00    -0.247 OA
HETATM   22  N2  UNL     1      -3.729  17.792  23.350  1.00  0.00    -0.334 N 
ATOM     23  H2  UNL     1      -3.816  17.347  22.437  1.00  0.00     0.164 HD
ATOM     24  H1  UNL     1      -6.129  16.544  22.967  1.00  0.00     0.164 HD
BRANCH  22  25
HETATM   25  C20 UNL     1      -2.503  18.460  23.623  1.00  0.00     0.235 C 
BRANCH  25  26
HETATM   26  C21 UNL     1      -1.342  17.571  23.814  1.00  0.00     0.276 C 
HETATM   27  O3  UNL     1      -0.179  17.995  23.683  1.00  0.00    -0.263 OA
BRANCH  26  28
HETATM   28  O4  UNL     1      -1.554  16.254  24.142  1.00  0.00    -0.325 OA
HETATM   29  C22 UNL     1      -0.812  15.177  23.614  1.00  0.00     0.213 C 
ENDBRANCH  26  28
ENDBRANCH  25  26
ENDBRANCH  22  25
ENDBRANCH  12  19
BRANCH   5  30
HETATM   30  O1  UNL     1     -10.964  18.476  27.196  1.00  0.00    -0.395 OA
ATOM     31  H1  UNL     1     -10.978  19.416  27.335  1.00  0.00     0.210 HD
ENDBRANCH   5  30
BRANCH  16  32
HETATM   32  O5  UNL     1      -7.790  14.357  28.273  1.00  0.00    -0.394 OA
ATOM     33  H5  UNL     1      -8.310  13.752  28.789  1.00  0.00     0.210 HD
ENDBRANCH  16  32
BRANCH   1  34
HETATM   34  C5  UNL     1     -10.747  14.303  30.608  1.00  0.00    -0.013 C 
HETATM   35  C6  UNL     1     -12.013  14.627  31.396  1.00  0.00     0.010 C 
BRANCH  34  36
HETATM   36  C4  UNL     1     -11.180  13.696  29.277  1.00  0.00     0.009 C 
BRANCH  36  37
HETATM   37  C3  UNL     1     -12.592  13.167  29.328  1.00  0.00     0.034 C 
BRANCH  37  38
HETATM   38  C2  UNL     1     -13.437  13.405  28.185  1.00  0.00    -0.086 C 
HETATM   39  C1  UNL     1     -13.516  12.506  27.222  1.00  0.00     0.014 C 
BRANCH  38  40
HETATM   40  C29 UNL     1     -14.273  14.610  28.056  1.00  0.00     0.005 C 
HETATM   41  C30 UNL     1     -15.032  14.726  29.393  1.00  0.00     0.014 C 
HETATM   42  C31 UNL     1     -13.547  15.904  27.891  1.00  0.00     0.014 C 
ENDBRANCH  38  40
ENDBRANCH  37  38
ENDBRANCH  36  37
ENDBRANCH  34  36
ENDBRANCH   1  34
TORSDOF 11
ENDMDL
MODEL 4
REMARK VINA RESULT: -9.303484603      1.298      1.806
REMARK  11 active torsions:
REMARK  status: ('A' for Active; 'I' for Inactive)
REMARK    1  A    between atoms: C2_2  and  C3_3 
REMARK    2  A    between atoms: C2_2  and  C29_40 
REMARK    3  A    between atoms: C3_3  and  C4_4 
REMARK    4  A    between atoms: C4_4  and  C5_5 
REMARK    5  A    between atoms: C5_5  and  C7_7 
REMARK    6  A    between atoms: C11_11  and  O1_12 
REMARK    7  A    between atoms: C18_20  and  N1_21 
REMARK       I    between atoms: N1_21  and  C19_23 
REMARK       I    between atoms: C19_23  and  N2_25 
REMARK    8  A    between atoms: N2_25  and  C20_27 
REMARK    9  A    between atoms: C20_27  and  C21_28 
REMARK   10  A    between atoms: C21_28  and  O4_30 
REMARK   11  A    between atoms: C26_35  and  O5_36 
ROOT
HETATM    1  C7  UNL     1      -9.082  15.797  30.594  1.00  0.00     0.000 C 
HETATM    2  C8  UNL     1      -9.686  17.107  31.225  1.00  0.00     0.006 C 
HETATM    3  C9  UNL     1     -10.213  17.944  30.141  1.00  0.00     0.008 C 
HETATM    4  C10 UNL     1      -9.993  17.164  28.900  1.00  0.00     0.026 C 
HETATM    5  C11 UNL     1      -9.751  18.016  27.682  1.00  0.00     0.128 C 
HETATM    6  C12 UNL     1      -9.075  17.260  26.557  1.00  0.00     0.026 C 
HETATM    7  C13 UNL     1      -9.728  17.602  25.268  1.00  0.00    -0.001 C 
HETATM    8  C14 UNL     1     -10.788  16.553  24.892  1.00  0.00     0.010 C 
HETATM    9  C15 UNL     1     -10.005  15.775  23.867  1.00  0.00    -0.008 C 
HETATM   10  C16 UNL     1      -9.601  17.009  23.022  1.00  0.00     0.012 C 
HETATM   11  C17 UNL     1      -8.740  17.633  24.113  1.00  0.00     0.014 C 
HETATM   12  C18 UNL     1      -7.745  16.544  24.298  1.00  0.00     0.095 C 
HETATM   13  C23 UNL     1      -8.695  15.367  24.443  1.00  0.00     0.013 C 
HETATM   14  C24 UNL     1      -8.731  14.850  25.848  1.00  0.00     0.014 C 
HETATM   15  C25 UNL     1      -9.098  15.819  26.915  1.00  0.00     0.022 C 
HETATM   16  C26 UNL     1      -8.155  15.682  28.144  1.00  0.00     0.131 C 
HETATM   17  C27 UNL     1      -8.756  16.326  29.303  1.00  0.00    -0.008 C 
HETATM   18  C28 UNL     1      -7.723  17.460  29.647  1.00  0.00     0.019 C 
ENDROOT
BRANCH  12  19
HETATM   19  N1  UNL     1      -6.884  16.464  23.146  1.00  0.00    -0.338 N 
HETATM   20  C19 UNL     1      -5.905  17.475  22.913  1.00  0.00     0.316 C 
HETATM   21  O2  UNL     1      -5.818  18.418  23.740  1.00  0.00    -0.247 OA
HETATM   22  N2  UNL     1      -5.032  17.479  21.812  1.00  0.00    -0.334 N 
ATOM     23  H2  UNL     1      -5.121  16.705  21.155  1.00  0.00     0.164 HD
ATOM     24  H1  UNL     1      -6.973  15.683  22.497  1.00  0.00     0.164 HD
BRANCH  22  25
HETATM   25  C20 UNL     1      -4.038  18.454  21.522  1.00  0.00     0.235 C 
BRANCH  25  26
HETATM   26  C21 UNL     1      -2.780  18.300  22.275  1.00  0.00     0.276 C 
HETATM   27  O3  UNL     1      -2.075  17.281  22.148  1.00  0.00    -0.263 OA
BRANCH  26  28
HETATM   28  O4  UNL     1      -2.385  19.299  23.131  1.00  0.00    -0.325 OA
HETATM   29  C22 UNL     1      -2.316  19.161  24.533  1.00  0.00     0.213 C 
ENDBRANCH  26  28
ENDBRANCH  25  26
ENDBRANCH  22  25
ENDBRANCH  12  19
BRANCH   5  30
HETATM   30  O1  UNL     1     -11.033  18.400  27.210  1.00  0.00    -0.395 OA
ATOM     31  H1  UNL     1     -11.085  19.341  27.329  1.00  0.00     0.210 HD
ENDBRANCH   5  30
BRANCH  16  32
HETATM   32  O5  UNL     1      -7.591  14.463  28.133  1.00  0.00    -0.394 OA
ATOM     33  H5  UNL     1      -7.337  14.229  29.018  1.00  0.00     0.210 HD
ENDBRANCH  16  32
BRANCH   1  34
HETATM   34  C5  UNL     1      -9.983  14.740  31.031  1.00  0.00    -0.013 C 
HETATM   35  C6  UNL     1     -10.859  15.087  32.232  1.00  0.00     0.010 C 
BRANCH  34  36
HETATM   36  C4  UNL     1     -10.895  14.160  29.955  1.00  0.00     0.009 C 
BRANCH  36  37
HETATM   37  C3  UNL     1     -12.312  14.660  30.081  1.00  0.00     0.034 C 
BRANCH  37  38
HETATM   38  C2  UNL     1     -13.172  14.534  28.932  1.00  0.00    -0.086 C 
HETATM   39  C1  UNL     1     -13.288  15.534  28.079  1.00  0.00     0.014 C 
BRANCH  38  40
HETATM   40  C29 UNL     1     -13.911  13.297  28.628  1.00  0.00     0.005 C 
HETATM   41  C30 UNL     1     -13.154  12.647  27.452  1.00  0.00     0.014 C 
HETATM   42  C31 UNL     1     -13.945  12.265  29.705  1.00  0.00     0.014 C 
ENDBRANCH  38  40
ENDBRANCH  37  38
ENDBRANCH  36  37
ENDBRANCH  34  36
ENDBRANCH   1  34
TORSDOF 11
ENDMDL
MODEL 5
REMARK VINA RESULT: -9.240859143      3.992      9.375
REMARK  11 active torsions:
REMARK  status: ('A' for Active; 'I' for Inactive)
REMARK    1  A    between atoms: C2_2  and  C3_3 
REMARK    2  A    between atoms: C2_2  and  C29_40 
REMARK    3  A    between atoms: C3_3  and  C4_4 
REMARK    4  A    between atoms: C4_4  and  C5_5 
REMARK    5  A    between atoms: C5_5  and  C7_7 
REMARK    6  A    between atoms: C11_11  and  O1_12 
REMARK    7  A    between atoms: C18_20  and  N1_21 
REMARK       I    between atoms: N1_21  and  C19_23 
REMARK       I    between atoms: C19_23  and  N2_25 
REMARK    8  A    between atoms: N2_25  and  C20_27 
REMARK    9  A    between atoms: C20_27  and  C21_28 
REMARK   10  A    between atoms: C21_28  and  O4_30 
REMARK   11  A    between atoms: C26_35  and  O5_36 
ROOT
HETATM    1  C7  UNL     1      -9.398  15.436  24.953  1.00  0.00     0.000 C 
HETATM    2  C8  UNL     1     -10.565  16.289  24.329  1.00  0.00     0.006 C 
HETATM    3  C9  UNL     1     -11.078  17.198  25.361  1.00  0.00     0.008 C 
HETATM    4  C10 UNL     1     -10.232  16.957  26.553  1.00  0.00     0.026 C 
HETATM    5  C11 UNL     1     -10.951  17.166  27.859  1.00  0.00     0.128 C 
HETATM    6  C12 UNL     1     -10.268  16.482  29.026  1.00  0.00     0.026 C 
HETATM    7  C13 UNL     1     -10.248  17.398  30.194  1.00  0.00    -0.001 C 
HETATM    8  C14 UNL     1      -8.911  18.152  30.280  1.00  0.00     0.010 C 
HETATM    9  C15 UNL     1      -8.248  17.346  31.367  1.00  0.00    -0.008 C 
HETATM   10  C16 UNL     1      -9.425  17.456  32.369  1.00  0.00     0.012 C 
HETATM   11  C17 UNL     1     -10.396  16.655  31.512  1.00  0.00     0.014 C 
HETATM   12  C18 UNL     1      -9.653  15.369  31.428  1.00  0.00     0.095 C 
HETATM   13  C23 UNL     1      -8.291  15.901  31.013  1.00  0.00     0.013 C 
HETATM   14  C24 UNL     1      -7.972  15.566  29.590  1.00  0.00     0.014 C 
HETATM   15  C25 UNL     1      -8.934  16.029  28.554  1.00  0.00     0.022 C 
HETATM   16  C26 UNL     1      -9.221  14.908  27.516  1.00  0.00     0.131 C 
HETATM   17  C27 UNL     1      -9.823  15.482  26.321  1.00  0.00    -0.008 C 
HETATM   18  C28 UNL     1     -11.230  14.784  26.268  1.00  0.00     0.019 C 
ENDROOT
BRANCH  12  19
HETATM   19  N1  UNL     1      -9.661  14.712  32.709  1.00  0.00    -0.338 N 
HETATM   20  C19 UNL     1     -10.896  14.308  33.299  1.00  0.00     0.316 C 
HETATM   21  O2  UNL     1     -11.957  14.535  32.665  1.00  0.00    -0.247 OA
HETATM   22  N2  UNL     1     -10.995  13.671  34.547  1.00  0.00    -0.334 N 
ATOM     23  H2  UNL     1     -10.121  13.497  35.042  1.00  0.00     0.164 HD
ATOM     24  H1  UNL     1      -8.783  14.535  33.196  1.00  0.00     0.164 HD
BRANCH  22  25
HETATM   25  C20 UNL     1     -12.190  13.245  35.188  1.00  0.00     0.235 C 
BRANCH  25  26
HETATM   26  C21 UNL     1     -12.572  11.846  34.921  1.00  0.00     0.276 C 
HETATM   27  O3  UNL     1     -12.043  10.905  35.540  1.00  0.00    -0.263 OA
BRANCH  26  28
HETATM   28  O4  UNL     1     -13.529  11.583  33.970  1.00  0.00    -0.325 OA
HETATM   29  C22 UNL     1     -13.253  11.046  32.696  1.00  0.00     0.213 C 
ENDBRANCH  26  28
ENDBRANCH  25  26
ENDBRANCH  22  25
ENDBRANCH  12  19
BRANCH   5  30
HETATM   30  O1  UNL     1     -10.907  18.560  28.114  1.00  0.00    -0.395 OA
ATOM     31  H1  UNL     1     -10.770  18.977  27.272  1.00  0.00     0.210 HD
ENDBRANCH   5  30
BRANCH  16  32
HETATM   32  O5  UNL     1      -8.211  14.022  27.533  1.00  0.00    -0.394 OA
ATOM     33  H5  UNL     1      -7.524  14.321  26.949  1.00  0.00     0.210 HD
ENDBRANCH  16  32
BRANCH   1  34
HETATM   34  C5  UNL     1      -8.202  15.911  24.272  1.00  0.00    -0.013 C 
HETATM   35  C6  UNL     1      -8.445  16.947  23.178  1.00  0.00     0.010 C 
BRANCH  34  36
HETATM   36  C4  UNL     1      -7.097  16.451  25.174  1.00  0.00     0.009 C 
BRANCH  36  37
HETATM   37  C3  UNL     1      -7.109  17.957  25.247  1.00  0.00     0.034 C 
BRANCH  37  38
HETATM   38  C2  UNL     1      -6.351  18.582  26.302  1.00  0.00    -0.086 C 
HETATM   39  C1  UNL     1      -6.970  19.085  27.353  1.00  0.00     0.014 C 
BRANCH  38  40
HETATM   40  C29 UNL     1      -4.880  18.650  26.287  1.00  0.00     0.005 C 
HETATM   41  C30 UNL     1      -4.405  17.340  26.948  1.00  0.00     0.014 C 
HETATM   42  C31 UNL     1      -4.234  18.681  24.942  1.00  0.00     0.014 C 
ENDBRANCH  38  40
ENDBRANCH  37  38
ENDBRANCH  36  37
ENDBRANCH  34  36
ENDBRANCH   1  34
TORSDOF 11
ENDMDL
