MODEL 1
REMARK VINA RESULT: -9.624266103      0.000      0.000
REMARK  9 active torsions:
REMARK  status: ('A' for Active; 'I' for Inactive)
REMARK    1  A    between atoms: C4_5  and  N2_6 
REMARK    2  A    between atoms: N2_6  and  C5_8 
REMARK    3  A    between atoms: C8_11  and  C9_12 
REMARK       I    between atoms: C9_12  and  N3_14 
REMARK    4  A    between atoms: N3_14  and  C10_16 
REMARK    5  A    between atoms: C10_16  and  C11_17 
REMARK       I    between atoms: C11_17  and  N4_19 
REMARK    6  A    between atoms: N4_19  and  C12_21 
REMARK    7  A    between atoms: C12_21  and  C15_24 
REMARK    8  A    between atoms: C15_24  and  N5_25 
REMARK       I    between atoms: N5_25  and  C16_27 
REMARK    9  A    between atoms: C16_27  and  C17_29 
ROOT
HETATM    1  C10 UNL     1     -11.987  14.669  28.847  1.00  0.00     0.114 C 
HETATM    2  C23 UNL     1     -11.503  13.241  29.042  1.00  0.00     0.041 C 
HETATM    3  C24 UNL     1     -12.613  12.240  28.870  1.00  0.00     0.003 C 
HETATM    4  C25 UNL     1     -13.524  12.539  27.719  1.00  0.00     0.000 C 
HETATM    5  C26 UNL     1     -14.075  13.928  27.750  1.00  0.00     0.003 C 
HETATM    6  C27 UNL     1     -13.501  14.665  28.923  1.00  0.00     0.041 C 
ENDROOT
BRANCH   1   7
HETATM    7  N3  UNL     1     -11.562  15.105  27.534  1.00  0.00    -0.339 N 
HETATM    8  C9  UNL     1     -10.298  14.826  26.976  1.00  0.00     0.252 C 
HETATM    9  O1  UNL     1      -9.408  14.163  27.592  1.00  0.00    -0.268 OA
ATOM     10  H3  UNL     1     -12.219  15.650  26.977  1.00  0.00     0.164 HD
BRANCH   8  11
HETATM   11  C8  UNL     1      -9.939  15.292  25.637  1.00  0.00     0.032 A 
HETATM   12  C7  UNL     1     -10.812  15.985  24.850  1.00  0.00     0.019 A 
HETATM   13  C6  UNL     1     -10.425  16.407  23.591  1.00  0.00     0.030 A 
HETATM   14  C5  UNL     1      -9.161  16.147  23.089  1.00  0.00     0.028 A 
HETATM   15  C29 UNL     1      -8.273  15.454  23.864  1.00  0.00     0.030 A 
HETATM   16  C28 UNL     1      -8.667  15.037  25.122  1.00  0.00     0.019 A 
BRANCH  14  17
HETATM   17  N2  UNL     1      -8.794  16.574  21.799  1.00  0.00    -0.385 N 
ATOM     18  H2  UNL     1      -9.155  16.080  20.984  1.00  0.00     0.160 HD
BRANCH  17  19
HETATM   19  C4  UNL     1      -7.919  17.695  21.616  1.00  0.00     0.085 C 
HETATM   20  C3  UNL     1      -7.693  18.296  22.998  1.00  0.00     0.055 C 
HETATM   21  C2  UNL     1      -6.581  19.328  22.815  1.00  0.00     0.274 C 
HETATM   22  N1  UNL     1      -5.361  18.569  22.708  1.00  0.00     0.084 N 
HETATM   23  C1  UNL     1      -4.781  18.260  23.996  1.00  0.00     0.309 C 
HETATM   24  C31 UNL     1      -5.399  17.490  21.806  1.00  0.00     0.274 C 
HETATM   25  C30 UNL     1      -6.620  17.317  20.970  1.00  0.00     0.055 C 
ENDBRANCH  17  19
ENDBRANCH  14  17
ENDBRANCH   8  11
ENDBRANCH   1   7
BRANCH   1  26
HETATM   26  C11 UNL     1     -11.430  15.572  29.869  1.00  0.00     0.246 C 
HETATM   27  O2  UNL     1     -12.135  16.468  30.374  1.00  0.00    -0.271 OA
HETATM   28  N4  UNL     1     -10.085  15.438  30.292  1.00  0.00    -0.349 N 
ATOM     29  H4  UNL     1      -9.515  14.702  29.873  1.00  0.00     0.163 HD
BRANCH  28  30
HETATM   30  C12 UNL     1      -9.483  16.289  31.285  1.00  0.00     0.041 C 
HETATM   31  C13 UNL     1      -8.090  15.855  31.645  1.00  0.00     0.039 C 
HETATM   32  C14 UNL     1     -10.349  16.208  32.548  1.00  0.00     0.039 C 
BRANCH  30  33
HETATM   33  C15 UNL     1      -9.458  17.746  30.902  1.00  0.00     0.152 C 
BRANCH  33  34
HETATM   34  N5  UNL     1      -8.556  17.924  29.787  1.00  0.00    -0.358 N 
HETATM   35  C16 UNL     1      -9.030  18.088  28.442  1.00  0.00     0.226 C 
HETATM   36  O3  UNL     1     -10.273  18.070  28.270  1.00  0.00    -0.273 OA
ATOM     37  H5  UNL     1      -7.551  17.933  29.961  1.00  0.00     0.162 HD
BRANCH  35  38
HETATM   38  C17 UNL     1      -8.091  18.270  27.308  1.00  0.00     0.037 C 
HETATM   39  C18 UNL     1      -8.907  18.580  26.068  1.00  0.00     0.025 C 
HETATM   40  C19 UNL     1      -7.131  19.396  27.547  1.00  0.00     0.019 C 
HETATM   41  C20 UNL     1      -5.780  18.788  27.800  1.00  0.00     0.001 C 
HETATM   42  C21 UNL     1      -5.860  17.338  27.412  1.00  0.00     0.001 C 
HETATM   43  C22 UNL     1      -7.270  17.031  27.042  1.00  0.00     0.019 C 
ENDBRANCH  35  38
ENDBRANCH  33  34
ENDBRANCH  30  33
ENDBRANCH  28  30
ENDBRANCH   1  26
TORSDOF 9
ENDMDL
MODEL 2
REMARK VINA RESULT: -9.587650736      2.224      4.827
REMARK  9 active torsions:
REMARK  status: ('A' for Active; 'I' for Inactive)
REMARK    1  A    between atoms: C4_5  and  N2_6 
REMARK    2  A    between atoms: N2_6  and  C5_8 
REMARK    3  A    between atoms: C8_11  and  C9_12 
REMARK       I    between atoms: C9_12  and  N3_14 
REMARK    4  A    between atoms: N3_14  and  C10_16 
REMARK    5  A    between atoms: C10_16  and  C11_17 
REMARK       I    between atoms: C11_17  and  N4_19 
REMARK    6  A    between atoms: N4_19  and  C12_21 
REMARK    7  A    between atoms: C12_21  and  C15_24 
REMARK    8  A    between atoms: C15_24  and  N5_25 
REMARK       I    between atoms: N5_25  and  C16_27 
REMARK    9  A    between atoms: C16_27  and  C17_29 
ROOT
HETATM    1  C10 UNL     1     -11.886  14.870  29.074  1.00  0.00     0.114 C 
HETATM    2  C23 UNL     1     -11.554  13.398  29.253  1.00  0.00     0.041 C 
HETATM    3  C24 UNL     1     -12.762  12.519  29.066  1.00  0.00     0.003 C 
HETATM    4  C25 UNL     1     -13.631  12.925  27.915  1.00  0.00     0.000 C 
HETATM    5  C26 UNL     1     -14.034  14.364  27.962  1.00  0.00     0.003 C 
HETATM    6  C27 UNL     1     -13.392  15.023  29.145  1.00  0.00     0.041 C 
ENDROOT
BRANCH   1   7
HETATM    7  N3  UNL     1     -11.411  15.275  27.768  1.00  0.00    -0.339 N 
HETATM    8  C9  UNL     1     -10.122  14.997  27.272  1.00  0.00     0.252 C 
HETATM    9  O1  UNL     1      -9.251  14.364  27.942  1.00  0.00    -0.268 OA
ATOM     10  H3  UNL     1     -12.051  15.796  27.169  1.00  0.00     0.164 HD
BRANCH   8  11
HETATM   11  C8  UNL     1      -9.713  15.431  25.935  1.00  0.00     0.032 A 
HETATM   12  C7  UNL     1     -10.537  16.150  25.121  1.00  0.00     0.019 A 
HETATM   13  C6  UNL     1     -10.105  16.540  23.866  1.00  0.00     0.030 A 
HETATM   14  C5  UNL     1      -8.842  16.219  23.396  1.00  0.00     0.028 A 
HETATM   15  C29 UNL     1      -8.003  15.498  24.199  1.00  0.00     0.030 A 
HETATM   16  C28 UNL     1      -8.443  15.114  25.453  1.00  0.00     0.019 A 
BRANCH  14  17
HETATM   17  N2  UNL     1      -8.428  16.614  22.110  1.00  0.00    -0.385 N 
ATOM     18  H2  UNL     1      -8.669  16.036  21.305  1.00  0.00     0.160 HD
BRANCH  17  19
HETATM   19  C4  UNL     1      -7.672  17.817  21.916  1.00  0.00     0.085 C 
HETATM   20  C3  UNL     1      -7.376  18.367  23.307  1.00  0.00     0.055 C 
HETATM   21  C2  UNL     1      -6.377  19.503  23.088  1.00  0.00     0.274 C 
HETATM   22  N1  UNL     1      -5.112  18.864  22.835  1.00  0.00     0.084 N 
HETATM   23  C1  UNL     1      -4.394  18.547  24.050  1.00  0.00     0.309 C 
HETATM   24  C31 UNL     1      -5.138  17.832  21.880  1.00  0.00     0.274 C 
HETATM   25  C30 UNL     1      -6.409  17.590  21.143  1.00  0.00     0.055 C 
ENDBRANCH  17  19
ENDBRANCH  14  17
ENDBRANCH   8  11
ENDBRANCH   1   7
BRANCH   1  26
HETATM   26  C11 UNL     1     -11.242  15.698  30.109  1.00  0.00     0.246 C 
HETATM   27  O2  UNL     1     -11.596  16.880  30.285  1.00  0.00    -0.271 OA
HETATM   28  N4  UNL     1     -10.210  15.164  30.919  1.00  0.00    -0.349 N 
ATOM     29  H4  UNL     1      -9.926  14.196  30.768  1.00  0.00     0.163 HD
BRANCH  28  30
HETATM   30  C12 UNL     1      -9.542  15.922  31.945  1.00  0.00     0.041 C 
HETATM   31  C13 UNL     1      -9.065  17.259  31.452  1.00  0.00     0.039 C 
HETATM   32  C14 UNL     1      -8.319  15.114  32.392  1.00  0.00     0.039 C 
BRANCH  30  33
HETATM   33  C15 UNL     1     -10.371  16.126  33.186  1.00  0.00     0.152 C 
BRANCH  33  34
HETATM   34  N5  UNL     1     -10.852  14.843  33.648  1.00  0.00    -0.358 N 
HETATM   35  C16 UNL     1     -12.251  14.564  33.801  1.00  0.00     0.226 C 
HETATM   36  O3  UNL     1     -13.051  15.489  33.518  1.00  0.00    -0.273 OA
ATOM     37  H5  UNL     1     -10.175  14.113  33.871  1.00  0.00     0.162 HD
BRANCH  35  38
HETATM   38  C17 UNL     1     -12.729  13.243  34.275  1.00  0.00     0.037 C 
HETATM   39  C18 UNL     1     -13.149  12.432  33.065  1.00  0.00     0.025 C 
HETATM   40  C19 UNL     1     -11.662  12.490  35.013  1.00  0.00     0.019 C 
HETATM   41  C20 UNL     1     -12.037  12.489  36.468  1.00  0.00     0.001 C 
HETATM   42  C21 UNL     1     -13.461  12.961  36.565  1.00  0.00     0.001 C 
HETATM   43  C22 UNL     1     -13.913  13.363  35.204  1.00  0.00     0.019 C 
ENDBRANCH  35  38
ENDBRANCH  33  34
ENDBRANCH  30  33
ENDBRANCH  28  30
ENDBRANCH   1  26
TORSDOF 9
ENDMDL
MODEL 3
REMARK VINA RESULT: -9.302657338      1.886      4.925
REMARK  9 active torsions:
REMARK  status: ('A' for Active; 'I' for Inactive)
REMARK    1  A    between atoms: C4_5  and  N2_6 
REMARK    2  A    between atoms: N2_6  and  C5_8 
REMARK    3  A    between atoms: C8_11  and  C9_12 
REMARK       I    between atoms: C9_12  and  N3_14 
REMARK    4  A    between atoms: N3_14  and  C10_16 
REMARK    5  A    between atoms: C10_16  and  C11_17 
REMARK       I    between atoms: C11_17  and  N4_19 
REMARK    6  A    between atoms: N4_19  and  C12_21 
REMARK    7  A    between atoms: C12_21  and  C15_24 
REMARK    8  A    between atoms: C15_24  and  N5_25 
REMARK       I    between atoms: N5_25  and  C16_27 
REMARK    9  A    between atoms: C16_27  and  C17_29 
ROOT
HETATM    1  C10 UNL     1      -9.306  15.947  30.750  1.00  0.00     0.114 C 
HETATM    2  C23 UNL     1      -9.883  17.190  31.407  1.00  0.00     0.041 C 
HETATM    3  C24 UNL     1      -9.364  17.382  32.807  1.00  0.00     0.003 C 
HETATM    4  C25 UNL     1      -7.898  17.107  32.950  1.00  0.00     0.000 C 
HETATM    5  C26 UNL     1      -7.497  15.767  32.423  1.00  0.00     0.003 C 
HETATM    6  C27 UNL     1      -8.694  15.084  31.835  1.00  0.00     0.041 C 
ENDROOT
BRANCH   1   7
HETATM    7  N3  UNL     1      -8.280  16.372  29.822  1.00  0.00    -0.339 N 
HETATM    8  C9  UNL     1      -8.457  17.377  28.850  1.00  0.00     0.252 C 
HETATM    9  O1  UNL     1      -9.552  18.000  28.699  1.00  0.00    -0.268 OA
ATOM     10  H3  UNL     1      -7.371  15.914  29.875  1.00  0.00     0.164 HD
BRANCH   8  11
HETATM   11  C8  UNL     1      -7.370  17.763  27.950  1.00  0.00     0.032 A 
HETATM   12  C7  UNL     1      -7.238  19.033  27.471  1.00  0.00     0.019 A 
HETATM   13  C6  UNL     1      -6.191  19.350  26.624  1.00  0.00     0.030 A 
HETATM   14  C5  UNL     1      -5.253  18.407  26.238  1.00  0.00     0.028 A 
HETATM   15  C29 UNL     1      -5.370  17.129  26.708  1.00  0.00     0.030 A 
HETATM   16  C28 UNL     1      -6.419  16.821  27.555  1.00  0.00     0.019 A 
BRANCH  14  17
HETATM   17  N2  UNL     1      -4.204  18.748  25.364  1.00  0.00    -0.385 N 
ATOM     18  H2  UNL     1      -3.704  19.628  25.497  1.00  0.00     0.160 HD
BRANCH  17  19
HETATM   19  C4  UNL     1      -3.827  17.878  24.289  1.00  0.00     0.085 C 
HETATM   20  C3  UNL     1      -3.818  18.732  23.026  1.00  0.00     0.055 C 
HETATM   21  C2  UNL     1      -3.188  17.852  21.947  1.00  0.00     0.274 C 
HETATM   22  N1  UNL     1      -1.774  17.856  22.220  1.00  0.00     0.084 N 
HETATM   23  C1  UNL     1      -1.093  18.981  21.617  1.00  0.00     0.309 C 
HETATM   24  C31 UNL     1      -1.417  17.598  23.555  1.00  0.00     0.274 C 
HETATM   25  C30 UNL     1      -2.497  17.224  24.511  1.00  0.00     0.055 C 
ENDBRANCH  17  19
ENDBRANCH  14  17
ENDBRANCH   8  11
ENDBRANCH   1   7
BRANCH   1  26
HETATM   26  C11 UNL     1     -10.342  15.190  30.024  1.00  0.00     0.246 C 
HETATM   27  O2  UNL     1     -10.233  13.959  29.867  1.00  0.00    -0.271 OA
HETATM   28  N4  UNL     1     -11.476  15.852  29.491  1.00  0.00    -0.349 N 
ATOM     29  H4  UNL     1     -11.557  16.860  29.624  1.00  0.00     0.163 HD
BRANCH  28  30
HETATM   30  C12 UNL     1     -12.520  15.169  28.772  1.00  0.00     0.041 C 
HETATM   31  C13 UNL     1     -13.619  16.098  28.338  1.00  0.00     0.039 C 
HETATM   32  C14 UNL     1     -13.124  14.124  29.718  1.00  0.00     0.039 C 
BRANCH  30  33
HETATM   33  C15 UNL     1     -12.029  14.399  27.575  1.00  0.00     0.152 C 
BRANCH  33  34
HETATM   34  N5  UNL     1     -11.636  15.332  26.543  1.00  0.00    -0.358 N 
HETATM   35  C16 UNL     1     -10.274  15.459  26.110  1.00  0.00     0.226 C 
HETATM   36  O3  UNL     1      -9.427  14.720  26.669  1.00  0.00    -0.273 OA
ATOM     37  H5  UNL     1     -12.349  15.918  26.110  1.00  0.00     0.162 HD
BRANCH  35  38
HETATM   38  C17 UNL     1      -9.886  16.421  25.050  1.00  0.00     0.037 C 
HETATM   39  C18 UNL     1     -10.137  17.823  25.571  1.00  0.00     0.025 C 
HETATM   40  C19 UNL     1      -8.438  16.297  24.679  1.00  0.00     0.019 C 
HETATM   41  C20 UNL     1      -8.376  15.671  23.314  1.00  0.00     0.001 C 
HETATM   42  C21 UNL     1      -9.765  15.705  22.740  1.00  0.00     0.001 C 
HETATM   43  C22 UNL     1     -10.688  16.231  23.785  1.00  0.00     0.019 C 
ENDBRANCH  35  38
ENDBRANCH  33  34
ENDBRANCH  30  33
ENDBRANCH  28  30
ENDBRANCH   1  26
TORSDOF 9
ENDMDL
MODEL 4
REMARK VINA RESULT: -9.263872760      4.122      9.733
REMARK  9 active torsions:
REMARK  status: ('A' for Active; 'I' for Inactive)
REMARK    1  A    between atoms: C4_5  and  N2_6 
REMARK    2  A    between atoms: N2_6  and  C5_8 
REMARK    3  A    between atoms: C8_11  and  C9_12 
REMARK       I    between atoms: C9_12  and  N3_14 
REMARK    4  A    between atoms: N3_14  and  C10_16 
REMARK    5  A    between atoms: C10_16  and  C11_17 
REMARK       I    between atoms: C11_17  and  N4_19 
REMARK    6  A    between atoms: N4_19  and  C12_21 
REMARK    7  A    between atoms: C12_21  and  C15_24 
REMARK    8  A    between atoms: C15_24  and  N5_25 
REMARK       I    between atoms: N5_25  and  C16_27 
REMARK    9  A    between atoms: C16_27  and  C17_29 
ROOT
HETATM    1  C10 UNL     1     -11.519  15.021  28.605  1.00  0.00     0.114 C 
HETATM    2  C23 UNL     1     -12.451  16.218  28.526  1.00  0.00     0.041 C 
HETATM    3  C24 UNL     1     -13.755  15.876  27.855  1.00  0.00     0.003 C 
HETATM    4  C25 UNL     1     -14.319  14.552  28.271  1.00  0.00     0.000 C 
HETATM    5  C26 UNL     1     -13.346  13.427  28.126  1.00  0.00     0.003 C 
HETATM    6  C27 UNL     1     -12.031  13.964  27.646  1.00  0.00     0.041 C 
ENDROOT
BRANCH   1   7
HETATM    7  N3  UNL     1     -11.559  14.516  29.961  1.00  0.00    -0.339 N 
HETATM    8  C9  UNL     1     -11.438  15.323  31.110  1.00  0.00     0.252 C 
HETATM    9  O1  UNL     1     -11.273  16.579  31.053  1.00  0.00    -0.268 OA
ATOM     10  H3  UNL     1     -11.683  13.513  30.093  1.00  0.00     0.164 HD
BRANCH   8  11
HETATM   11  C8  UNL     1     -11.497  14.744  32.453  1.00  0.00     0.032 A 
HETATM   12  C7  UNL     1     -10.518  14.953  33.379  1.00  0.00     0.019 A 
HETATM   13  C6  UNL     1     -10.621  14.386  34.637  1.00  0.00     0.030 A 
HETATM   14  C5  UNL     1     -11.702  13.599  34.997  1.00  0.00     0.028 A 
HETATM   15  C29 UNL     1     -12.693  13.379  34.082  1.00  0.00     0.030 A 
HETATM   16  C28 UNL     1     -12.583  13.951  32.827  1.00  0.00     0.019 A 
BRANCH  14  17
HETATM   17  N2  UNL     1     -11.779  13.021  36.278  1.00  0.00    -0.385 N 
ATOM     18  H2  UNL     1     -11.086  13.269  36.985  1.00  0.00     0.160 HD
BRANCH  17  19
HETATM   19  C4  UNL     1     -12.817  12.089  36.605  1.00  0.00     0.085 C 
HETATM   20  C3  UNL     1     -12.122  10.796  37.015  1.00  0.00     0.055 C 
HETATM   21  C2  UNL     1     -13.225   9.904  37.582  1.00  0.00     0.274 C 
HETATM   22  N1  UNL     1     -13.506  10.423  38.896  1.00  0.00     0.084 N 
HETATM   23  C1  UNL     1     -12.629   9.881  39.910  1.00  0.00     0.309 C 
HETATM   24  C31 UNL     1     -13.698  11.815  38.966  1.00  0.00     0.274 C 
HETATM   25  C30 UNL     1     -13.723  12.585  37.691  1.00  0.00     0.055 C 
ENDBRANCH  17  19
ENDBRANCH  14  17
ENDBRANCH   8  11
ENDBRANCH   1   7
BRANCH   1  26
HETATM   26  C11 UNL     1     -10.135  15.391  28.259  1.00  0.00     0.246 C 
HETATM   27  O2  UNL     1      -9.335  14.532  27.841  1.00  0.00    -0.271 OA
HETATM   28  N4  UNL     1      -9.692  16.729  28.399  1.00  0.00    -0.349 N 
ATOM     29  H4  UNL     1     -10.353  17.426  28.743  1.00  0.00     0.163 HD
BRANCH  28  30
HETATM   30  C12 UNL     1      -8.353  17.153  28.079  1.00  0.00     0.041 C 
HETATM   31  C13 UNL     1      -7.440  15.996  27.785  1.00  0.00     0.039 C 
HETATM   32  C14 UNL     1      -7.802  17.898  29.301  1.00  0.00     0.039 C 
BRANCH  30  33
HETATM   33  C15 UNL     1      -8.283  18.134  26.938  1.00  0.00     0.152 C 
BRANCH  33  34
HETATM   34  N5  UNL     1      -8.050  17.410  25.709  1.00  0.00    -0.358 N 
HETATM   35  C16 UNL     1      -9.123  17.027  24.837  1.00  0.00     0.226 C 
HETATM   36  O3  UNL     1     -10.285  17.348  25.187  1.00  0.00    -0.273 OA
ATOM     37  H5  UNL     1      -7.094  17.165  25.453  1.00  0.00     0.162 HD
BRANCH  35  38
HETATM   38  C17 UNL     1      -8.869  16.285  23.578  1.00  0.00     0.037 C 
HETATM   39  C18 UNL     1      -8.039  15.061  23.912  1.00  0.00     0.025 C 
HETATM   40  C19 UNL     1     -10.140  15.839  22.920  1.00  0.00     0.019 C 
HETATM   41  C20 UNL     1     -10.331  16.684  21.693  1.00  0.00     0.001 C 
HETATM   42  C21 UNL     1      -9.040  17.413  21.443  1.00  0.00     0.001 C 
HETATM   43  C22 UNL     1      -8.112  17.115  22.569  1.00  0.00     0.019 C 
ENDBRANCH  35  38
ENDBRANCH  33  34
ENDBRANCH  30  33
ENDBRANCH  28  30
ENDBRANCH   1  26
TORSDOF 9
ENDMDL
MODEL 5
REMARK VINA RESULT: -9.259279738      2.312      4.949
REMARK  9 active torsions:
REMARK  status: ('A' for Active; 'I' for Inactive)
REMARK    1  A    between atoms: C4_5  and  N2_6 
REMARK    2  A    between atoms: N2_6  and  C5_8 
REMARK    3  A    between atoms: C8_11  and  C9_12 
REMARK       I    between atoms: C9_12  and  N3_14 
REMARK    4  A    between atoms: N3_14  and  C10_16 
REMARK    5  A    between atoms: C10_16  and  C11_17 
REMARK       I    between atoms: C11_17  and  N4_19 
REMARK    6  A    between atoms: N4_19  and  C12_21 
REMARK    7  A    between atoms: C12_21  and  C15_24 
REMARK    8  A    between atoms: C15_24  and  N5_25 
REMARK       I    between atoms: N5_25  and  C16_27 
REMARK    9  A    between atoms: C16_27  and  C17_29 
ROOT
HETATM    1  C10 UNL     1     -12.003  14.714  28.970  1.00  0.00     0.114 C 
HETATM    2  C23 UNL     1     -11.654  13.245  29.146  1.00  0.00     0.041 C 
HETATM    3  C24 UNL     1     -12.843  12.351  28.915  1.00  0.00     0.003 C 
HETATM    4  C25 UNL     1     -13.683  12.755  27.741  1.00  0.00     0.000 C 
HETATM    5  C26 UNL     1     -14.109  14.187  27.788  1.00  0.00     0.003 C 
HETATM    6  C27 UNL     1     -13.513  14.845  28.997  1.00  0.00     0.041 C 
ENDROOT
BRANCH   1   7
HETATM    7  N3  UNL     1     -11.495  15.138  27.683  1.00  0.00    -0.339 N 
HETATM    8  C9  UNL     1     -10.166  14.950  27.253  1.00  0.00     0.252 C 
HETATM    9  O1  UNL     1      -9.285  14.390  27.974  1.00  0.00    -0.268 OA
ATOM     10  H3  UNL     1     -12.141  15.603  27.045  1.00  0.00     0.164 HD
BRANCH   8  11
HETATM   11  C8  UNL     1      -9.724  15.397  25.932  1.00  0.00     0.032 A 
HETATM   12  C7  UNL     1     -10.552  16.062  25.076  1.00  0.00     0.019 A 
HETATM   13  C6  UNL     1     -10.087  16.467  23.837  1.00  0.00     0.030 A 
HETATM   14  C5  UNL     1      -8.788  16.217  23.426  1.00  0.00     0.028 A 
HETATM   15  C29 UNL     1      -7.945  15.551  24.272  1.00  0.00     0.030 A 
HETATM   16  C28 UNL     1      -8.417  15.151  25.509  1.00  0.00     0.019 A 
BRANCH  14  17
HETATM   17  N2  UNL     1      -8.341  16.626  22.156  1.00  0.00    -0.385 N 
ATOM     18  H2  UNL     1      -8.516  16.031  21.345  1.00  0.00     0.160 HD
BRANCH  17  19
HETATM   19  C4  UNL     1      -7.643  17.866  21.985  1.00  0.00     0.085 C 
HETATM   20  C3  UNL     1      -7.342  18.387  23.385  1.00  0.00     0.055 C 
HETATM   21  C2  UNL     1      -6.399  19.572  23.182  1.00  0.00     0.274 C 
HETATM   22  N1  UNL     1      -5.112  18.997  22.885  1.00  0.00     0.084 N 
HETATM   23  C1  UNL     1      -4.356  18.676  24.076  1.00  0.00     0.309 C 
HETATM   24  C31 UNL     1      -5.113  17.994  21.900  1.00  0.00     0.274 C 
HETATM   25  C30 UNL     1      -6.388  17.718  21.180  1.00  0.00     0.055 C 
ENDBRANCH  17  19
ENDBRANCH  14  17
ENDBRANCH   8  11
ENDBRANCH   1   7
BRANCH   1  26
HETATM   26  C11 UNL     1     -11.403  15.542  30.031  1.00  0.00     0.246 C 
HETATM   27  O2  UNL     1     -11.683  16.753  30.123  1.00  0.00    -0.271 OA
HETATM   28  N4  UNL     1     -10.499  14.975  30.963  1.00  0.00    -0.349 N 
ATOM     29  H4  UNL     1     -10.276  13.983  30.880  1.00  0.00     0.163 HD
BRANCH  28  30
HETATM   30  C12 UNL     1      -9.881  15.731  32.020  1.00  0.00     0.041 C 
HETATM   31  C13 UNL     1      -9.219  16.984  31.518  1.00  0.00     0.039 C 
HETATM   32  C14 UNL     1      -8.802  14.842  32.651  1.00  0.00     0.039 C 
BRANCH  30  33
HETATM   33  C15 UNL     1     -10.821  16.089  33.141  1.00  0.00     0.152 C 
BRANCH  33  34
HETATM   34  N5  UNL     1     -11.110  14.900  33.911  1.00  0.00    -0.358 N 
HETATM   35  C16 UNL     1     -12.347  14.187  33.775  1.00  0.00     0.226 C 
HETATM   36  O3  UNL     1     -13.179  14.640  32.952  1.00  0.00    -0.273 OA
ATOM     37  H5  UNL     1     -10.412  14.558  34.572  1.00  0.00     0.162 HD
BRANCH  35  38
HETATM   38  C17 UNL     1     -12.629  12.967  34.571  1.00  0.00     0.037 C 
HETATM   39  C18 UNL     1     -11.450  12.725  35.493  1.00  0.00     0.025 C 
HETATM   40  C19 UNL     1     -13.868  13.112  35.403  1.00  0.00     0.019 C 
HETATM   41  C20 UNL     1     -14.926  12.241  34.787  1.00  0.00     0.001 C 
HETATM   42  C21 UNL     1     -14.247  11.347  33.787  1.00  0.00     0.001 C 
HETATM   43  C22 UNL     1     -12.814  11.747  33.702  1.00  0.00     0.019 C 
ENDBRANCH  35  38
ENDBRANCH  33  34
ENDBRANCH  30  33
ENDBRANCH  28  30
ENDBRANCH   1  26
TORSDOF 9
ENDMDL
