MODEL 1
REMARK VINA RESULT: -6.884328933      0.000      0.000
REMARK  5 active torsions:
REMARK  status: ('A' for Active; 'I' for Inactive)
REMARK    1  A    between atoms: N1_1  and  C1_5 
REMARK    2  A    between atoms: C1_5  and  C2_6 
REMARK    3  A    between atoms: C2_6  and  C3_7 
REMARK    4  A    between atoms: C3_7  and  N2_8 
REMARK       I    between atoms: C4_10  and  N4_12 
REMARK    5  A    between atoms: N4_12  and  N5_14 
ROOT
HETATM    1  N5  UNL     1      19.444   7.393  50.729  1.00  0.00    -0.285 N 
ATOM      2  H5  UNL     1      18.600   7.506  50.168  1.00  0.00     0.188 HD
HETATM    3  C5  UNL     1      19.914   6.234  50.918  1.00  0.00     0.109 C 
HETATM    4  C6  UNL     1      19.320   4.986  50.373  1.00  0.00     0.199 C 
HETATM    5  N6  UNL     1      18.309   5.201  49.382  1.00  0.00    -0.358 N 
ATOM      6  H6  UNL     1      17.645   5.952  49.571  1.00  0.00     0.162 HD
HETATM    7  C7  UNL     1      18.123   4.494  48.170  1.00  0.00     0.184 C 
HETATM    8  N7  UNL     1      16.844   3.833  47.975  1.00  0.00    -0.064 NA
HETATM    9  N8  UNL     1      18.999   4.421  47.260  1.00  0.00    -0.363 N 
ATOM     10  H8  UNL     1      18.705   3.870  46.453  1.00  0.00     0.162 HD
HETATM   11  C8  UNL     1      20.303   4.949  47.141  1.00  0.00     0.150 C 
HETATM   12  C9  UNL     1      21.249   3.773  46.852  1.00  0.00     0.251 C 
HETATM   13  N9  UNL     1      20.721   2.634  47.543  1.00  0.00    -0.072 N 
ATOM     14  H91 UNL     1      20.056   2.112  46.971  1.00  0.00     0.277 HD
ATOM     15  H92 UNL     1      20.088   2.902  48.297  1.00  0.00     0.277 HD
HETATM   16  C10 UNL     1      21.820   1.789  48.019  1.00  0.00     0.259 C 
HETATM   17  C11 UNL     1      21.665   1.559  49.504  1.00  0.00     0.259 C 
HETATM   18  N10 UNL     1      22.724   2.216  50.264  1.00  0.00    -0.073 N 
ATOM     19 1H10 UNL     1      23.156   2.966  49.723  1.00  0.00     0.277 HD
ATOM     20 2H10 UNL     1      23.533   1.605  50.371  1.00  0.00     0.277 HD
HETATM   21  C12 UNL     1      22.259   2.700  51.551  1.00  0.00     0.234 C 
HETATM   22  C13 UNL     1      22.613   4.167  51.655  1.00  0.00     0.047 C 
HETATM   23  C14 UNL     1      21.470   4.855  52.361  1.00  0.00     0.122 C 
HETATM   24  N11 UNL     1      21.093   6.082  51.701  1.00  0.00    -0.377 N 
ATOM     25  H11 UNL     1      21.708   6.890  51.803  1.00  0.00     0.160 HD
ENDROOT
BRANCH   1  26
HETATM   26  N4  UNL     1      20.060   8.519  51.274  1.00  0.00    -0.272 N 
HETATM   27  C4  UNL     1      19.636   9.790  50.817  1.00  0.00     0.203 C 
HETATM   28  N2  UNL     1      19.318  10.715  51.651  1.00  0.00    -0.363 N 
HETATM   29  N3  UNL     1      19.568  10.013  49.422  1.00  0.00    -0.062 NA
ATOM     30  H2  UNL     1      19.016  11.614  51.278  1.00  0.00     0.162 HD
ATOM     31  H4  UNL     1      20.793   8.429  51.978  1.00  0.00     0.189 HD
BRANCH  28  32
HETATM   32  C3  UNL     1      19.364  10.557  53.074  1.00  0.00     0.124 C 
BRANCH  32  33
HETATM   33  C2  UNL     1      17.996  10.269  53.658  1.00  0.00     0.047 C 
BRANCH  33  34
HETATM   34  C1  UNL     1      17.978   8.846  54.207  1.00  0.00     0.231 C 
BRANCH  34  35
HETATM   35  N1  UNL     1      17.184   8.864  55.425  1.00  0.00    -0.079 N 
ATOM     36  H13 UNL     1      17.639   9.364  56.189  1.00  0.00     0.274 HD
ATOM     37  H12 UNL     1      16.358   9.456  55.354  1.00  0.00     0.274 HD
ATOM     38  H11 UNL     1      16.963   7.896  55.657  1.00  0.00     0.274 HD
ENDBRANCH  34  35
ENDBRANCH  33  34
ENDBRANCH  32  33
ENDBRANCH  28  32
ENDBRANCH   1  26
TORSDOF 5
ENDMDL
MODEL 2
REMARK VINA RESULT: -6.831635337      2.266      3.798
REMARK  5 active torsions:
REMARK  status: ('A' for Active; 'I' for Inactive)
REMARK    1  A    between atoms: N1_1  and  C1_5 
REMARK    2  A    between atoms: C1_5  and  C2_6 
REMARK    3  A    between atoms: C2_6  and  C3_7 
REMARK    4  A    between atoms: C3_7  and  N2_8 
REMARK       I    between atoms: C4_10  and  N4_12 
REMARK    5  A    between atoms: N4_12  and  N5_14 
ROOT
HETATM    1  N5  UNL     1      19.826   9.136  51.395  1.00  0.00    -0.285 N 
ATOM      2  H5  UNL     1      20.322   9.908  50.950  1.00  0.00     0.188 HD
HETATM    3  C5  UNL     1      19.452   8.151  50.694  1.00  0.00     0.109 C 
HETATM    4  C6  UNL     1      19.684   8.023  49.232  1.00  0.00     0.199 C 
HETATM    5  N6  UNL     1      20.606   8.980  48.698  1.00  0.00    -0.358 N 
ATOM      6  H6  UNL     1      20.512   9.936  49.041  1.00  0.00     0.162 HD
HETATM    7  C7  UNL     1      21.632   8.756  47.749  1.00  0.00     0.184 C 
HETATM    8  N7  UNL     1      21.578   9.524  46.517  1.00  0.00    -0.064 NA
HETATM    9  N8  UNL     1      22.582   7.939  47.926  1.00  0.00    -0.363 N 
ATOM     10  H8  UNL     1      23.235   7.897  47.143  1.00  0.00     0.162 HD
HETATM   11  C8  UNL     1      22.917   7.076  48.990  1.00  0.00     0.150 C 
HETATM   12  C9  UNL     1      23.050   5.660  48.408  1.00  0.00     0.251 C 
HETATM   13  N9  UNL     1      22.103   5.561  47.337  1.00  0.00    -0.072 N 
ATOM     14  H91 UNL     1      22.499   5.858  46.445  1.00  0.00     0.277 HD
ATOM     15  H92 UNL     1      21.365   6.260  47.411  1.00  0.00     0.277 HD
HETATM   16  C10 UNL     1      21.566   4.197  47.274  1.00  0.00     0.259 C 
HETATM   17  C11 UNL     1      20.058   4.253  47.324  1.00  0.00     0.259 C 
HETATM   18  N10 UNL     1      19.539   3.687  48.566  1.00  0.00    -0.073 N 
ATOM     19 1H10 UNL     1      20.254   3.677  49.293  1.00  0.00     0.277 HD
ATOM     20 2H10 UNL     1      19.385   2.683  48.476  1.00  0.00     0.277 HD
HETATM   21  C12 UNL     1      18.338   4.363  49.019  1.00  0.00     0.234 C 
HETATM   22  C13 UNL     1      18.560   4.797  50.452  1.00  0.00     0.047 C 
HETATM   23  C14 UNL     1      17.906   6.148  50.617  1.00  0.00     0.122 C 
HETATM   24  N11 UNL     1      18.761   7.076  51.319  1.00  0.00    -0.377 N 
ATOM     25  H11 UNL     1      18.876   6.952  52.325  1.00  0.00     0.160 HD
ENDROOT
BRANCH   1  26
HETATM   26  N4  UNL     1      19.571   9.182  52.765  1.00  0.00    -0.272 N 
HETATM   27  C4  UNL     1      18.614  10.118  53.226  1.00  0.00     0.203 C 
HETATM   28  N2  UNL     1      17.663   9.753  54.011  1.00  0.00    -0.363 N 
HETATM   29  N3  UNL     1      18.729  11.462  52.800  1.00  0.00    -0.062 NA
ATOM     30  H2  UNL     1      16.995  10.460  54.316  1.00  0.00     0.162 HD
ATOM     31  H4  UNL     1      20.058   8.563  53.413  1.00  0.00     0.189 HD
BRANCH  28  32
HETATM   32  C3  UNL     1      17.487   8.412  54.481  1.00  0.00     0.124 C 
BRANCH  32  33
HETATM   33  C2  UNL     1      18.062   8.216  55.868  1.00  0.00     0.047 C 
BRANCH  33  34
HETATM   34  C1  UNL     1      19.272   7.290  55.782  1.00  0.00     0.231 C 
BRANCH  34  35
HETATM   35  N1  UNL     1      19.340   6.551  57.032  1.00  0.00    -0.079 N 
ATOM     36  H13 UNL     1      18.430   6.439  57.479  1.00  0.00     0.274 HD
ATOM     37  H12 UNL     1      19.544   5.561  56.899  1.00  0.00     0.274 HD
ATOM     38  H11 UNL     1      20.022   7.023  57.626  1.00  0.00     0.274 HD
ENDBRANCH  34  35
ENDBRANCH  33  34
ENDBRANCH  32  33
ENDBRANCH  28  32
ENDBRANCH   1  26
TORSDOF 5
ENDMDL
MODEL 3
REMARK VINA RESULT: -6.812952030      2.258      4.373
REMARK  5 active torsions:
REMARK  status: ('A' for Active; 'I' for Inactive)
REMARK    1  A    between atoms: N1_1  and  C1_5 
REMARK    2  A    between atoms: C1_5  and  C2_6 
REMARK    3  A    between atoms: C2_6  and  C3_7 
REMARK    4  A    between atoms: C3_7  and  N2_8 
REMARK       I    between atoms: C4_10  and  N4_12 
REMARK    5  A    between atoms: N4_12  and  N5_14 
ROOT
HETATM    1  N5  UNL     1      19.386   8.420  52.150  1.00  0.00    -0.285 N 
ATOM      2  H5  UNL     1      19.459   7.778  52.939  1.00  0.00     0.188 HD
HETATM    3  C5  UNL     1      19.956   8.131  51.058  1.00  0.00     0.109 C 
HETATM    4  C6  UNL     1      20.746   6.895  50.824  1.00  0.00     0.199 C 
HETATM    5  N6  UNL     1      20.603   5.904  51.848  1.00  0.00    -0.358 N 
ATOM      6  H6  UNL     1      20.606   6.246  52.809  1.00  0.00     0.162 HD
HETATM    7  C7  UNL     1      20.459   4.505  51.683  1.00  0.00     0.184 C 
HETATM    8  N7  UNL     1      21.456   3.656  52.312  1.00  0.00    -0.064 NA
HETATM    9  N8  UNL     1      19.514   3.970  51.035  1.00  0.00    -0.363 N 
ATOM     10  H8  UNL     1      19.560   2.951  51.011  1.00  0.00     0.162 HD
HETATM   11  C8  UNL     1      18.410   4.504  50.337  1.00  0.00     0.150 C 
HETATM   12  C9  UNL     1      18.460   3.947  48.905  1.00  0.00     0.251 C 
HETATM   13  N9  UNL     1      19.844   3.797  48.565  1.00  0.00    -0.072 N 
ATOM     14  H91 UNL     1      20.207   2.881  48.829  1.00  0.00     0.277 HD
ATOM     15  H92 UNL     1      20.448   4.370  49.154  1.00  0.00     0.277 HD
HETATM   16  C10 UNL     1      20.038   4.077  47.139  1.00  0.00     0.259 C 
HETATM   17  C11 UNL     1      21.103   5.136  46.980  1.00  0.00     0.259 C 
HETATM   18  N10 UNL     1      20.548   6.385  46.468  1.00  0.00    -0.073 N 
ATOM     19 1H10 UNL     1      19.543   6.436  46.633  1.00  0.00     0.277 HD
ATOM     20 2H10 UNL     1      20.547   6.397  45.448  1.00  0.00     0.277 HD
HETATM   21  C12 UNL     1      21.228   7.549  47.004  1.00  0.00     0.234 C 
HETATM   22  C13 UNL     1      20.184   8.465  47.602  1.00  0.00     0.047 C 
HETATM   23  C14 UNL     1      20.778   9.065  48.854  1.00  0.00     0.122 C 
HETATM   24  N11 UNL     1      19.850   9.030  49.960  1.00  0.00    -0.377 N 
ATOM     25  H11 UNL     1      19.071   9.688  49.953  1.00  0.00     0.160 HD
ENDROOT
BRANCH   1  26
HETATM   26  N4  UNL     1      18.660   9.603  52.292  1.00  0.00    -0.272 N 
HETATM   27  C4  UNL     1      18.217   9.952  53.590  1.00  0.00     0.203 C 
HETATM   28  N2  UNL     1      18.432  11.128  54.063  1.00  0.00    -0.363 N 
HETATM   29  N3  UNL     1      17.535   8.975  54.352  1.00  0.00    -0.062 NA
ATOM     30  H2  UNL     1      18.098  11.335  55.004  1.00  0.00     0.162 HD
ATOM     31  H4  UNL     1      18.455  10.195  51.487  1.00  0.00     0.189 HD
BRANCH  28  32
HETATM   32  C3  UNL     1      19.116  12.163  53.348  1.00  0.00     0.124 C 
BRANCH  32  33
HETATM   33  C2  UNL     1      18.601  13.540  53.712  1.00  0.00     0.047 C 
BRANCH  33  34
HETATM   34  C1  UNL     1      19.762  14.530  53.688  1.00  0.00     0.231 C 
BRANCH  34  35
HETATM   35  N1  UNL     1      19.224  15.817  53.283  1.00  0.00    -0.079 N 
ATOM     36  H13 UNL     1      18.753  15.786  52.378  1.00  0.00     0.274 HD
ATOM     37  H12 UNL     1      18.419  16.106  53.839  1.00  0.00     0.274 HD
ATOM     38  H11 UNL     1      19.990  16.489  53.312  1.00  0.00     0.274 HD
ENDBRANCH  34  35
ENDBRANCH  33  34
ENDBRANCH  32  33
ENDBRANCH  28  32
ENDBRANCH   1  26
TORSDOF 5
ENDMDL
MODEL 4
REMARK VINA RESULT: -6.795423768      4.814      6.922
REMARK  5 active torsions:
REMARK  status: ('A' for Active; 'I' for Inactive)
REMARK    1  A    between atoms: N1_1  and  C1_5 
REMARK    2  A    between atoms: C1_5  and  C2_6 
REMARK    3  A    between atoms: C2_6  and  C3_7 
REMARK    4  A    between atoms: C3_7  and  N2_8 
REMARK       I    between atoms: C4_10  and  N4_12 
REMARK    5  A    between atoms: N4_12  and  N5_14 
ROOT
HETATM    1  N5  UNL     1      23.785  12.224  51.342  1.00  0.00    -0.285 N 
ATOM      2  H5  UNL     1      24.608  12.424  50.774  1.00  0.00     0.188 HD
HETATM    3  C5  UNL     1      22.861  11.503  50.867  1.00  0.00     0.109 C 
HETATM    4  C6  UNL     1      22.877  10.904  49.508  1.00  0.00     0.199 C 
HETATM    5  N6  UNL     1      24.147  10.977  48.849  1.00  0.00    -0.358 N 
ATOM      6  H6  UNL     1      24.652  11.858  48.942  1.00  0.00     0.162 HD
HETATM    7  C7  UNL     1      24.783   9.970  48.084  1.00  0.00     0.184 C 
HETATM    8  N7  UNL     1      25.106  10.288  46.704  1.00  0.00    -0.064 NA
HETATM    9  N8  UNL     1      25.086   8.830  48.541  1.00  0.00    -0.363 N 
ATOM     10  H8  UNL     1      25.538   8.222  47.857  1.00  0.00     0.162 HD
HETATM   11  C8  UNL     1      24.924   8.233  49.809  1.00  0.00     0.150 C 
HETATM   12  C9  UNL     1      24.165   6.913  49.600  1.00  0.00     0.251 C 
HETATM   13  N9  UNL     1      23.270   7.117  48.500  1.00  0.00    -0.072 N 
ATOM     14  H91 UNL     1      23.705   6.895  47.604  1.00  0.00     0.277 HD
ATOM     15  H92 UNL     1      23.086   8.106  48.333  1.00  0.00     0.277 HD
HETATM   16  C10 UNL     1      22.036   6.356  48.717  1.00  0.00     0.259 C 
HETATM   17  C11 UNL     1      20.851   7.287  48.609  1.00  0.00     0.259 C 
HETATM   18  N10 UNL     1      20.183   7.460  49.895  1.00  0.00    -0.073 N 
ATOM     19 1H10 UNL     1      20.804   7.219  50.668  1.00  0.00     0.277 HD
ATOM     20 2H10 UNL     1      19.465   6.749  50.035  1.00  0.00     0.277 HD
HETATM   21  C12 UNL     1      19.637   8.794  50.056  1.00  0.00     0.234 C 
HETATM   22  C13 UNL     1      20.164   9.360  51.356  1.00  0.00     0.047 C 
HETATM   23  C14 UNL     1      20.436  10.828  51.128  1.00  0.00     0.122 C 
HETATM   24  N11 UNL     1      21.715  11.227  51.665  1.00  0.00    -0.377 N 
ATOM     25  H11 UNL     1      21.803  11.316  52.677  1.00  0.00     0.160 HD
ENDROOT
BRANCH   1  26
HETATM   26  N4  UNL     1      23.697  12.751  52.631  1.00  0.00    -0.272 N 
HETATM   27  C4  UNL     1      24.700  12.388  53.562  1.00  0.00     0.203 C 
HETATM   28  N2  UNL     1      25.315  13.285  54.247  1.00  0.00    -0.363 N 
HETATM   29  N3  UNL     1      25.007  11.016  53.716  1.00  0.00    -0.062 NA
ATOM     30  H2  UNL     1      26.032  12.978  54.904  1.00  0.00     0.162 HD
ATOM     31  H4  UNL     1      22.935  13.377  52.893  1.00  0.00     0.189 HD
BRANCH  28  32
HETATM   32  C3  UNL     1      25.054  14.689  54.141  1.00  0.00     0.124 C 
BRANCH  32  33
HETATM   33  C2  UNL     1      23.946  15.133  55.073  1.00  0.00     0.047 C 
BRANCH  33  34
HETATM   34  C1  UNL     1      23.099  16.192  54.374  1.00  0.00     0.231 C 
BRANCH  34  35
HETATM   35  N1  UNL     1      21.860  15.553  53.965  1.00  0.00    -0.079 N 
ATOM     36  H13 UNL     1      21.781  14.590  54.290  1.00  0.00     0.274 HD
ATOM     37  H12 UNL     1      21.042  15.922  54.450  1.00  0.00     0.274 HD
ATOM     38  H11 UNL     1      21.794  15.639  52.951  1.00  0.00     0.274 HD
ENDBRANCH  34  35
ENDBRANCH  33  34
ENDBRANCH  32  33
ENDBRANCH  28  32
ENDBRANCH   1  26
TORSDOF 5
ENDMDL
MODEL 5
REMARK VINA RESULT: -6.767356557      1.379      1.519
REMARK  5 active torsions:
REMARK  status: ('A' for Active; 'I' for Inactive)
REMARK    1  A    between atoms: N1_1  and  C1_5 
REMARK    2  A    between atoms: C1_5  and  C2_6 
REMARK    3  A    between atoms: C2_6  and  C3_7 
REMARK    4  A    between atoms: C3_7  and  N2_8 
REMARK       I    between atoms: C4_10  and  N4_12 
REMARK    5  A    between atoms: N4_12  and  N5_14 
ROOT
HETATM    1  N5  UNL     1      19.832   7.307  51.507  1.00  0.00    -0.285 N 
ATOM      2  H5  UNL     1      18.850   7.044  51.579  1.00  0.00     0.188 HD
HETATM    3  C5  UNL     1      20.710   6.406  51.375  1.00  0.00     0.109 C 
HETATM    4  C6  UNL     1      20.418   4.951  51.316  1.00  0.00     0.199 C 
HETATM    5  N6  UNL     1      19.030   4.637  51.149  1.00  0.00    -0.358 N 
ATOM      6  H6  UNL     1      18.374   5.190  51.701  1.00  0.00     0.162 HD
HETATM    7  C7  UNL     1      18.463   3.649  50.309  1.00  0.00     0.184 C 
HETATM    8  N7  UNL     1      17.650   2.625  50.942  1.00  0.00    -0.064 NA
HETATM    9  N8  UNL     1      18.619   3.623  49.054  1.00  0.00    -0.363 N 
ATOM     10  H8  UNL     1      18.144   2.843  48.599  1.00  0.00     0.162 HD
HETATM   11  C8  UNL     1      19.320   4.460  48.159  1.00  0.00     0.150 C 
HETATM   12  C9  UNL     1      20.282   3.569  47.357  1.00  0.00     0.251 C 
HETATM   13  N9  UNL     1      20.701   2.515  48.234  1.00  0.00    -0.072 N 
ATOM     14  H91 UNL     1      20.077   1.709  48.192  1.00  0.00     0.277 HD
ATOM     15  H92 UNL     1      20.565   2.756  49.216  1.00  0.00     0.277 HD
HETATM   16  C10 UNL     1      22.091   2.151  47.943  1.00  0.00     0.259 C 
HETATM   17  C11 UNL     1      22.904   2.231  49.213  1.00  0.00     0.259 C 
HETATM   18  N10 UNL     1      23.877   3.318  49.162  1.00  0.00    -0.073 N 
ATOM     19 1H10 UNL     1      23.614   4.015  48.465  1.00  0.00     0.277 HD
ATOM     20 2H10 UNL     1      24.758   3.004  48.755  1.00  0.00     0.277 HD
HETATM   21  C12 UNL     1      24.089   3.928  50.462  1.00  0.00     0.234 C 
HETATM   22  C13 UNL     1      23.874   5.419  50.318  1.00  0.00     0.047 C 
HETATM   23  C14 UNL     1      23.181   5.895  51.572  1.00  0.00     0.122 C 
HETATM   24  N11 UNL     1      22.079   6.779  51.274  1.00  0.00    -0.377 N 
ATOM     25  H11 UNL     1      22.296   7.729  50.973  1.00  0.00     0.160 HD
ENDROOT
BRANCH   1  26
HETATM   26  N4  UNL     1      20.186   8.656  51.554  1.00  0.00    -0.272 N 
HETATM   27  C4  UNL     1      19.310   9.589  50.949  1.00  0.00     0.203 C 
HETATM   28  N2  UNL     1      18.920  10.634  51.588  1.00  0.00    -0.363 N 
HETATM   29  N3  UNL     1      18.875   9.341  49.626  1.00  0.00    -0.062 NA
ATOM     30  H2  UNL     1      18.288  11.278  51.114  1.00  0.00     0.162 HD
ATOM     31  H4  UNL     1      21.047   8.959  52.009  1.00  0.00     0.189 HD
BRANCH  28  32
HETATM   32  C3  UNL     1      19.321  10.946  52.927  1.00  0.00     0.124 C 
BRANCH  32  33
HETATM   33  C2  UNL     1      18.175  10.818  53.908  1.00  0.00     0.047 C 
BRANCH  33  34
HETATM   34  C1  UNL     1      17.816   9.343  54.067  1.00  0.00     0.231 C 
BRANCH  34  35
HETATM   35  N1  UNL     1      17.405   9.145  55.447  1.00  0.00    -0.079 N 
ATOM     36  H13 UNL     1      16.619   9.737  55.717  1.00  0.00     0.274 HD
ATOM     37  H12 UNL     1      16.951   8.246  55.602  1.00  0.00     0.274 HD
ATOM     38  H11 UNL     1      18.229   9.283  56.032  1.00  0.00     0.274 HD
ENDBRANCH  34  35
ENDBRANCH  33  34
ENDBRANCH  32  33
ENDBRANCH  28  32
ENDBRANCH   1  26
TORSDOF 5
ENDMDL
