MODEL 1
REMARK VINA RESULT: -6.921688163      0.000      0.000
REMARK  7 active torsions:
REMARK  status: ('A' for Active; 'I' for Inactive)
REMARK    1  A    between atoms: C2_2  and  N1_3 
REMARK    2  A    between atoms: C2_2  and  C3_7 
REMARK    3  A    between atoms: C2_2  and  C4_10 
REMARK       I    between atoms: C4_10  and  N3_12 
REMARK       I    between atoms: N3_12  and  C5_14 
REMARK       I    between atoms: C5_14  and  N4_16 
REMARK    4  A    between atoms: N4_16  and  N5_18 
REMARK    5  A    between atoms: C6_19  and  O4_20 
REMARK    6  A    between atoms: C9_24  and  O5_25 
REMARK    7  A    between atoms: C10_27  and  C11_28 
ROOT
HETATM    1  N5  UNL     1      21.783   8.447  50.163  1.00  0.00    -0.206 N 
HETATM    2  C6  UNL     1      22.979   8.664  50.697  1.00  0.00     0.172 A 
HETATM    3  C7  UNL     1      23.585   9.768  50.048  1.00  0.00     0.033 A 
HETATM    4  C8  UNL     1      22.716  10.205  49.111  1.00  0.00     0.048 A 
HETATM    5  C9  UNL     1      21.616   9.406  49.174  1.00  0.00     0.173 A 
HETATM    6  C10 UNL     1      23.296  11.379  48.383  1.00  0.00     0.324 C 
HETATM    7  N6  UNL     1      24.526  11.647  49.056  1.00  0.00    -0.053 N 
ATOM      8  H61 UNL     1      24.531  12.569  49.492  1.00  0.00     0.279 HD
ATOM      9  H62 UNL     1      25.297  11.788  48.404  1.00  0.00     0.279 HD
HETATM   10  C12 UNL     1      24.801  10.605  49.998  1.00  0.00     0.277 C 
ENDROOT
BRANCH   1  11
HETATM   11  N4  UNL     1      20.816   7.506  50.420  1.00  0.00    -0.240 N 
HETATM   12  C5  UNL     1      20.974   6.066  50.551  1.00  0.00     0.342 C 
HETATM   13  N3  UNL     1      19.811   5.372  50.780  1.00  0.00    -0.275 N 
HETATM   14  O3  UNL     1      22.123   5.652  50.437  1.00  0.00    -0.245 OA
HETATM   15  C4  UNL     1      20.466   3.802  50.750  1.00  0.00     0.270 C 
ATOM     16  H3  UNL     1      18.855   5.697  50.922  1.00  0.00     0.173 HD
HETATM   17  O2  UNL     1      21.609   3.774  50.534  1.00  0.00    -0.270 OA
ATOM     18  H4  UNL     1      19.867   7.863  50.534  1.00  0.00     0.192 HD
BRANCH  15  19
HETATM   19  C2  UNL     1      19.550   2.732  50.995  1.00  0.00     0.276 C 
HETATM   20  C1  UNL     1      19.667   2.133  52.400  1.00  0.00     0.067 C 
BRANCH  19  21
HETATM   21  N1  UNL     1      20.009   1.617  50.099  1.00  0.00    -0.053 N 
ATOM     22  H13 UNL     1      20.808   1.851  49.509  1.00  0.00     0.276 HD
ATOM     23  H12 UNL     1      20.459   0.842  50.585  1.00  0.00     0.276 HD
ATOM     24  H11 UNL     1      19.165   1.362  49.586  1.00  0.00     0.276 HD
ENDBRANCH  19  21
BRANCH  19  25
HETATM   25  C3  UNL     1      18.139   2.951  50.609  1.00  0.00     0.276 C 
HETATM   26  N2  UNL     1      17.717   3.671  49.460  1.00  0.00    -0.059 NA
HETATM   27  O1  UNL     1      17.224   2.466  51.358  1.00  0.00    -0.274 OA
ENDBRANCH  19  25
ENDBRANCH  15  19
ENDBRANCH   1  11
BRANCH   2  28
HETATM   28  O4  UNL     1      23.651   8.000  51.725  1.00  0.00    -0.344 OA
ATOM     29  H4  UNL     1      23.752   8.222  52.643  1.00  0.00     0.219 HD
ENDBRANCH   2  28
BRANCH   5  30
HETATM   30  O5  UNL     1      20.475   9.500  48.385  1.00  0.00    -0.344 OA
ATOM     31  H5  UNL     1      20.028  10.319  48.208  1.00  0.00     0.219 HD
ENDBRANCH   5  30
BRANCH   6  32
HETATM   32  C11 UNL     1      23.437  10.985  46.969  1.00  0.00     0.209 C 
HETATM   33  O6  UNL     1      24.482  10.647  46.399  1.00  0.00    -0.646 OA
HETATM   34  O7  UNL     1      22.258  10.997  46.204  1.00  0.00    -0.646 OA
ENDBRANCH   6  32
TORSDOF 7
ENDMDL
MODEL 2
REMARK VINA RESULT: -6.903251743      1.524      1.549
REMARK  7 active torsions:
REMARK  status: ('A' for Active; 'I' for Inactive)
REMARK    1  A    between atoms: C2_2  and  N1_3 
REMARK    2  A    between atoms: C2_2  and  C3_7 
REMARK    3  A    between atoms: C2_2  and  C4_10 
REMARK       I    between atoms: C4_10  and  N3_12 
REMARK       I    between atoms: N3_12  and  C5_14 
REMARK       I    between atoms: C5_14  and  N4_16 
REMARK    4  A    between atoms: N4_16  and  N5_18 
REMARK    5  A    between atoms: C6_19  and  O4_20 
REMARK    6  A    between atoms: C9_24  and  O5_25 
REMARK    7  A    between atoms: C10_27  and  C11_28 
ROOT
HETATM    1  N5  UNL     1      23.514   7.545  49.458  1.00  0.00    -0.206 N 
HETATM    2  C6  UNL     1      24.469   8.181  50.126  1.00  0.00     0.172 A 
HETATM    3  C7  UNL     1      24.481   9.544  49.737  1.00  0.00     0.033 A 
HETATM    4  C8  UNL     1      23.504   9.704  48.819  1.00  0.00     0.048 A 
HETATM    5  C9  UNL     1      22.910   8.493  48.643  1.00  0.00     0.173 A 
HETATM    6  C10 UNL     1      23.460  11.131  48.364  1.00  0.00     0.324 C 
HETATM    7  N6  UNL     1      24.422  11.799  49.180  1.00  0.00    -0.053 N 
ATOM      8  H61 UNL     1      23.995  12.512  49.771  1.00  0.00     0.279 HD
ATOM      9  H62 UNL     1      25.034  12.406  48.634  1.00  0.00     0.279 HD
HETATM   10  C12 UNL     1      25.160  10.839  49.943  1.00  0.00     0.277 C 
ENDROOT
BRANCH   1  11
HETATM   11  N4  UNL     1      23.105   6.235  49.458  1.00  0.00    -0.240 N 
HETATM   12  C5  UNL     1      22.009   5.634  50.202  1.00  0.00     0.342 C 
HETATM   13  N3  UNL     1      21.859   4.281  50.023  1.00  0.00    -0.275 N 
HETATM   14  O3  UNL     1      21.360   6.408  50.897  1.00  0.00    -0.245 OA
HETATM   15  C4  UNL     1      20.585   4.039  51.126  1.00  0.00     0.270 C 
ATOM     16  H3  UNL     1      22.355   3.626  49.419  1.00  0.00     0.173 HD
HETATM   17  O2  UNL     1      20.258   5.007  51.685  1.00  0.00    -0.270 OA
ATOM     18  H4  UNL     1      23.639   5.602  48.861  1.00  0.00     0.192 HD
BRANCH  15  19
HETATM   19  C2  UNL     1      20.079   2.705  51.223  1.00  0.00     0.276 C 
HETATM   20  C1  UNL     1      21.136   1.677  51.634  1.00  0.00     0.067 C 
BRANCH  19  21
HETATM   21  N1  UNL     1      19.742   2.316  49.811  1.00  0.00    -0.053 N 
ATOM     22  H13 UNL     1      20.097   2.957  49.100  1.00  0.00     0.276 HD
ATOM     23  H12 UNL     1      20.239   1.493  49.470  1.00  0.00     0.276 HD
ATOM     24  H11 UNL     1      18.727   2.222  49.827  1.00  0.00     0.276 HD
ENDBRANCH  19  21
BRANCH  19  25
HETATM   25  C3  UNL     1      18.813   2.516  51.964  1.00  0.00     0.276 C 
HETATM   26  N2  UNL     1      17.532   2.413  51.361  1.00  0.00    -0.059 NA
HETATM   27  O1  UNL     1      18.863   2.443  53.238  1.00  0.00    -0.274 OA
ENDBRANCH  19  25
ENDBRANCH  15  19
ENDBRANCH   1  11
BRANCH   2  28
HETATM   28  O4  UNL     1      25.380   7.715  51.076  1.00  0.00    -0.344 OA
ATOM     29  H4  UNL     1      26.274   7.977  51.257  1.00  0.00     0.219 HD
ENDBRANCH   2  28
BRANCH   5  30
HETATM   30  O5  UNL     1      21.856   8.202  47.784  1.00  0.00    -0.344 OA
ATOM     31  H5  UNL     1      21.162   8.818  47.583  1.00  0.00     0.219 HD
ENDBRANCH   5  30
BRANCH   6  32
HETATM   32  C11 UNL     1      23.763  11.135  46.921  1.00  0.00     0.209 C 
HETATM   33  O6  UNL     1      24.744  10.618  46.372  1.00  0.00    -0.646 OA
HETATM   34  O7  UNL     1      22.835  11.794  46.097  1.00  0.00    -0.646 OA
ENDBRANCH   6  32
TORSDOF 7
ENDMDL
MODEL 3
REMARK VINA RESULT: -6.721685915      1.850      7.973
REMARK  7 active torsions:
REMARK  status: ('A' for Active; 'I' for Inactive)
REMARK    1  A    between atoms: C2_2  and  N1_3 
REMARK    2  A    between atoms: C2_2  and  C3_7 
REMARK    3  A    between atoms: C2_2  and  C4_10 
REMARK       I    between atoms: C4_10  and  N3_12 
REMARK       I    between atoms: N3_12  and  C5_14 
REMARK       I    between atoms: C5_14  and  N4_16 
REMARK    4  A    between atoms: N4_16  and  N5_18 
REMARK    5  A    between atoms: C6_19  and  O4_20 
REMARK    6  A    between atoms: C9_24  and  O5_25 
REMARK    7  A    between atoms: C10_27  and  C11_28 
ROOT
HETATM    1  N5  UNL     1      21.610   5.088  49.610  1.00  0.00    -0.206 N 
HETATM    2  C6  UNL     1      21.814   4.097  50.468  1.00  0.00     0.172 A 
HETATM    3  C7  UNL     1      20.573   3.491  50.784  1.00  0.00     0.033 A 
HETATM    4  C8  UNL     1      19.620   4.148  50.087  1.00  0.00     0.048 A 
HETATM    5  C9  UNL     1      20.243   5.123  49.370  1.00  0.00     0.173 A 
HETATM    6  C10 UNL     1      18.275   3.554  50.374  1.00  0.00     0.324 C 
HETATM    7  N6  UNL     1      18.550   2.430  51.210  1.00  0.00    -0.053 N 
ATOM      8  H61 UNL     1      18.274   1.551  50.773  1.00  0.00     0.279 HD
ATOM      9  H62 UNL     1      17.930   2.393  52.020  1.00  0.00     0.279 HD
HETATM   10  C12 UNL     1      19.930   2.433  51.589  1.00  0.00     0.277 C 
ENDROOT
BRANCH   1  11
HETATM   11  N4  UNL     1      22.465   5.981  49.013  1.00  0.00    -0.240 N 
HETATM   12  C5  UNL     1      22.788   7.336  49.432  1.00  0.00     0.342 C 
HETATM   13  N3  UNL     1      23.661   8.006  48.611  1.00  0.00    -0.275 N 
HETATM   14  O3  UNL     1      22.238   7.711  50.463  1.00  0.00    -0.245 OA
HETATM   15  C4  UNL     1      23.642   9.503  49.420  1.00  0.00     0.270 C 
ATOM     16  H3  UNL     1      24.164   7.702  47.778  1.00  0.00     0.173 HD
HETATM   17  O2  UNL     1      22.930   9.530  50.341  1.00  0.00    -0.270 OA
ATOM     18  H4  UNL     1      22.933   5.653  48.168  1.00  0.00     0.192 HD
BRANCH  15  19
HETATM   19  C2  UNL     1      24.489  10.522  48.883  1.00  0.00     0.276 C 
HETATM   20  C1  UNL     1      25.956  10.383  49.299  1.00  0.00     0.067 C 
BRANCH  19  21
HETATM   21  N1  UNL     1      24.050  11.788  49.562  1.00  0.00    -0.053 N 
ATOM     22  H13 UNL     1      24.681  12.578  49.431  1.00  0.00     0.276 HD
ATOM     23  H12 UNL     1      23.233  12.232  49.142  1.00  0.00     0.276 HD
ATOM     24  H11 UNL     1      23.924  11.504  50.534  1.00  0.00     0.276 HD
ENDBRANCH  19  21
BRANCH  19  25
HETATM   25  C3  UNL     1      24.354  10.819  47.440  1.00  0.00     0.276 C 
HETATM   26  N2  UNL     1      23.412  11.725  46.885  1.00  0.00    -0.059 NA
HETATM   27  O1  UNL     1      25.133  10.219  46.624  1.00  0.00    -0.274 OA
ENDBRANCH  19  25
ENDBRANCH  15  19
ENDBRANCH   1  11
BRANCH   2  28
HETATM   28  O4  UNL     1      22.993   3.622  51.046  1.00  0.00    -0.344 OA
ATOM     29  H4  UNL     1      23.351   2.743  51.089  1.00  0.00     0.219 HD
ENDBRANCH   2  28
BRANCH   5  30
HETATM   30  O5  UNL     1      19.639   6.038  48.514  1.00  0.00    -0.344 OA
ATOM     31  H5  UNL     1      19.226   6.838  48.813  1.00  0.00     0.219 HD
ENDBRANCH   5  30
BRANCH   6  32
HETATM   32  C11 UNL     1      17.461   4.610  51.005  1.00  0.00     0.209 C 
HETATM   33  O6  UNL     1      17.113   4.663  52.191  1.00  0.00    -0.646 OA
HETATM   34  O7  UNL     1      17.049   5.657  50.163  1.00  0.00    -0.646 OA
ENDBRANCH   6  32
TORSDOF 7
ENDMDL
MODEL 4
REMARK VINA RESULT: -6.680102360      1.450      1.590
REMARK  7 active torsions:
REMARK  status: ('A' for Active; 'I' for Inactive)
REMARK    1  A    between atoms: C2_2  and  N1_3 
REMARK    2  A    between atoms: C2_2  and  C3_7 
REMARK    3  A    between atoms: C2_2  and  C4_10 
REMARK       I    between atoms: C4_10  and  N3_12 
REMARK       I    between atoms: N3_12  and  C5_14 
REMARK       I    between atoms: C5_14  and  N4_16 
REMARK    4  A    between atoms: N4_16  and  N5_18 
REMARK    5  A    between atoms: C6_19  and  O4_20 
REMARK    6  A    between atoms: C9_24  and  O5_25 
REMARK    7  A    between atoms: C10_27  and  C11_28 
ROOT
HETATM    1  N5  UNL     1      21.906   8.423  49.414  1.00  0.00    -0.206 N 
HETATM    2  C6  UNL     1      23.212   8.632  49.296  1.00  0.00     0.172 A 
HETATM    3  C7  UNL     1      23.440   9.597  48.284  1.00  0.00     0.033 A 
HETATM    4  C8  UNL     1      22.232   9.961  47.801  1.00  0.00     0.048 A 
HETATM    5  C9  UNL     1      21.292   9.251  48.484  1.00  0.00     0.173 A 
HETATM    6  C10 UNL     1      22.400  10.987  46.723  1.00  0.00     0.324 C 
HETATM    7  N6  UNL     1      23.800  11.262  46.703  1.00  0.00    -0.053 N 
ATOM      8  H61 UNL     1      24.004  12.232  46.945  1.00  0.00     0.279 HD
ATOM      9  H62 UNL     1      24.178  11.264  45.755  1.00  0.00     0.279 HD
HETATM   10  C12 UNL     1      24.488  10.338  47.554  1.00  0.00     0.277 C 
ENDROOT
BRANCH   1  11
HETATM   11  N4  UNL     1      21.176   7.590  50.225  1.00  0.00    -0.240 N 
HETATM   12  C5  UNL     1      21.016   6.148  50.123  1.00  0.00     0.342 C 
HETATM   13  N3  UNL     1      20.191   5.587  51.067  1.00  0.00    -0.275 N 
HETATM   14  O3  UNL     1      21.632   5.616  49.207  1.00  0.00    -0.245 OA
HETATM   15  C4  UNL     1      20.235   3.985  50.494  1.00  0.00     0.270 C 
ATOM     16  H3  UNL     1      19.705   6.000  51.863  1.00  0.00     0.173 HD
HETATM   17  O2  UNL     1      20.875   3.849  49.531  1.00  0.00    -0.270 OA
ATOM     18  H4  UNL     1      20.683   8.040  50.997  1.00  0.00     0.192 HD
BRANCH  15  19
HETATM   19  C2  UNL     1      19.500   3.023  51.254  1.00  0.00     0.276 C 
HETATM   20  C1  UNL     1      20.187   2.617  52.560  1.00  0.00     0.067 C 
BRANCH  19  21
HETATM   21  N1  UNL     1      19.541   1.767  50.431  1.00  0.00    -0.053 N 
ATOM     22  H13 UNL     1      18.984   0.999  50.804  1.00  0.00     0.276 HD
ATOM     23  H12 UNL     1      19.052   1.830  49.538  1.00  0.00     0.276 HD
ATOM     24  H11 UNL     1      20.538   1.567  50.353  1.00  0.00     0.276 HD
ENDBRANCH  19  21
BRANCH  19  25
HETATM   25  C3  UNL     1      18.057   3.280  51.451  1.00  0.00     0.276 C 
HETATM   26  N2  UNL     1      17.502   4.533  51.826  1.00  0.00    -0.059 NA
HETATM   27  O1  UNL     1      17.241   2.313  51.279  1.00  0.00    -0.274 OA
ENDBRANCH  19  25
ENDBRANCH  15  19
ENDBRANCH   1  11
BRANCH   2  28
HETATM   28  O4  UNL     1      24.289   8.069  49.983  1.00  0.00    -0.344 OA
ATOM     29  H4  UNL     1      24.902   7.391  49.724  1.00  0.00     0.219 HD
ENDBRANCH   2  28
BRANCH   5  30
HETATM   30  O5  UNL     1      19.915   9.313  48.307  1.00  0.00    -0.344 OA
ATOM     31  H5  UNL     1      19.433  10.128  48.242  1.00  0.00     0.219 HD
ENDBRANCH   5  30
BRANCH   6  32
HETATM   32  C11 UNL     1      21.867  10.399  45.479  1.00  0.00     0.209 C 
HETATM   33  O6  UNL     1      21.115   9.421  45.390  1.00  0.00    -0.646 OA
HETATM   34  O7  UNL     1      22.259  11.025  44.284  1.00  0.00    -0.646 OA
ENDBRANCH   6  32
TORSDOF 7
ENDMDL
MODEL 5
REMARK VINA RESULT: -6.676837523      1.704      2.612
REMARK  7 active torsions:
REMARK  status: ('A' for Active; 'I' for Inactive)
REMARK    1  A    between atoms: C2_2  and  N1_3 
REMARK    2  A    between atoms: C2_2  and  C3_7 
REMARK    3  A    between atoms: C2_2  and  C4_10 
REMARK       I    between atoms: C4_10  and  N3_12 
REMARK       I    between atoms: N3_12  and  C5_14 
REMARK       I    between atoms: C5_14  and  N4_16 
REMARK    4  A    between atoms: N4_16  and  N5_18 
REMARK    5  A    between atoms: C6_19  and  O4_20 
REMARK    6  A    between atoms: C9_24  and  O5_25 
REMARK    7  A    between atoms: C10_27  and  C11_28 
ROOT
HETATM    1  N5  UNL     1      21.073   7.815  48.901  1.00  0.00    -0.206 N 
HETATM    2  C6  UNL     1      20.690   8.490  47.824  1.00  0.00     0.172 A 
HETATM    3  C7  UNL     1      21.733   9.363  47.426  1.00  0.00     0.033 A 
HETATM    4  C8  UNL     1      22.751   9.190  48.297  1.00  0.00     0.048 A 
HETATM    5  C9  UNL     1      22.357   8.249  49.199  1.00  0.00     0.173 A 
HETATM    6  C10 UNL     1      23.894  10.087  47.932  1.00  0.00     0.324 C 
HETATM    7  N6  UNL     1      23.488  10.709  46.713  1.00  0.00    -0.053 N 
ATOM      8  H61 UNL     1      24.102  10.466  45.935  1.00  0.00     0.279 HD
ATOM      9  H62 UNL     1      23.652  11.716  46.722  1.00  0.00     0.279 HD
HETATM   10  C12 UNL     1      22.119  10.390  46.439  1.00  0.00     0.277 C 
ENDROOT
BRANCH   1  11
HETATM   11  N4  UNL     1      20.438   6.873  49.672  1.00  0.00    -0.240 N 
HETATM   12  C5  UNL     1      20.805   5.480  49.874  1.00  0.00     0.342 C 
HETATM   13  N3  UNL     1      19.954   4.767  50.682  1.00  0.00    -0.275 N 
HETATM   14  O3  UNL     1      21.824   5.117  49.296  1.00  0.00    -0.245 OA
HETATM   15  C4  UNL     1      20.707   3.248  50.531  1.00  0.00     0.270 C 
ATOM     16  H3  UNL     1      19.130   5.056  51.208  1.00  0.00     0.173 HD
HETATM   17  O2  UNL     1      21.631   3.250  49.823  1.00  0.00    -0.270 OA
ATOM     18  H4  UNL     1      19.603   7.190  50.165  1.00  0.00     0.192 HD
BRANCH  15  19
HETATM   19  C2  UNL     1      20.127   2.179  51.283  1.00  0.00     0.276 C 
HETATM   20  C1  UNL     1      21.112   1.488  52.229  1.00  0.00     0.067 C 
BRANCH  19  21
HETATM   21  N1  UNL     1      19.814   1.118  50.267  1.00  0.00    -0.053 N 
ATOM     22  H13 UNL     1      19.985   1.395  49.300  1.00  0.00     0.276 HD
ATOM     23  H12 UNL     1      20.460   0.328  50.267  1.00  0.00     0.276 HD
ATOM     24  H11 UNL     1      18.845   0.872  50.470  1.00  0.00     0.276 HD
ENDBRANCH  19  21
BRANCH  19  25
HETATM   25  C3  UNL     1      18.829   2.444  51.942  1.00  0.00     0.276 C 
HETATM   26  N2  UNL     1      17.583   2.533  51.267  1.00  0.00    -0.059 NA
HETATM   27  O1  UNL     1      18.817   2.612  53.208  1.00  0.00    -0.274 OA
ENDBRANCH  19  25
ENDBRANCH  15  19
ENDBRANCH   1  11
BRANCH   2  28
HETATM   28  O4  UNL     1      19.497   8.448  47.100  1.00  0.00    -0.344 OA
ATOM     29  H4  UNL     1      19.313   8.667  46.195  1.00  0.00     0.219 HD
ENDBRANCH   2  28
BRANCH   5  30
HETATM   30  O5  UNL     1      23.098   7.768  50.272  1.00  0.00    -0.344 OA
ATOM     31  H5  UNL     1      24.047   7.779  50.299  1.00  0.00     0.219 HD
ENDBRANCH   5  30
BRANCH   6  32
HETATM   32  C11 UNL     1      24.096  11.012  49.062  1.00  0.00     0.209 C 
HETATM   33  O6  UNL     1      23.907  12.235  49.057  1.00  0.00    -0.646 OA
HETATM   34  O7  UNL     1      24.548  10.433  50.260  1.00  0.00    -0.646 OA
ENDBRANCH   6  32
TORSDOF 7
ENDMDL
