MODEL 1
REMARK VINA RESULT: -7.062938707      0.000      0.000
REMARK  8 active torsions:
REMARK  status: ('A' for Active; 'I' for Inactive)
REMARK    1  A    between atoms: C3_4  and  O1_5 
REMARK    2  A    between atoms: C4_7  and  N1_8 
REMARK    3  A    between atoms: C6_13  and  N2_14 
REMARK    4  A    between atoms: C7_18  and  O2_19 
REMARK    5  A    between atoms: O2_19  and  C8_20 
REMARK    6  A    between atoms: C10_22  and  N3_23 
REMARK    7  A    between atoms: C11_27  and  N4_28 
REMARK    8  A    between atoms: C12_32  and  N5_33 
REMARK       I    between atoms: N5_33  and  C13_35 
ROOT
HETATM    1  C8  UNL     1      21.473   6.846  48.558  1.00  0.00     0.265 C 
HETATM    2  C9  UNL     1      20.044   7.126  48.978  1.00  0.00     0.096 C 
HETATM    3  C10 UNL     1      19.631   8.540  48.585  1.00  0.00     0.222 C 
HETATM    4  C11 UNL     1      20.709   9.470  49.052  1.00  0.00     0.262 C 
HETATM    5  C12 UNL     1      22.003   9.043  48.396  1.00  0.00     0.260 C 
HETATM    6  O4  UNL     1      21.851   7.860  47.682  1.00  0.00    -0.335 OA
ENDROOT
BRANCH   1   7
HETATM    7  O2  UNL     1      21.510   5.600  47.992  1.00  0.00    -0.352 OA
BRANCH   7   8
HETATM    8  C7  UNL     1      21.940   4.594  48.856  1.00  0.00     0.176 C 
HETATM    9  C2  UNL     1      21.224   3.346  48.502  1.00  0.00     0.071 C 
HETATM   10  C1  UNL     1      20.832   3.313  47.033  1.00  0.00     0.033 C 
HETATM   11  S1  UNL     1      19.651   3.299  49.449  1.00  0.00    -0.082 SA
HETATM   12  C3  UNL     1      21.939   2.078  48.822  1.00  0.00     0.170 C 
HETATM   13  C4  UNL     1      23.361   2.031  48.393  1.00  0.00     0.215 C 
HETATM   14  C5  UNL     1      23.916   3.340  47.939  1.00  0.00     0.070 C 
HETATM   15  C6  UNL     1      23.436   4.515  48.742  1.00  0.00     0.216 C 
BRANCH  12  16
HETATM   16  O1  UNL     1      21.237   1.032  48.181  1.00  0.00    -0.392 OA
ATOM     17  H1  UNL     1      21.140   0.331  48.815  1.00  0.00     0.210 HD
ENDBRANCH  12  16
BRANCH  13  18
HETATM   18  N1  UNL     1      24.141   1.447  49.487  1.00  0.00    -0.072 N 
ATOM     19  H13 UNL     1      25.121   1.727  49.469  1.00  0.00     0.274 HD
ATOM     20  H12 UNL     1      23.905   1.844  50.397  1.00  0.00     0.274 HD
ATOM     21  H11 UNL     1      24.017   0.435  49.453  1.00  0.00     0.274 HD
ENDBRANCH  13  18
BRANCH  15  22
HETATM   22  N2  UNL     1      24.062   4.499  50.057  1.00  0.00    -0.072 N 
ATOM     23  H23 UNL     1      24.122   3.557  50.443  1.00  0.00     0.274 HD
ATOM     24  H22 UNL     1      25.061   4.702  50.009  1.00  0.00     0.274 HD
ATOM     25  H21 UNL     1      23.570   5.139  50.680  1.00  0.00     0.274 HD
ENDBRANCH  15  22
ENDBRANCH   7   8
ENDBRANCH   1   7
BRANCH   3  26
HETATM   26  N3  UNL     1      18.362   8.850  49.211  1.00  0.00    -0.073 N 
ATOM     27  H33 UNL     1      17.867   8.013  49.521  1.00  0.00     0.274 HD
ATOM     28  H32 UNL     1      18.477   9.293  50.123  1.00  0.00     0.274 HD
ATOM     29  H31 UNL     1      17.807   9.417  48.571  1.00  0.00     0.274 HD
ENDBRANCH   3  26
BRANCH   5  30
HETATM   30  N5  UNL     1      22.397  10.099  47.485  1.00  0.00    -0.317 N 
HETATM   31  C13 UNL     1      23.776  10.352  47.215  1.00  0.00     0.330 C 
HETATM   32  N6  UNL     1      24.212  11.364  46.339  1.00  0.00    -0.040 NA
HETATM   33  O3  UNL     1      24.642   9.635  47.787  1.00  0.00    -0.251 OA
ATOM     34  H5  UNL     1      21.681  10.668  47.032  1.00  0.00     0.166 HD
ENDBRANCH   5  30
BRANCH   4  35
HETATM   35  N4  UNL     1      20.323  10.819  48.644  1.00  0.00    -0.069 N 
ATOM     36  H43 UNL     1      19.318  10.921  48.500  1.00  0.00     0.275 HD
ATOM     37  H42 UNL     1      20.419  11.506  49.393  1.00  0.00     0.275 HD
ATOM     38  H41 UNL     1      20.871  11.053  47.816  1.00  0.00     0.275 HD
ENDBRANCH   4  35
TORSDOF 8
ENDMDL
MODEL 2
REMARK VINA RESULT: -6.817006330      2.961      6.943
REMARK  8 active torsions:
REMARK  status: ('A' for Active; 'I' for Inactive)
REMARK    1  A    between atoms: C3_4  and  O1_5 
REMARK    2  A    between atoms: C4_7  and  N1_8 
REMARK    3  A    between atoms: C6_13  and  N2_14 
REMARK    4  A    between atoms: C7_18  and  O2_19 
REMARK    5  A    between atoms: O2_19  and  C8_20 
REMARK    6  A    between atoms: C10_22  and  N3_23 
REMARK    7  A    between atoms: C11_27  and  N4_28 
REMARK    8  A    between atoms: C12_32  and  N5_33 
REMARK       I    between atoms: N5_33  and  C13_35 
ROOT
HETATM    1  C8  UNL     1      22.006   6.139  50.036  1.00  0.00     0.265 C 
HETATM    2  C9  UNL     1      22.779   5.609  48.845  1.00  0.00     0.096 C 
HETATM    3  C10 UNL     1      22.006   4.496  48.147  1.00  0.00     0.222 C 
HETATM    4  C11 UNL     1      21.563   3.527  49.200  1.00  0.00     0.262 C 
HETATM    5  C12 UNL     1      20.713   4.284  50.196  1.00  0.00     0.260 C 
HETATM    6  O4  UNL     1      20.707   5.649  49.933  1.00  0.00    -0.335 OA
ENDROOT
BRANCH   1   7
HETATM    7  O2  UNL     1      22.074   7.506  50.008  1.00  0.00    -0.352 OA
BRANCH   7   8
HETATM    8  C7  UNL     1      22.634   8.024  48.842  1.00  0.00     0.176 C 
HETATM    9  C2  UNL     1      21.638   8.924  48.214  1.00  0.00     0.071 C 
HETATM   10  C1  UNL     1      20.699   9.538  49.241  1.00  0.00     0.033 C 
HETATM   11  S1  UNL     1      20.582   7.919  47.096  1.00  0.00    -0.082 SA
HETATM   12  C3  UNL     1      22.198  10.024  47.377  1.00  0.00     0.170 C 
HETATM   13  C4  UNL     1      23.305  10.791  48.004  1.00  0.00     0.215 C 
HETATM   14  C5  UNL     1      23.848  10.186  49.256  1.00  0.00     0.070 C 
HETATM   15  C6  UNL     1      23.928   8.687  49.222  1.00  0.00     0.216 C 
BRANCH  12  16
HETATM   16  O1  UNL     1      21.135  10.911  47.094  1.00  0.00    -0.392 OA
ATOM     17  H1  UNL     1      21.504  11.648  46.620  1.00  0.00     0.210 HD
ENDBRANCH  12  16
BRANCH  13  18
HETATM   18  N1  UNL     1      24.343  10.990  46.989  1.00  0.00    -0.072 N 
ATOM     19  H13 UNL     1      25.286  10.958  47.375  1.00  0.00     0.274 HD
ATOM     20  H12 UNL     1      24.431  10.198  46.353  1.00  0.00     0.274 HD
ATOM     21  H11 UNL     1      24.142  11.866  46.506  1.00  0.00     0.274 HD
ENDBRANCH  13  18
BRANCH  15  22
HETATM   22  N2  UNL     1      25.009   8.274  48.339  1.00  0.00    -0.072 N 
ATOM     23  H23 UNL     1      24.745   7.481  47.753  1.00  0.00     0.274 HD
ATOM     24  H22 UNL     1      25.182   8.954  47.599  1.00  0.00     0.274 HD
ATOM     25  H21 UNL     1      25.847   8.082  48.888  1.00  0.00     0.274 HD
ENDBRANCH  15  22
ENDBRANCH   7   8
ENDBRANCH   1   7
BRANCH   3  26
HETATM   26  N3  UNL     1      22.872   3.858  47.177  1.00  0.00    -0.073 N 
ATOM     27  H33 UNL     1      23.665   4.446  46.919  1.00  0.00     0.274 HD
ATOM     28  H32 UNL     1      23.396   3.079  47.577  1.00  0.00     0.274 HD
ATOM     29  H31 UNL     1      22.315   3.578  46.369  1.00  0.00     0.274 HD
ENDBRANCH   3  26
BRANCH   5  30
HETATM   30  N5  UNL     1      19.360   3.775  50.090  1.00  0.00    -0.317 N 
HETATM   31  C13 UNL     1      18.670   3.293  51.243  1.00  0.00     0.330 C 
HETATM   32  N6  UNL     1      17.357   2.789  51.195  1.00  0.00    -0.040 NA
HETATM   33  O3  UNL     1      19.265   3.323  52.355  1.00  0.00    -0.251 OA
ATOM     34  H5  UNL     1      18.897   3.759  49.181  1.00  0.00     0.166 HD
ENDBRANCH   5  30
BRANCH   4  35
HETATM   35  N4  UNL     1      20.794   2.481  48.529  1.00  0.00    -0.069 N 
ATOM     36  H43 UNL     1      20.787   2.579  47.514  1.00  0.00     0.275 HD
ATOM     37  H42 UNL     1      21.243   1.566  48.571  1.00  0.00     0.275 HD
ATOM     38  H41 UNL     1      19.858   2.485  48.937  1.00  0.00     0.275 HD
ENDBRANCH   4  35
TORSDOF 8
ENDMDL
MODEL 3
REMARK VINA RESULT: -6.534106204      4.914      7.287
REMARK  8 active torsions:
REMARK  status: ('A' for Active; 'I' for Inactive)
REMARK    1  A    between atoms: C3_4  and  O1_5 
REMARK    2  A    between atoms: C4_7  and  N1_8 
REMARK    3  A    between atoms: C6_13  and  N2_14 
REMARK    4  A    between atoms: C7_18  and  O2_19 
REMARK    5  A    between atoms: O2_19  and  C8_20 
REMARK    6  A    between atoms: C10_22  and  N3_23 
REMARK    7  A    between atoms: C11_27  and  N4_28 
REMARK    8  A    between atoms: C12_32  and  N5_33 
REMARK       I    between atoms: N5_33  and  C13_35 
ROOT
HETATM    1  C8  UNL     1      19.655   8.283  52.537  1.00  0.00     0.265 C 
HETATM    2  C9  UNL     1      18.894   9.593  52.497  1.00  0.00     0.096 C 
HETATM    3  C10 UNL     1      18.407   9.979  53.889  1.00  0.00     0.222 C 
HETATM    4  C11 UNL     1      17.733   8.779  54.480  1.00  0.00     0.262 C 
HETATM    5  C12 UNL     1      18.742   7.653  54.513  1.00  0.00     0.260 C 
HETATM    6  O4  UNL     1      19.925   8.005  53.874  1.00  0.00    -0.335 OA
ENDROOT
BRANCH   1   7
HETATM    7  O2  UNL     1      20.783   8.427  51.775  1.00  0.00    -0.352 OA
BRANCH   7   8
HETATM    8  C7  UNL     1      20.550   8.958  50.507  1.00  0.00     0.176 C 
HETATM    9  C2  UNL     1      21.860   9.174  49.850  1.00  0.00     0.071 C 
HETATM   10  C1  UNL     1      22.917   8.206  50.358  1.00  0.00     0.033 C 
HETATM   11  S1  UNL     1      22.454  10.854  50.295  1.00  0.00    -0.082 SA
HETATM   12  C3  UNL     1      21.854   9.117  48.360  1.00  0.00     0.170 C 
HETATM   13  C4  UNL     1      21.138   7.952  47.778  1.00  0.00     0.215 C 
HETATM   14  C5  UNL     1      20.330   7.166  48.758  1.00  0.00     0.070 C 
HETATM   15  C6  UNL     1      19.634   8.010  49.786  1.00  0.00     0.216 C 
BRANCH  12  16
HETATM   16  O1  UNL     1      23.203   9.076  47.941  1.00  0.00    -0.392 OA
ATOM     17  H1  UNL     1      23.595   9.907  48.182  1.00  0.00     0.210 HD
ENDBRANCH  12  16
BRANCH  13  18
HETATM   18  N1  UNL     1      20.330   8.438  46.656  1.00  0.00    -0.072 N 
ATOM     19  H13 UNL     1      19.570   7.803  46.411  1.00  0.00     0.274 HD
ATOM     20  H12 UNL     1      19.757   9.245  46.901  1.00  0.00     0.274 HD
ATOM     21  H11 UNL     1      20.960   8.621  45.875  1.00  0.00     0.274 HD
ENDBRANCH  13  18
BRANCH  15  22
HETATM   22  N2  UNL     1      18.524   8.721  49.167  1.00  0.00    -0.072 N 
ATOM     23  H23 UNL     1      18.093   8.182  48.416  1.00  0.00     0.274 HD
ATOM     24  H22 UNL     1      17.715   8.783  49.786  1.00  0.00     0.274 HD
ATOM     25  H21 UNL     1      18.837   9.638  48.850  1.00  0.00     0.274 HD
ENDBRANCH  15  22
ENDBRANCH   7   8
ENDBRANCH   1   7
BRANCH   3  26
HETATM   26  N3  UNL     1      17.488  11.093  53.773  1.00  0.00    -0.073 N 
ATOM     27  H33 UNL     1      16.699  11.013  54.414  1.00  0.00     0.274 HD
ATOM     28  H32 UNL     1      17.881  11.961  54.139  1.00  0.00     0.274 HD
ATOM     29  H31 UNL     1      17.194  11.179  52.800  1.00  0.00     0.274 HD
ENDBRANCH   3  26
BRANCH   5  30
HETATM   30  N5  UNL     1      19.023   7.362  55.905  1.00  0.00    -0.317 N 
HETATM   31  C13 UNL     1      20.037   6.422  56.263  1.00  0.00     0.330 C 
HETATM   32  N6  UNL     1      20.349   6.104  57.598  1.00  0.00    -0.040 NA
HETATM   33  O3  UNL     1      20.681   5.852  55.340  1.00  0.00    -0.251 OA
ATOM     34  H5  UNL     1      18.491   7.834  56.636  1.00  0.00     0.166 HD
ENDBRANCH   5  30
BRANCH   4  35
HETATM   35  N4  UNL     1      17.297   9.145  55.826  1.00  0.00    -0.069 N 
ATOM     36  H43 UNL     1      17.189   8.340  56.443  1.00  0.00     0.275 HD
ATOM     37  H42 UNL     1      18.019   9.627  56.362  1.00  0.00     0.275 HD
ATOM     38  H41 UNL     1      16.441   9.691  55.728  1.00  0.00     0.275 HD
ENDBRANCH   4  35
TORSDOF 8
ENDMDL
MODEL 4
REMARK VINA RESULT: -6.527200693      2.766      6.715
REMARK  8 active torsions:
REMARK  status: ('A' for Active; 'I' for Inactive)
REMARK    1  A    between atoms: C3_4  and  O1_5 
REMARK    2  A    between atoms: C4_7  and  N1_8 
REMARK    3  A    between atoms: C6_13  and  N2_14 
REMARK    4  A    between atoms: C7_18  and  O2_19 
REMARK    5  A    between atoms: O2_19  and  C8_20 
REMARK    6  A    between atoms: C10_22  and  N3_23 
REMARK    7  A    between atoms: C11_27  and  N4_28 
REMARK    8  A    between atoms: C12_32  and  N5_33 
REMARK       I    between atoms: N5_33  and  C13_35 
ROOT
HETATM    1  C8  UNL     1      21.662   5.984  49.718  1.00  0.00     0.265 C 
HETATM    2  C9  UNL     1      22.896   5.390  49.071  1.00  0.00     0.096 C 
HETATM    3  C10 UNL     1      22.513   4.373  48.003  1.00  0.00     0.222 C 
HETATM    4  C11 UNL     1      21.505   3.443  48.609  1.00  0.00     0.262 C 
HETATM    5  C12 UNL     1      20.327   4.274  49.065  1.00  0.00     0.260 C 
HETATM    6  O4  UNL     1      20.573   5.634  48.925  1.00  0.00    -0.335 OA
ENDROOT
BRANCH   1   7
HETATM    7  O2  UNL     1      21.847   7.337  49.818  1.00  0.00    -0.352 OA
BRANCH   7   8
HETATM    8  C7  UNL     1      22.511   7.902  48.730  1.00  0.00     0.176 C 
HETATM    9  C2  UNL     1      21.581   8.841  48.061  1.00  0.00     0.071 C 
HETATM   10  C1  UNL     1      20.561   9.419  49.030  1.00  0.00     0.033 C 
HETATM   11  S1  UNL     1      20.618   7.901  46.810  1.00  0.00    -0.082 SA
HETATM   12  C3  UNL     1      22.221   9.972  47.328  1.00  0.00     0.170 C 
HETATM   13  C4  UNL     1      23.275  10.696  48.084  1.00  0.00     0.215 C 
HETATM   14  C5  UNL     1      23.701  10.028  49.349  1.00  0.00     0.070 C 
HETATM   15  C6  UNL     1      23.772   8.531  49.252  1.00  0.00     0.216 C 
BRANCH  12  16
HETATM   16  O1  UNL     1      21.194  10.884  46.995  1.00  0.00    -0.392 OA
ATOM     17  H1  UNL     1      21.569  11.756  47.039  1.00  0.00     0.210 HD
ENDBRANCH  12  16
BRANCH  13  18
HETATM   18  N1  UNL     1      24.399  10.929  47.173  1.00  0.00    -0.072 N 
ATOM     19  H13 UNL     1      25.082  10.172  47.186  1.00  0.00     0.274 HD
ATOM     20  H12 UNL     1      24.135  10.855  46.191  1.00  0.00     0.274 HD
ATOM     21  H11 UNL     1      24.807  11.834  47.407  1.00  0.00     0.274 HD
ENDBRANCH  13  18
BRANCH  15  22
HETATM   22  N2  UNL     1      24.923   8.145  48.448  1.00  0.00    -0.072 N 
ATOM     23  H23 UNL     1      25.623   8.886  48.398  1.00  0.00     0.274 HD
ATOM     24  H22 UNL     1      25.493   7.435  48.908  1.00  0.00     0.274 HD
ATOM     25  H21 UNL     1      24.613   7.849  47.523  1.00  0.00     0.274 HD
ENDBRANCH  15  22
ENDBRANCH   7   8
ENDBRANCH   1   7
BRANCH   3  26
HETATM   26  N3  UNL     1      23.701   3.658  47.585  1.00  0.00    -0.073 N 
ATOM     27  H33 UNL     1      24.426   3.656  48.304  1.00  0.00     0.274 HD
ATOM     28  H32 UNL     1      23.551   2.651  47.532  1.00  0.00     0.274 HD
ATOM     29  H31 UNL     1      24.030   4.050  46.702  1.00  0.00     0.274 HD
ENDBRANCH   3  26
BRANCH   5  30
HETATM   30  N5  UNL     1      19.193   3.909  48.239  1.00  0.00    -0.317 N 
HETATM   31  C13 UNL     1      17.866   4.275  48.621  1.00  0.00     0.330 C 
HETATM   32  N6  UNL     1      16.731   3.946  47.856  1.00  0.00    -0.040 NA
HETATM   33  O3  UNL     1      17.706   4.922  49.692  1.00  0.00    -0.251 OA
ATOM     34  H5  UNL     1      19.344   3.385  47.377  1.00  0.00     0.166 HD
ENDBRANCH   5  30
BRANCH   4  35
HETATM   35  N4  UNL     1      21.117   2.490  47.571  1.00  0.00    -0.069 N 
ATOM     36  H43 UNL     1      20.769   1.609  47.948  1.00  0.00     0.275 HD
ATOM     37  H42 UNL     1      20.270   2.765  47.073  1.00  0.00     0.275 HD
ATOM     38  H41 UNL     1      21.921   2.370  46.954  1.00  0.00     0.275 HD
ENDBRANCH   4  35
TORSDOF 8
ENDMDL
MODEL 5
REMARK VINA RESULT: -6.490842967      3.484      6.874
REMARK  8 active torsions:
REMARK  status: ('A' for Active; 'I' for Inactive)
REMARK    1  A    between atoms: C3_4  and  O1_5 
REMARK    2  A    between atoms: C4_7  and  N1_8 
REMARK    3  A    between atoms: C6_13  and  N2_14 
REMARK    4  A    between atoms: C7_18  and  O2_19 
REMARK    5  A    between atoms: O2_19  and  C8_20 
REMARK    6  A    between atoms: C10_22  and  N3_23 
REMARK    7  A    between atoms: C11_27  and  N4_28 
REMARK    8  A    between atoms: C12_32  and  N5_33 
REMARK       I    between atoms: N5_33  and  C13_35 
ROOT
HETATM    1  C8  UNL     1      21.727   6.572  49.486  1.00  0.00     0.265 C 
HETATM    2  C9  UNL     1      21.678   6.507  47.973  1.00  0.00     0.096 C 
HETATM    3  C10 UNL     1      20.412   5.803  47.500  1.00  0.00     0.222 C 
HETATM    4  C11 UNL     1      20.292   4.525  48.274  1.00  0.00     0.262 C 
HETATM    5  C12 UNL     1      20.242   4.879  49.743  1.00  0.00     0.260 C 
HETATM    6  O4  UNL     1      20.459   6.236  49.953  1.00  0.00    -0.335 OA
ENDROOT
BRANCH   1   7
HETATM    7  O2  UNL     1      22.119   7.834  49.842  1.00  0.00    -0.352 OA
BRANCH   7   8
HETATM    8  C7  UNL     1      23.108   8.375  49.022  1.00  0.00     0.176 C 
HETATM    9  C2  UNL     1      22.897   9.840  48.953  1.00  0.00     0.071 C 
HETATM   10  C1  UNL     1      22.221  10.377  50.205  1.00  0.00     0.033 C 
HETATM   11  S1  UNL     1      21.747  10.189  47.564  1.00  0.00    -0.082 SA
HETATM   12  C3  UNL     1      24.118  10.657  48.696  1.00  0.00     0.170 C 
HETATM   13  C4  UNL     1      25.293  10.315  49.539  1.00  0.00     0.215 C 
HETATM   14  C5  UNL     1      25.148   9.054  50.324  1.00  0.00     0.070 C 
HETATM   15  C6  UNL     1      24.437   7.957  49.587  1.00  0.00     0.216 C 
BRANCH  12  16
HETATM   16  O1  UNL     1      23.770  12.007  48.930  1.00  0.00    -0.392 OA
ATOM     17  H1  UNL     1      24.335  12.540  48.382  1.00  0.00     0.210 HD
ENDBRANCH  12  16
BRANCH  13  18
HETATM   18  N1  UNL     1      26.475  10.296  48.672  1.00  0.00    -0.072 N 
ATOM     19  H13 UNL     1      26.695  11.212  48.282  1.00  0.00     0.274 HD
ATOM     20  H12 UNL     1      27.343  10.158  49.189  1.00  0.00     0.274 HD
ATOM     21  H11 UNL     1      26.324   9.587  47.955  1.00  0.00     0.274 HD
ENDBRANCH  13  18
BRANCH  15  22
HETATM   22  N2  UNL     1      25.304   7.422  48.546  1.00  0.00    -0.072 N 
ATOM     23  H23 UNL     1      25.939   8.129  48.174  1.00  0.00     0.274 HD
ATOM     24  H22 UNL     1      26.002   6.779  48.921  1.00  0.00     0.274 HD
ATOM     25  H21 UNL     1      24.739   6.992  47.815  1.00  0.00     0.274 HD
ENDBRANCH  15  22
ENDBRANCH   7   8
ENDBRANCH   1   7
BRANCH   3  26
HETATM   26  N3  UNL     1      20.519   5.547  46.079  1.00  0.00    -0.073 N 
ATOM     27  H33 UNL     1      20.649   4.557  45.871  1.00  0.00     0.274 HD
ATOM     28  H32 UNL     1      19.632   5.679  45.592  1.00  0.00     0.274 HD
ATOM     29  H31 UNL     1      21.264   6.127  45.693  1.00  0.00     0.274 HD
ENDBRANCH   3  26
BRANCH   5  30
HETATM   30  N5  UNL     1      18.922   4.530  50.230  1.00  0.00    -0.317 N 
HETATM   31  C13 UNL     1      18.667   3.237  50.782  1.00  0.00     0.330 C 
HETATM   32  N6  UNL     1      17.405   2.847  51.268  1.00  0.00    -0.040 NA
HETATM   33  O3  UNL     1      19.617   2.409  50.835  1.00  0.00    -0.251 OA
ATOM     34  H5  UNL     1      18.167   5.214  50.177  1.00  0.00     0.166 HD
ENDBRANCH   5  30
BRANCH   4  35
HETATM   35  N4  UNL     1      19.059   3.870  47.840  1.00  0.00    -0.069 N 
ATOM     36  H43 UNL     1      18.221   4.404  48.071  1.00  0.00     0.275 HD
ATOM     37  H42 UNL     1      18.942   3.871  46.827  1.00  0.00     0.275 HD
ATOM     38  H41 UNL     1      19.058   2.932  48.242  1.00  0.00     0.275 HD
ENDBRANCH   4  35
TORSDOF 8
ENDMDL
