MODEL 1
REMARK VINA RESULT: -9.219138286      0.000      0.000
REMARK  6 active torsions:
REMARK  status: ('A' for Active; 'I' for Inactive)
REMARK    1  A    between atoms: N1_1  and  C1_4 
REMARK       I    between atoms: N4_10  and  C3_12 
REMARK    2  A    between atoms: C3_12  and  O2_14 
REMARK    3  A    between atoms: O2_14  and  C4_15 
REMARK    4  A    between atoms: C4_15  and  C5_16 
REMARK       I    between atoms: C5_16  and  N5_18 
REMARK    5  A    between atoms: N5_18  and  C6_20 
REMARK    6  A    between atoms: C6_20  and  C7_21 
ROOT
HETATM    1  C4  UNL     1      74.924  67.733  92.300  1.00  0.00     0.283 C 
ENDROOT
BRANCH   1   2
HETATM    2  O2  UNL     1      76.170  67.108  92.241  1.00  0.00    -0.294 OA
BRANCH   2   3
HETATM    3  C3  UNL     1      76.682  66.551  91.103  1.00  0.00     0.367 C 
HETATM    4  N4  UNL     1      77.981  66.002  91.111  1.00  0.00    -0.281 N 
HETATM    5  C2  UNL     1      78.156  64.915  91.827  1.00  0.00     0.171 A 
ATOM      6  H4  UNL     1      78.746  66.428  90.587  1.00  0.00     0.173 HD
HETATM    7  N3  UNL     1      77.275  64.239  92.560  1.00  0.00    -0.277 N 
HETATM    8  S1  UNL     1      79.586  64.003  92.053  1.00  0.00    -0.015 SA
HETATM    9  N2  UNL     1      77.659  63.193  93.185  1.00  0.00    -0.278 N 
ATOM     10  H3  UNL     1      76.306  64.551  92.621  1.00  0.00     0.189 HD
HETATM   11  C1  UNL     1      78.933  62.810  93.084  1.00  0.00     0.160 A 
ATOM     12  H2  UNL     1      77.001  62.658  93.754  1.00  0.00     0.189 HD
HETATM   13  O1  UNL     1      76.018  66.517  90.051  1.00  0.00    -0.238 OA
BRANCH  11  14
HETATM   14  N1  UNL     1      79.510  61.772  93.649  1.00  0.00    -0.379 N 
ATOM     15  H12 UNL     1      79.263  61.265  94.499  1.00  0.00     0.158 HD
ATOM     16  H11 UNL     1      80.336  61.265  93.330  1.00  0.00     0.158 HD
ENDBRANCH  11  14
ENDBRANCH   2   3
ENDBRANCH   1   2
BRANCH   1  17
HETATM   17  C5  UNL     1      74.197  67.297  93.520  1.00  0.00     0.242 C 
HETATM   18  O3  UNL     1      73.777  66.135  93.587  1.00  0.00    -0.271 OA
HETATM   19  N5  UNL     1      73.972  68.183  94.613  1.00  0.00    -0.357 N 
ATOM     20  H5  UNL     1      74.327  69.137  94.546  1.00  0.00     0.162 HD
BRANCH  19  21
HETATM   21  C6  UNL     1      73.279  67.803  95.788  1.00  0.00     0.148 C 
BRANCH  21  22
HETATM   22  C7  UNL     1      73.706  68.551  97.053  1.00  0.00     0.108 A 
HETATM   23  C8  UNL     1      75.104  68.171  97.365  1.00  0.00     0.100 A 
HETATM   24  C9  UNL     1      76.027  69.302  97.481  1.00  0.00     0.097 A 
HETATM   25  N6  UNL     1      77.399  68.972  97.785  1.00  0.00    -0.087 NA
HETATM   26  N7  UNL     1      75.684  70.515  97.332  1.00  0.00    -0.323 N 
HETATM   27  C10 UNL     1      74.335  70.902  97.030  1.00  0.00     0.189 A 
ATOM     28  H7  UNL     1      76.393  71.242  97.431  1.00  0.00     0.169 HD
HETATM   29  N8  UNL     1      73.958  72.263  96.864  1.00  0.00    -0.064 NA
HETATM   30  N9  UNL     1      73.496  69.947  96.919  1.00  0.00    -0.358 N 
ATOM     31  H9  UNL     1      72.539  70.228  96.703  1.00  0.00     0.162 HD
ENDBRANCH  21  22
ENDBRANCH  19  21
ENDBRANCH   1  17
TORSDOF 6
ENDMDL
MODEL 2
REMARK VINA RESULT: -7.634404949      1.537      2.716
REMARK  6 active torsions:
REMARK  status: ('A' for Active; 'I' for Inactive)
REMARK    1  A    between atoms: N1_1  and  C1_4 
REMARK       I    between atoms: N4_10  and  C3_12 
REMARK    2  A    between atoms: C3_12  and  O2_14 
REMARK    3  A    between atoms: O2_14  and  C4_15 
REMARK    4  A    between atoms: C4_15  and  C5_16 
REMARK       I    between atoms: C5_16  and  N5_18 
REMARK    5  A    between atoms: N5_18  and  C6_20 
REMARK    6  A    between atoms: C6_20  and  C7_21 
ROOT
HETATM    1  C4  UNL     1      75.117  66.791  92.620  1.00  0.00     0.283 C 
ENDROOT
BRANCH   1   2
HETATM    2  O2  UNL     1      75.718  65.537  92.516  1.00  0.00    -0.294 OA
BRANCH   2   3
HETATM    3  C3  UNL     1      76.969  65.258  92.993  1.00  0.00     0.367 C 
HETATM    4  N4  UNL     1      77.954  64.744  92.124  1.00  0.00    -0.281 N 
HETATM    5  C2  UNL     1      78.396  65.555  91.191  1.00  0.00     0.171 A 
ATOM      6  H4  UNL     1      78.306  63.791  92.217  1.00  0.00     0.173 HD
HETATM    7  N3  UNL     1      78.049  66.814  90.936  1.00  0.00    -0.277 N 
HETATM    8  S1  UNL     1      79.575  65.257  89.987  1.00  0.00    -0.015 SA
HETATM    9  N2  UNL     1      78.611  67.430  89.967  1.00  0.00    -0.278 N 
ATOM     10  H3  UNL     1      77.344  67.281  91.506  1.00  0.00     0.189 HD
HETATM   11  C1  UNL     1      79.530  66.791  89.241  1.00  0.00     0.160 A 
ATOM     12  H2  UNL     1      78.360  68.396  89.753  1.00  0.00     0.189 HD
HETATM   13  O1  UNL     1      77.256  65.449  94.187  1.00  0.00    -0.238 OA
BRANCH  11  14
HETATM   14  N1  UNL     1      80.210  67.254  88.215  1.00  0.00    -0.379 N 
ATOM     15  H12 UNL     1      80.813  66.766  87.553  1.00  0.00     0.158 HD
ATOM     16  H11 UNL     1      80.260  68.217  87.881  1.00  0.00     0.158 HD
ENDBRANCH  11  14
ENDBRANCH   2   3
ENDBRANCH   1   2
BRANCH   1  17
HETATM   17  C5  UNL     1      74.085  66.769  93.691  1.00  0.00     0.242 C 
HETATM   18  O3  UNL     1      73.225  65.880  93.679  1.00  0.00    -0.271 OA
HETATM   19  N5  UNL     1      74.065  67.746  94.728  1.00  0.00    -0.357 N 
ATOM     20  H5  UNL     1      74.783  68.470  94.728  1.00  0.00     0.162 HD
BRANCH  19  21
HETATM   21  C6  UNL     1      73.096  67.758  95.761  1.00  0.00     0.148 C 
BRANCH  21  22
HETATM   22  C7  UNL     1      73.502  68.541  97.010  1.00  0.00     0.108 A 
HETATM   23  C8  UNL     1      74.893  68.169  97.359  1.00  0.00     0.100 A 
HETATM   24  C9  UNL     1      75.816  69.300  97.458  1.00  0.00     0.097 A 
HETATM   25  N6  UNL     1      77.182  68.977  97.796  1.00  0.00    -0.087 NA
HETATM   26  N7  UNL     1      75.478  70.510  97.267  1.00  0.00    -0.323 N 
HETATM   27  C10 UNL     1      74.137  70.890  96.930  1.00  0.00     0.189 A 
ATOM     28  H7  UNL     1      76.187  71.237  97.358  1.00  0.00     0.169 HD
HETATM   29  N8  UNL     1      73.766  72.246  96.719  1.00  0.00    -0.064 NA
HETATM   30  N9  UNL     1      73.298  69.934  96.832  1.00  0.00    -0.358 N 
ATOM     31  H9  UNL     1      72.345  70.210  96.592  1.00  0.00     0.162 HD
ENDBRANCH  21  22
ENDBRANCH  19  21
ENDBRANCH   1  17
TORSDOF 6
ENDMDL
MODEL 3
REMARK VINA RESULT: -7.613812239      1.474      1.843
REMARK  6 active torsions:
REMARK  status: ('A' for Active; 'I' for Inactive)
REMARK    1  A    between atoms: N1_1  and  C1_4 
REMARK       I    between atoms: N4_10  and  C3_12 
REMARK    2  A    between atoms: C3_12  and  O2_14 
REMARK    3  A    between atoms: O2_14  and  C4_15 
REMARK    4  A    between atoms: C4_15  and  C5_16 
REMARK       I    between atoms: C5_16  and  N5_18 
REMARK    5  A    between atoms: N5_18  and  C6_20 
REMARK    6  A    between atoms: C6_20  and  C7_21 
ROOT
HETATM    1  C4  UNL     1      75.224  67.183  92.434  1.00  0.00     0.283 C 
ENDROOT
BRANCH   1   2
HETATM    2  O2  UNL     1      76.505  66.910  92.911  1.00  0.00    -0.294 OA
BRANCH   2   3
HETATM    3  C3  UNL     1      76.753  66.142  94.014  1.00  0.00     0.367 C 
HETATM    4  N4  UNL     1      77.082  64.779  93.863  1.00  0.00    -0.281 N 
HETATM    5  C2  UNL     1      78.242  64.512  93.309  1.00  0.00     0.171 A 
ATOM      6  H4  UNL     1      76.451  64.038  94.169  1.00  0.00     0.173 HD
HETATM    7  N3  UNL     1      79.173  65.350  92.861  1.00  0.00    -0.277 N 
HETATM    8  S1  UNL     1      78.944  62.986  92.981  1.00  0.00    -0.015 SA
HETATM    9  N2  UNL     1      80.245  64.874  92.351  1.00  0.00    -0.278 N 
ATOM     10  H3  UNL     1      79.034  66.358  92.923  1.00  0.00     0.189 HD
HETATM   11  C1  UNL     1      80.397  63.550  92.284  1.00  0.00     0.160 A 
ATOM     12  H2  UNL     1      80.973  65.497  92.000  1.00  0.00     0.189 HD
HETATM   13  O1  UNL     1      76.693  66.626  95.158  1.00  0.00    -0.238 OA
BRANCH  11  14
HETATM   14  N1  UNL     1      81.418  62.880  91.799  1.00  0.00    -0.379 N 
ATOM     15  H12 UNL     1      82.112  63.153  91.103  1.00  0.00     0.158 HD
ATOM     16  H11 UNL     1      81.715  61.933  92.037  1.00  0.00     0.158 HD
ENDBRANCH  11  14
ENDBRANCH   2   3
ENDBRANCH   1   2
BRANCH   1  17
HETATM   17  C5  UNL     1      74.230  67.009  93.526  1.00  0.00     0.242 C 
HETATM   18  O3  UNL     1      73.495  66.014  93.517  1.00  0.00    -0.271 OA
HETATM   19  N5  UNL     1      74.104  67.960  94.579  1.00  0.00    -0.357 N 
ATOM     20  H5  UNL     1      74.720  68.773  94.575  1.00  0.00     0.162 HD
BRANCH  19  21
HETATM   21  C6  UNL     1      73.166  67.829  95.632  1.00  0.00     0.148 C 
BRANCH  21  22
HETATM   22  C7  UNL     1      73.535  68.578  96.914  1.00  0.00     0.108 A 
HETATM   23  C8  UNL     1      74.916  68.196  97.293  1.00  0.00     0.100 A 
HETATM   24  C9  UNL     1      75.835  69.324  97.450  1.00  0.00     0.097 A 
HETATM   25  N6  UNL     1      77.190  68.992  97.819  1.00  0.00    -0.087 NA
HETATM   26  N7  UNL     1      75.502  70.538  97.283  1.00  0.00    -0.323 N 
HETATM   27  C10 UNL     1      74.171  70.928  96.917  1.00  0.00     0.189 A 
ATOM     28  H7  UNL     1      76.208  71.263  97.414  1.00  0.00     0.169 HD
HETATM   29  N8  UNL     1      73.805  72.290  96.731  1.00  0.00    -0.064 NA
HETATM   30  N9  UNL     1      73.335  69.975  96.768  1.00  0.00    -0.358 N 
ATOM     31  H9  UNL     1      72.390  70.257  96.507  1.00  0.00     0.162 HD
ENDBRANCH  21  22
ENDBRANCH  19  21
ENDBRANCH   1  17
TORSDOF 6
ENDMDL
MODEL 4
REMARK VINA RESULT: -7.318440033      1.196      1.751
REMARK  6 active torsions:
REMARK  status: ('A' for Active; 'I' for Inactive)
REMARK    1  A    between atoms: N1_1  and  C1_4 
REMARK       I    between atoms: N4_10  and  C3_12 
REMARK    2  A    between atoms: C3_12  and  O2_14 
REMARK    3  A    between atoms: O2_14  and  C4_15 
REMARK    4  A    between atoms: C4_15  and  C5_16 
REMARK       I    between atoms: C5_16  and  N5_18 
REMARK    5  A    between atoms: N5_18  and  C6_20 
REMARK    6  A    between atoms: C6_20  and  C7_21 
ROOT
HETATM    1  C4  UNL     1      74.887  67.975  92.663  1.00  0.00     0.283 C 
ENDROOT
BRANCH   1   2
HETATM    2  O2  UNL     1      76.141  67.882  92.060  1.00  0.00    -0.294 OA
BRANCH   2   3
HETATM    3  C3  UNL     1      76.383  67.153  90.929  1.00  0.00     0.367 C 
HETATM    4  N4  UNL     1      77.600  66.454  90.789  1.00  0.00    -0.281 N 
HETATM    5  C2  UNL     1      77.787  65.433  91.591  1.00  0.00     0.171 A 
ATOM      6  H4  UNL     1      78.298  66.728  90.098  1.00  0.00     0.173 HD
HETATM    7  N3  UNL     1      76.985  64.946  92.536  1.00  0.00    -0.277 N 
HETATM    8  S1  UNL     1      79.133  64.381  91.687  1.00  0.00    -0.015 SA
HETATM    9  N2  UNL     1      77.365  63.930  93.211  1.00  0.00    -0.278 N 
ATOM     10  H3  UNL     1      76.080  65.379  92.718  1.00  0.00     0.189 HD
HETATM   11  C1  UNL     1      78.555  63.386  92.948  1.00  0.00     0.160 A 
ATOM     12  H2  UNL     1      76.768  63.540  93.941  1.00  0.00     0.189 HD
HETATM   13  O1  UNL     1      75.543  67.095  90.013  1.00  0.00    -0.238 OA
BRANCH  11  14
HETATM   14  N1  UNL     1      79.113  62.348  93.531  1.00  0.00    -0.379 N 
ATOM     15  H12 UNL     1      78.699  61.472  93.849  1.00  0.00     0.158 HD
ATOM     16  H11 UNL     1      80.095  62.223  93.778  1.00  0.00     0.158 HD
ENDBRANCH  11  14
ENDBRANCH   2   3
ENDBRANCH   1   2
BRANCH   1  17
HETATM   17  C5  UNL     1      74.937  67.386  94.027  1.00  0.00     0.242 C 
HETATM   18  O3  UNL     1      73.965  66.742  94.439  1.00  0.00    -0.271 OA
HETATM   19  N5  UNL     1      76.075  67.546  94.868  1.00  0.00    -0.357 N 
ATOM     20  H5  UNL     1      76.871  68.077  94.513  1.00  0.00     0.162 HD
BRANCH  19  21
HETATM   21  C6  UNL     1      76.155  67.004  96.174  1.00  0.00     0.148 C 
BRANCH  21  22
HETATM   22  C7  UNL     1      75.564  67.889  97.273  1.00  0.00     0.108 A 
HETATM   23  C8  UNL     1      76.170  69.237  97.157  1.00  0.00     0.100 A 
HETATM   24  C9  UNL     1      75.201  70.326  97.019  1.00  0.00     0.097 A 
HETATM   25  N6  UNL     1      75.753  71.654  96.903  1.00  0.00    -0.087 NA
HETATM   26  N7  UNL     1      73.943  70.157  96.998  1.00  0.00    -0.323 N 
HETATM   27  C10 UNL     1      73.338  68.861  97.109  1.00  0.00     0.189 A 
ATOM     28  H7  UNL     1      73.340  70.974  96.899  1.00  0.00     0.169 HD
HETATM   29  N8  UNL     1      71.928  68.680  97.086  1.00  0.00    -0.064 NA
HETATM   30  N9  UNL     1      74.146  67.881  97.231  1.00  0.00    -0.358 N 
ATOM     31  H9  UNL     1      73.711  66.961  97.309  1.00  0.00     0.162 HD
ENDBRANCH  21  22
ENDBRANCH  19  21
ENDBRANCH   1  17
TORSDOF 6
ENDMDL
MODEL 5
REMARK VINA RESULT: -7.317355000      2.876      8.254
REMARK  6 active torsions:
REMARK  status: ('A' for Active; 'I' for Inactive)
REMARK    1  A    between atoms: N1_1  and  C1_4 
REMARK       I    between atoms: N4_10  and  C3_12 
REMARK    2  A    between atoms: C3_12  and  O2_14 
REMARK    3  A    between atoms: O2_14  and  C4_15 
REMARK    4  A    between atoms: C4_15  and  C5_16 
REMARK       I    between atoms: C5_16  and  N5_18 
REMARK    5  A    between atoms: N5_18  and  C6_20 
REMARK    6  A    between atoms: C6_20  and  C7_21 
ROOT
HETATM    1  C4  UNL     1      73.564  67.122  94.444  1.00  0.00     0.283 C 
ENDROOT
BRANCH   1   2
HETATM    2  O2  UNL     1      73.745  68.332  95.114  1.00  0.00    -0.294 OA
BRANCH   2   3
HETATM    3  C3  UNL     1      74.419  68.447  96.298  1.00  0.00     0.367 C 
HETATM    4  N4  UNL     1      75.113  69.637  96.600  1.00  0.00    -0.281 N 
HETATM    5  C2  UNL     1      74.382  70.706  96.811  1.00  0.00     0.171 A 
ATOM      6  H4  UNL     1      76.131  69.665  96.651  1.00  0.00     0.173 HD
HETATM    7  N3  UNL     1      73.058  70.840  96.784  1.00  0.00    -0.277 N 
HETATM    8  S1  UNL     1      74.896  72.293  97.196  1.00  0.00    -0.015 SA
HETATM    9  N2  UNL     1      72.544  71.986  97.023  1.00  0.00    -0.278 N 
ATOM     10  H3  UNL     1      72.462  70.039  96.576  1.00  0.00     0.189 HD
HETATM   11  C1  UNL     1      73.351  73.013  97.293  1.00  0.00     0.160 A 
ATOM     12  H2  UNL     1      71.531  72.113  97.008  1.00  0.00     0.189 HD
HETATM   13  O1  UNL     1      74.431  67.514  97.120  1.00  0.00    -0.238 OA
BRANCH  11  14
HETATM   14  N1  UNL     1      73.012  74.256  97.561  1.00  0.00    -0.379 N 
ATOM     15  H12 UNL     1      73.077  74.780  98.434  1.00  0.00     0.158 HD
ATOM     16  H11 UNL     1      72.610  74.945  96.926  1.00  0.00     0.158 HD
ENDBRANCH  11  14
ENDBRANCH   2   3
ENDBRANCH   1   2
BRANCH   1  17
HETATM   17  C5  UNL     1      74.528  67.018  93.318  1.00  0.00     0.242 C 
HETATM   18  O3  UNL     1      74.831  68.039  92.689  1.00  0.00    -0.271 OA
HETATM   19  N5  UNL     1      75.111  65.772  92.946  1.00  0.00    -0.357 N 
ATOM     20  H5  UNL     1      74.856  64.939  93.476  1.00  0.00     0.162 HD
BRANCH  19  21
HETATM   21  C6  UNL     1      76.029  65.635  91.876  1.00  0.00     0.148 C 
BRANCH  21  22
HETATM   22  C7  UNL     1      77.502  65.699  92.284  1.00  0.00     0.108 A 
HETATM   23  C8  UNL     1      77.756  64.623  93.270  1.00  0.00     0.100 A 
HETATM   24  C9  UNL     1      78.838  63.708  92.903  1.00  0.00     0.097 A 
HETATM   25  N6  UNL     1      79.115  62.646  93.839  1.00  0.00    -0.087 NA
HETATM   26  N7  UNL     1      79.517  63.806  91.834  1.00  0.00    -0.323 N 
HETATM   27  C10 UNL     1      79.287  64.841  90.868  1.00  0.00     0.189 A 
ATOM     28  H7  UNL     1      80.255  63.124  91.657  1.00  0.00     0.169 HD
HETATM   29  N8  UNL     1      80.052  64.945  89.674  1.00  0.00    -0.064 NA
HETATM   30  N9  UNL     1      78.351  65.662  91.148  1.00  0.00    -0.358 N 
ATOM     31  H9  UNL     1      78.190  66.396  90.457  1.00  0.00     0.162 HD
ENDBRANCH  21  22
ENDBRANCH  19  21
ENDBRANCH   1  17
TORSDOF 6
ENDMDL
