MODEL 1
REMARK VINA RESULT: -6.525808162      0.000      0.000
REMARK  8 active torsions:
REMARK  status: ('A' for Active; 'I' for Inactive)
REMARK    1  A    between atoms: N1_2  and  C3_4 
REMARK    2  A    between atoms: C6_13  and  N5_14 
REMARK    3  A    between atoms: N5_14  and  C7_16 
REMARK    4  A    between atoms: C7_16  and  O1_17 
REMARK    5  A    between atoms: C7_16  and  C8_21 
REMARK    6  A    between atoms: O1_17  and  N6_18 
REMARK       I    between atoms: C8_21  and  N7_23 
REMARK    7  A    between atoms: N7_23  and  N8_25 
REMARK    8  A    between atoms: C9_28  and  N9_29 
REMARK       I    between atoms: N9_29  and  C10_31 
ROOT
HETATM    1  C3  UNL     1      75.129  69.092  96.763  1.00  0.00     0.134 A 
HETATM    2  N2  UNL     1      76.247  69.370  97.491  1.00  0.00    -0.337 N 
ATOM      3  H2  UNL     1      76.224  70.107  98.197  1.00  0.00     0.168 HD
HETATM    4  C4  UNL     1      77.377  68.678  97.283  1.00  0.00     0.183 A 
HETATM    5  N3  UNL     1      77.465  67.700  96.368  1.00  0.00    -0.337 N 
ATOM      6  H3  UNL     1      78.339  67.193  96.233  1.00  0.00     0.168 HD
HETATM    7  C5  UNL     1      76.383  67.402  95.633  1.00  0.00     0.139 A 
HETATM    8  N4  UNL     1      76.399  66.443  94.696  1.00  0.00    -0.324 N 
ATOM      9  H4  UNL     1      77.267  65.927  94.550  1.00  0.00     0.169 HD
HETATM   10  C6  UNL     1      75.321  66.119  93.926  1.00  0.00     0.150 A 
HETATM   11  C9  UNL     1      74.164  66.817  94.129  1.00  0.00     0.154 A 
HETATM   12  N11 UNL     1      74.102  67.814  95.084  1.00  0.00    -0.333 N 
ATOM     13  H11 UNL     1      73.234  68.331  95.229  1.00  0.00     0.168 HD
HETATM   14  C11 UNL     1      75.178  68.095  95.812  1.00  0.00     0.123 A 
ENDROOT
BRANCH  10  15
HETATM   15  N5  UNL     1      75.385  65.206  93.055  1.00  0.00    -0.337 N 
ATOM     16  H5  UNL     1      74.596  64.560  93.044  1.00  0.00     0.164 HD
BRANCH  15  17
HETATM   17  C7  UNL     1      76.398  64.949  92.088  1.00  0.00     0.346 C 
BRANCH  17  18
HETATM   18  O1  UNL     1      77.566  64.613  92.788  1.00  0.00    -0.251 OA
BRANCH  18  19
HETATM   19  N6  UNL     1      77.688  63.313  93.046  1.00  0.00    -0.308 N 
ATOM     20  H62 UNL     1      76.965  62.787  93.537  1.00  0.00     0.184 HD
ATOM     21  H61 UNL     1      78.559  62.903  92.709  1.00  0.00     0.184 HD
ENDBRANCH  18  19
ENDBRANCH  17  18
BRANCH  17  22
HETATM   22  C8  UNL     1      76.694  66.088  91.210  1.00  0.00     0.286 C 
HETATM   23  O2  UNL     1      75.758  66.661  90.606  1.00  0.00    -0.267 OA
HETATM   24  N7  UNL     1      78.016  66.543  91.042  1.00  0.00    -0.273 N 
ATOM     25  H7  UNL     1      78.766  66.066  91.542  1.00  0.00     0.189 HD
BRANCH  24  26
HETATM   26  N8  UNL     1      78.338  67.627  90.213  1.00  0.00    -0.342 N 
ATOM     27  H82 UNL     1      79.049  68.281  90.542  1.00  0.00     0.176 HD
ATOM     28  H81 UNL     1      77.891  67.776  89.309  1.00  0.00     0.176 HD
ENDBRANCH  24  26
ENDBRANCH  17  22
ENDBRANCH  15  17
ENDBRANCH  10  15
BRANCH  11  29
HETATM   29  N9  UNL     1      73.089  66.613  93.478  1.00  0.00    -0.294 N 
HETATM   30  C10 UNL     1      71.886  66.196  94.031  1.00  0.00     0.334 C 
HETATM   31  N10 UNL     1      71.525  64.809  94.145  1.00  0.00    -0.040 NA
HETATM   32  O3  UNL     1      71.051  67.073  94.461  1.00  0.00    -0.251 OA
ATOM     33  H9  UNL     1      73.113  66.767  92.470  1.00  0.00     0.172 HD
ENDBRANCH  11  29
BRANCH   1  34
HETATM   34  N1  UNL     1      73.917  69.789  96.986  1.00  0.00    -0.374 N 
HETATM   35  C1  UNL     1      73.842  71.218  96.760  1.00  0.00     0.150 C 
HETATM   36  C2  UNL     1      72.727  69.104  97.441  1.00  0.00     0.150 C 
ENDBRANCH   1  34
TORSDOF 8
ENDMDL
MODEL 2
REMARK VINA RESULT: -6.442849261      2.239      6.334
REMARK  8 active torsions:
REMARK  status: ('A' for Active; 'I' for Inactive)
REMARK    1  A    between atoms: N1_2  and  C3_4 
REMARK    2  A    between atoms: C6_13  and  N5_14 
REMARK    3  A    between atoms: N5_14  and  C7_16 
REMARK    4  A    between atoms: C7_16  and  O1_17 
REMARK    5  A    between atoms: C7_16  and  C8_21 
REMARK    6  A    between atoms: O1_17  and  N6_18 
REMARK       I    between atoms: C8_21  and  N7_23 
REMARK    7  A    between atoms: N7_23  and  N8_25 
REMARK    8  A    between atoms: C9_28  and  N9_29 
REMARK       I    between atoms: N9_29  and  C10_31 
ROOT
HETATM    1  C3  UNL     1      77.654  65.754  92.196  1.00  0.00     0.134 A 
HETATM    2  N2  UNL     1      77.465  65.753  90.846  1.00  0.00    -0.337 N 
ATOM      3  H2  UNL     1      78.126  65.266  90.240  1.00  0.00     0.168 HD
HETATM    4  C4  UNL     1      76.412  66.391  90.312  1.00  0.00     0.183 A 
HETATM    5  N3  UNL     1      75.513  67.049  91.060  1.00  0.00    -0.337 N 
ATOM      6  H3  UNL     1      74.724  67.524  90.624  1.00  0.00     0.168 HD
HETATM    7  C5  UNL     1      75.670  67.070  92.392  1.00  0.00     0.139 A 
HETATM    8  N4  UNL     1      74.816  67.713  93.201  1.00  0.00    -0.324 N 
ATOM      9  H4  UNL     1      74.021  68.194  92.778  1.00  0.00     0.169 HD
HETATM   10  C6  UNL     1      74.948  67.762  94.557  1.00  0.00     0.150 A 
HETATM   11  C9  UNL     1      76.017  67.116  95.113  1.00  0.00     0.154 A 
HETATM   12  N11 UNL     1      76.923  66.440  94.318  1.00  0.00    -0.333 N 
ATOM     13  H11 UNL     1      77.718  65.961  94.740  1.00  0.00     0.168 HD
HETATM   14  C11 UNL     1      76.753  66.420  92.999  1.00  0.00     0.123 A 
ENDROOT
BRANCH  10  15
HETATM   15  N5  UNL     1      74.116  68.380  95.278  1.00  0.00    -0.337 N 
ATOM     16  H5  UNL     1      74.393  69.324  95.550  1.00  0.00     0.164 HD
BRANCH  15  17
HETATM   17  C7  UNL     1      72.849  67.954  95.766  1.00  0.00     0.346 C 
BRANCH  17  18
HETATM   18  O1  UNL     1      73.063  67.362  97.020  1.00  0.00    -0.251 OA
BRANCH  18  19
HETATM   19  N6  UNL     1      72.761  68.150  98.048  1.00  0.00    -0.308 N 
ATOM     20  H62 UNL     1      71.830  68.162  98.467  1.00  0.00     0.184 HD
ATOM     21  H61 UNL     1      73.537  68.728  98.371  1.00  0.00     0.184 HD
ENDBRANCH  18  19
ENDBRANCH  17  18
BRANCH  17  22
HETATM   22  C8  UNL     1      72.170  66.978  94.903  1.00  0.00     0.286 C 
HETATM   23  O2  UNL     1      72.808  65.988  94.471  1.00  0.00    -0.267 OA
HETATM   24  N7  UNL     1      70.816  67.141  94.557  1.00  0.00    -0.273 N 
ATOM     25  H7  UNL     1      70.311  67.951  94.917  1.00  0.00     0.189 HD
BRANCH  24  26
HETATM   26  N8  UNL     1      70.134  66.231  93.736  1.00  0.00    -0.342 N 
ATOM     27  H82 UNL     1      70.691  65.638  93.119  1.00  0.00     0.176 HD
ATOM     28  H81 UNL     1      69.118  66.147  93.738  1.00  0.00     0.176 HD
ENDBRANCH  24  26
ENDBRANCH  17  22
ENDBRANCH  15  17
ENDBRANCH  10  15
BRANCH  11  29
HETATM   29  N9  UNL     1      76.255  67.085  96.364  1.00  0.00    -0.294 N 
HETATM   30  C10 UNL     1      76.572  68.189  97.145  1.00  0.00     0.334 C 
HETATM   31  N10 UNL     1      77.926  68.611  97.374  1.00  0.00    -0.040 NA
HETATM   32  O3  UNL     1      75.628  68.867  97.692  1.00  0.00    -0.251 OA
ATOM     33  H9  UNL     1      76.210  66.179  96.828  1.00  0.00     0.172 HD
ENDBRANCH  11  29
BRANCH   1  34
HETATM   34  N1  UNL     1      78.740  65.063  92.784  1.00  0.00    -0.374 N 
HETATM   35  C1  UNL     1      78.549  63.742  93.346  1.00  0.00     0.150 C 
HETATM   36  C2  UNL     1      80.062  65.648  92.842  1.00  0.00     0.150 C 
ENDBRANCH   1  34
TORSDOF 8
ENDMDL
MODEL 3
REMARK VINA RESULT: -6.394450298      0.872      2.011
REMARK  8 active torsions:
REMARK  status: ('A' for Active; 'I' for Inactive)
REMARK    1  A    between atoms: N1_2  and  C3_4 
REMARK    2  A    between atoms: C6_13  and  N5_14 
REMARK    3  A    between atoms: N5_14  and  C7_16 
REMARK    4  A    between atoms: C7_16  and  O1_17 
REMARK    5  A    between atoms: C7_16  and  C8_21 
REMARK    6  A    between atoms: O1_17  and  N6_18 
REMARK       I    between atoms: C8_21  and  N7_23 
REMARK    7  A    between atoms: N7_23  and  N8_25 
REMARK    8  A    between atoms: C9_28  and  N9_29 
REMARK       I    between atoms: N9_29  and  C10_31 
ROOT
HETATM    1  C3  UNL     1      74.954  69.267  96.876  1.00  0.00     0.134 A 
HETATM    2  N2  UNL     1      76.008  69.637  97.656  1.00  0.00    -0.337 N 
ATOM      3  H2  UNL     1      75.893  70.375  98.351  1.00  0.00     0.168 HD
HETATM    4  C4  UNL     1      77.198  69.033  97.513  1.00  0.00     0.183 A 
HETATM    5  N3  UNL     1      77.407  68.058  96.615  1.00  0.00    -0.337 N 
ATOM      6  H3  UNL     1      78.324  67.619  96.530  1.00  0.00     0.168 HD
HETATM    7  C5  UNL     1      76.391  67.671  95.830  1.00  0.00     0.139 A 
HETATM    8  N4  UNL     1      76.529  66.709  94.906  1.00  0.00    -0.324 N 
ATOM      9  H4  UNL     1      77.441  66.261  94.810  1.00  0.00     0.169 HD
HETATM   10  C6  UNL     1      75.520  66.296  94.087  1.00  0.00     0.150 A 
HETATM   11  C9  UNL     1      74.304  66.903  94.223  1.00  0.00     0.154 A 
HETATM   12  N11 UNL     1      74.116  67.900  95.162  1.00  0.00    -0.333 N 
ATOM     13  H11 UNL     1      73.204  68.349  95.258  1.00  0.00     0.168 HD
HETATM   14  C11 UNL     1      75.129  68.269  95.940  1.00  0.00     0.123 A 
ENDROOT
BRANCH  10  15
HETATM   15  N5  UNL     1      75.699  65.385  93.231  1.00  0.00    -0.337 N 
ATOM     16  H5  UNL     1      74.980  64.660  93.210  1.00  0.00     0.164 HD
BRANCH  15  17
HETATM   17  C7  UNL     1      76.756  65.220  92.292  1.00  0.00     0.346 C 
BRANCH  17  18
HETATM   18  O1  UNL     1      76.205  65.384  91.012  1.00  0.00    -0.251 OA
BRANCH  18  19
HETATM   19  N6  UNL     1      76.338  66.613  90.519  1.00  0.00    -0.308 N 
ATOM     20  H62 UNL     1      75.575  67.090  90.039  1.00  0.00     0.184 HD
ATOM     21  H61 UNL     1      77.261  67.022  90.667  1.00  0.00     0.184 HD
ENDBRANCH  18  19
ENDBRANCH  17  18
BRANCH  17  22
HETATM   22  C8  UNL     1      77.412  63.907  92.349  1.00  0.00     0.286 C 
HETATM   23  O2  UNL     1      77.105  63.027  91.511  1.00  0.00    -0.267 OA
HETATM   24  N7  UNL     1      78.380  63.628  93.332  1.00  0.00    -0.273 N 
ATOM     25  H7  UNL     1      78.619  64.355  94.007  1.00  0.00     0.189 HD
BRANCH  24  26
HETATM   26  N8  UNL     1      79.027  62.387  93.419  1.00  0.00    -0.342 N 
ATOM     27  H82 UNL     1      79.976  62.371  93.796  1.00  0.00     0.176 HD
ATOM     28  H81 UNL     1      78.585  61.517  93.122  1.00  0.00     0.176 HD
ENDBRANCH  24  26
ENDBRANCH  17  22
ENDBRANCH  15  17
ENDBRANCH  10  15
BRANCH  11  29
HETATM   29  N9  UNL     1      73.282  66.611  93.521  1.00  0.00    -0.294 N 
HETATM   30  C10 UNL     1      72.073  66.148  94.023  1.00  0.00     0.334 C 
HETATM   31  N10 UNL     1      71.785  64.748  94.175  1.00  0.00    -0.040 NA
HETATM   32  O3  UNL     1      71.167  66.991  94.366  1.00  0.00    -0.251 OA
ATOM     33  H9  UNL     1      73.358  66.727  92.511  1.00  0.00     0.172 HD
ENDBRANCH  11  29
BRANCH   1  34
HETATM   34  N1  UNL     1      73.682  69.869  97.029  1.00  0.00    -0.374 N 
HETATM   35  C1  UNL     1      73.514  71.291  96.808  1.00  0.00     0.150 C 
HETATM   36  C2  UNL     1      72.522  69.093  97.407  1.00  0.00     0.150 C 
ENDBRANCH   1  34
TORSDOF 8
ENDMDL
MODEL 4
REMARK VINA RESULT: -6.184127362      2.699      6.691
REMARK  8 active torsions:
REMARK  status: ('A' for Active; 'I' for Inactive)
REMARK    1  A    between atoms: N1_2  and  C3_4 
REMARK    2  A    between atoms: C6_13  and  N5_14 
REMARK    3  A    between atoms: N5_14  and  C7_16 
REMARK    4  A    between atoms: C7_16  and  O1_17 
REMARK    5  A    between atoms: C7_16  and  C8_21 
REMARK    6  A    between atoms: O1_17  and  N6_18 
REMARK       I    between atoms: C8_21  and  N7_23 
REMARK    7  A    between atoms: N7_23  and  N8_25 
REMARK    8  A    between atoms: C9_28  and  N9_29 
REMARK       I    between atoms: N9_29  and  C10_31 
ROOT
HETATM    1  C3  UNL     1      77.108  65.610  92.238  1.00  0.00     0.134 A 
HETATM    2  N2  UNL     1      76.818  65.657  90.908  1.00  0.00    -0.337 N 
ATOM      3  H2  UNL     1      77.270  65.006  90.265  1.00  0.00     0.168 HD
HETATM    4  C4  UNL     1      75.940  66.557  90.440  1.00  0.00     0.183 A 
HETATM    5  N3  UNL     1      75.317  67.438  91.239  1.00  0.00    -0.337 N 
ATOM      6  H3  UNL     1      74.655  68.110  90.853  1.00  0.00     0.168 HD
HETATM    7  C5  UNL     1      75.581  67.419  92.554  1.00  0.00     0.139 A 
HETATM    8  N4  UNL     1      75.003  68.275  93.409  1.00  0.00    -0.324 N 
ATOM      9  H4  UNL     1      74.338  68.953  93.037  1.00  0.00     0.169 HD
HETATM   10  C6  UNL     1      75.253  68.289  94.750  1.00  0.00     0.150 A 
HETATM   11  C9  UNL     1      76.146  67.377  95.238  1.00  0.00     0.154 A 
HETATM   12  N11 UNL     1      76.766  66.476  94.393  1.00  0.00    -0.333 N 
ATOM     13  H11 UNL     1      77.432  65.799  94.765  1.00  0.00     0.168 HD
HETATM   14  C11 UNL     1      76.491  66.499  93.092  1.00  0.00     0.123 A 
ENDROOT
BRANCH  10  15
HETATM   15  N5  UNL     1      74.682  69.114  95.517  1.00  0.00    -0.337 N 
ATOM     16  H5  UNL     1      75.278  69.863  95.871  1.00  0.00     0.164 HD
BRANCH  15  17
HETATM   17  C7  UNL     1      73.330  69.152  95.959  1.00  0.00     0.346 C 
BRANCH  17  18
HETATM   18  O1  UNL     1      73.195  70.273  96.792  1.00  0.00    -0.251 OA
BRANCH  18  19
HETATM   19  N6  UNL     1      74.101  71.222  96.572  1.00  0.00    -0.308 N 
ATOM     20  H62 UNL     1      74.919  71.340  97.170  1.00  0.00     0.184 HD
ATOM     21  H61 UNL     1      73.901  71.808  95.761  1.00  0.00     0.184 HD
ENDBRANCH  18  19
ENDBRANCH  17  18
BRANCH  17  22
HETATM   22  C8  UNL     1      72.909  67.962  96.711  1.00  0.00     0.286 C 
HETATM   23  O2  UNL     1      72.251  67.067  96.132  1.00  0.00    -0.267 OA
HETATM   24  N7  UNL     1      73.238  67.818  98.072  1.00  0.00    -0.273 N 
ATOM     25  H7  UNL     1      73.774  68.555  98.529  1.00  0.00     0.189 HD
BRANCH  24  26
HETATM   26  N8  UNL     1      72.854  66.697  98.824  1.00  0.00    -0.342 N 
ATOM     27  H82 UNL     1      73.437  65.862  98.762  1.00  0.00     0.176 HD
ATOM     28  H81 UNL     1      72.025  66.695  99.417  1.00  0.00     0.176 HD
ENDBRANCH  24  26
ENDBRANCH  17  22
ENDBRANCH  15  17
ENDBRANCH  10  15
BRANCH  11  29
HETATM   29  N9  UNL     1      76.467  67.286  96.467  1.00  0.00    -0.294 N 
HETATM   30  C10 UNL     1      76.821  68.353  97.282  1.00  0.00     0.334 C 
HETATM   31  N10 UNL     1      78.182  68.784  97.444  1.00  0.00    -0.040 NA
HETATM   32  O3  UNL     1      75.907  68.987  97.925  1.00  0.00    -0.251 OA
ATOM     33  H9  UNL     1      76.464  66.356  96.886  1.00  0.00     0.172 HD
ENDBRANCH  11  29
BRANCH   1  34
HETATM   34  N1  UNL     1      78.009  64.650  92.759  1.00  0.00    -0.374 N 
HETATM   35  C1  UNL     1      77.531  63.346  93.171  1.00  0.00     0.150 C 
HETATM   36  C2  UNL     1      79.420  64.936  92.893  1.00  0.00     0.150 C 
ENDBRANCH   1  34
TORSDOF 8
ENDMDL
MODEL 5
REMARK VINA RESULT: -5.258266100      2.256      6.588
REMARK  8 active torsions:
REMARK  status: ('A' for Active; 'I' for Inactive)
REMARK    1  A    between atoms: N1_2  and  C3_4 
REMARK    2  A    between atoms: C6_13  and  N5_14 
REMARK    3  A    between atoms: N5_14  and  C7_16 
REMARK    4  A    between atoms: C7_16  and  O1_17 
REMARK    5  A    between atoms: C7_16  and  C8_21 
REMARK    6  A    between atoms: O1_17  and  N6_18 
REMARK       I    between atoms: C8_21  and  N7_23 
REMARK    7  A    between atoms: N7_23  and  N8_25 
REMARK    8  A    between atoms: C9_28  and  N9_29 
REMARK       I    between atoms: N9_29  and  C10_31 
ROOT
HETATM    1  C3  UNL     1      78.045  64.694  92.006  1.00  0.00     0.134 A 
HETATM    2  N2  UNL     1      77.750  64.627  90.677  1.00  0.00    -0.337 N 
ATOM      3  H2  UNL     1      78.273  63.994  90.070  1.00  0.00     0.168 HD
HETATM    4  C4  UNL     1      76.774  65.393  90.164  1.00  0.00     0.183 A 
HETATM    5  N3  UNL     1      76.057  66.244  90.914  1.00  0.00    -0.337 N 
ATOM      6  H3  UNL     1      75.322  66.812  90.494  1.00  0.00     0.168 HD
HETATM    7  C5  UNL     1      76.323  66.334  92.225  1.00  0.00     0.139 A 
HETATM    8  N4  UNL     1      75.652  67.167  93.033  1.00  0.00    -0.324 N 
ATOM      9  H4  UNL     1      74.914  67.742  92.627  1.00  0.00     0.169 HD
HETATM   10  C6  UNL     1      75.900  67.290  94.369  1.00  0.00     0.150 A 
HETATM   11  C9  UNL     1      76.892  66.516  94.903  1.00  0.00     0.154 A 
HETATM   12  N11 UNL     1      77.610  65.643  94.107  1.00  0.00    -0.333 N 
ATOM     13  H11 UNL     1      78.349  65.068  94.514  1.00  0.00     0.168 HD
HETATM   14  C11 UNL     1      77.332  65.556  92.810  1.00  0.00     0.123 A 
ENDROOT
BRANCH  10  15
HETATM   15  N5  UNL     1      75.241  68.089  95.090  1.00  0.00    -0.337 N 
ATOM     16  H5  UNL     1      75.732  68.943  95.355  1.00  0.00     0.164 HD
BRANCH  15  17
HETATM   17  C7  UNL     1      73.912  67.973  95.587  1.00  0.00     0.346 C 
BRANCH  17  18
HETATM   18  O1  UNL     1      73.070  67.779  94.481  1.00  0.00    -0.251 OA
BRANCH  18  19
HETATM   19  N6  UNL     1      72.128  66.858  94.673  1.00  0.00    -0.308 N 
ATOM     20  H62 UNL     1      72.355  65.885  94.877  1.00  0.00     0.184 HD
ATOM     21  H61 UNL     1      71.176  67.216  94.597  1.00  0.00     0.184 HD
ENDBRANCH  18  19
ENDBRANCH  17  18
BRANCH  17  22
HETATM   22  C8  UNL     1      73.441  69.151  96.327  1.00  0.00     0.286 C 
HETATM   23  O2  UNL     1      72.479  69.037  97.121  1.00  0.00    -0.267 OA
HETATM   24  N7  UNL     1      74.058  70.404  96.153  1.00  0.00    -0.273 N 
ATOM     25  H7  UNL     1      74.841  70.480  95.503  1.00  0.00     0.189 HD
BRANCH  24  26
HETATM   26  N8  UNL     1      73.637  71.552  96.841  1.00  0.00    -0.342 N 
ATOM     27  H82 UNL     1      74.356  72.192  97.181  1.00  0.00     0.176 HD
ATOM     28  H81 UNL     1      72.653  71.759  97.007  1.00  0.00     0.176 HD
ENDBRANCH  24  26
ENDBRANCH  17  22
ENDBRANCH  15  17
ENDBRANCH  10  15
BRANCH  11  29
HETATM   29  N9  UNL     1      77.223  66.536  96.133  1.00  0.00    -0.294 N 
HETATM   30  C10 UNL     1      76.834  67.503  97.050  1.00  0.00     0.334 C 
HETATM   31  N10 UNL     1      77.614  68.683  97.306  1.00  0.00    -0.040 NA
HETATM   32  O3  UNL     1      75.739  67.350  97.704  1.00  0.00    -0.251 OA
ATOM     33  H9  UNL     1      77.820  65.782  96.470  1.00  0.00     0.172 HD
ENDBRANCH  11  29
BRANCH   1  34
HETATM   34  N1  UNL     1      79.050  63.875  92.574  1.00  0.00    -0.374 N 
HETATM   35  C1  UNL     1      80.447  64.119  92.280  1.00  0.00     0.150 C 
HETATM   36  C2  UNL     1      78.718  62.780  93.459  1.00  0.00     0.150 C 
ENDBRANCH   1  34
TORSDOF 8
ENDMDL
