MODEL 1
REMARK VINA RESULT: -6.306531898      0.000      0.000
REMARK  8 active torsions:
REMARK  status: ('A' for Active; 'I' for Inactive)
REMARK    1  A    between atoms: N1_1  and  C1_4 
REMARK    2  A    between atoms: C3_10  and  N4_11 
REMARK    3  A    between atoms: N5_14  and  C6_15 
REMARK    4  A    between atoms: C7_18  and  N7_19 
REMARK    5  A    between atoms: C8_24  and  N9_25 
REMARK    6  A    between atoms: N9_25  and  C9_27 
REMARK    7  A    between atoms: C9_27  and  C10_28 
REMARK    8  A    between atoms: C10_28  and  O1_29 
ROOT
HETATM    1  N4  UNL     1      77.517  66.633  91.340  1.00  0.00    -0.214 N 
HETATM    2  C4  UNL     1      77.404  65.630  92.378  1.00  0.00     0.161 C 
HETATM    3  C5  UNL     1      76.637  66.150  93.579  1.00  0.00     0.161 C 
HETATM    4  N5  UNL     1      75.429  66.798  93.149  1.00  0.00    -0.214 N 
HETATM    5  C11 UNL     1      75.265  67.200  91.759  1.00  0.00     0.161 C 
HETATM    6  C12 UNL     1      76.637  67.779  91.365  1.00  0.00     0.161 C 
ENDROOT
BRANCH   4   7
HETATM    7  C6  UNL     1      74.379  67.071  94.056  1.00  0.00     0.709 A 
HETATM    8  N6  UNL     1      73.128  66.639  93.781  1.00  0.00    -0.022 N 
HETATM    9  C7  UNL     1      72.104  66.879  94.615  1.00  0.00     0.705 A 
ATOM     10  H6  UNL     1      72.958  66.119  92.920  1.00  0.00     0.203 HD
HETATM   11  N8  UNL     1      72.355  67.573  95.754  1.00  0.00    -0.022 N 
HETATM   12  C8  UNL     1      73.616  68.006  96.026  1.00  0.00     0.707 A 
ATOM     13  H8  UNL     1      71.598  67.770  96.408  1.00  0.00     0.203 HD
HETATM   14  N10 UNL     1      74.627  67.759  95.183  1.00  0.00    -0.021 N 
ATOM     15  H10 UNL     1      75.569  68.087  95.394  1.00  0.00     0.203 HD
BRANCH   9  16
HETATM   16  N7  UNL     1      70.906  66.467  94.366  1.00  0.00    -0.234 N 
ATOM     17  H72 UNL     1      70.644  66.216  93.413  1.00  0.00     0.174 HD
ATOM     18  H71 UNL     1      70.199  66.385  95.096  1.00  0.00     0.174 HD
ENDBRANCH   9  16
BRANCH  12  19
HETATM   19  N9  UNL     1      73.850  68.665  97.118  1.00  0.00    -0.223 N 
ATOM     20  H9  UNL     1      73.576  68.224  97.996  1.00  0.00     0.177 HD
BRANCH  19  21
HETATM   21  C9  UNL     1      74.458  69.959  97.198  1.00  0.00     0.164 C 
BRANCH  21  22
HETATM   22  C10 UNL     1      75.903  69.852  97.547  1.00  0.00     0.184 C 
BRANCH  22  23
HETATM   23  O1  UNL     1      76.289  68.557  97.817  1.00  0.00    -0.399 OA
ATOM     24  H1  UNL     1      77.187  68.499  98.122  1.00  0.00     0.209 HD
ENDBRANCH  22  23
ENDBRANCH  21  22
ENDBRANCH  19  21
ENDBRANCH  12  19
ENDBRANCH   4   7
BRANCH   1  25
HETATM   25  C3  UNL     1      78.472  66.519  90.304  1.00  0.00     0.695 A 
HETATM   26  N3  UNL     1      79.017  65.301  90.048  1.00  0.00    -0.187 N 
HETATM   27  C2  UNL     1      79.922  65.159  89.066  1.00  0.00     0.215 A 
ATOM     28  H3  UNL     1      78.737  64.492  90.602  1.00  0.00     0.185 HD
HETATM   29  N2  UNL     1      80.284  66.231  88.336  1.00  0.00    -0.187 N 
HETATM   30  C1  UNL     1      79.737  67.447  88.593  1.00  0.00     0.691 A 
ATOM     31  H2  UNL     1      80.970  66.129  87.589  1.00  0.00     0.185 HD
HETATM   32  N11 UNL     1      78.839  67.597  89.568  1.00  0.00    -0.022 N 
ATOM     33  H11 UNL     1      78.432  68.513  89.757  1.00  0.00     0.203 HD
BRANCH  30  34
HETATM   34  N1  UNL     1      80.141  68.407  87.840  1.00  0.00    -0.234 N 
ATOM     35  H12 UNL     1      80.708  68.271  87.003  1.00  0.00     0.174 HD
ATOM     36  H11 UNL     1      79.862  69.344  88.133  1.00  0.00     0.174 HD
ENDBRANCH  30  34
ENDBRANCH   1  25
TORSDOF 8
ENDMDL
MODEL 2
REMARK VINA RESULT: -6.205109266      2.952      4.056
REMARK  8 active torsions:
REMARK  status: ('A' for Active; 'I' for Inactive)
REMARK    1  A    between atoms: N1_1  and  C1_4 
REMARK    2  A    between atoms: C3_10  and  N4_11 
REMARK    3  A    between atoms: N5_14  and  C6_15 
REMARK    4  A    between atoms: C7_18  and  N7_19 
REMARK    5  A    between atoms: C8_24  and  N9_25 
REMARK    6  A    between atoms: N9_25  and  C9_27 
REMARK    7  A    between atoms: C9_27  and  C10_28 
REMARK    8  A    between atoms: C10_28  and  O1_29 
ROOT
HETATM    1  N4  UNL     1      77.278  65.631  93.748  1.00  0.00    -0.214 N 
HETATM    2  C4  UNL     1      76.382  66.450  92.960  1.00  0.00     0.161 C 
HETATM    3  C5  UNL     1      75.177  66.898  93.765  1.00  0.00     0.161 C 
HETATM    4  N5  UNL     1      75.599  67.413  95.038  1.00  0.00    -0.214 N 
HETATM    5  C11 UNL     1      76.936  67.128  95.540  1.00  0.00     0.161 C 
HETATM    6  C12 UNL     1      77.167  65.646  95.189  1.00  0.00     0.161 C 
ENDROOT
BRANCH   4   7
HETATM    7  C6  UNL     1      74.733  68.195  95.837  1.00  0.00     0.709 A 
HETATM    8  N6  UNL     1      73.910  67.589  96.722  1.00  0.00    -0.022 N 
HETATM    9  C7  UNL     1      73.073  68.295  97.498  1.00  0.00     0.705 A 
ATOM     10  H6  UNL     1      73.926  66.572  96.802  1.00  0.00     0.203 HD
HETATM   11  N8  UNL     1      73.071  69.646  97.374  1.00  0.00    -0.022 N 
HETATM   12  C8  UNL     1      73.901  70.251  96.481  1.00  0.00     0.707 A 
ATOM     13  H8  UNL     1      72.446  70.210  97.950  1.00  0.00     0.203 HD
HETATM   14  N10 UNL     1      74.730  69.533  95.714  1.00  0.00    -0.021 N 
ATOM     15  H10 UNL     1      75.350  69.993  95.047  1.00  0.00     0.203 HD
BRANCH   9  16
HETATM   16  N7  UNL     1      72.286  67.728  98.350  1.00  0.00    -0.234 N 
ATOM     17  H72 UNL     1      72.662  67.371  99.228  1.00  0.00     0.174 HD
ATOM     18  H71 UNL     1      71.287  67.619  98.176  1.00  0.00     0.174 HD
ENDBRANCH   9  16
BRANCH  12  19
HETATM   19  N9  UNL     1      73.897  71.543  96.371  1.00  0.00    -0.223 N 
ATOM     20  H9  UNL     1      74.673  71.970  95.865  1.00  0.00     0.177 HD
BRANCH  19  21
HETATM   21  C9  UNL     1      72.897  72.423  96.898  1.00  0.00     0.164 C 
BRANCH  21  22
HETATM   22  C10 UNL     1      73.514  73.647  97.482  1.00  0.00     0.184 C 
BRANCH  22  23
HETATM   23  O1  UNL     1      72.580  74.599  97.829  1.00  0.00    -0.399 OA
ATOM     24  H1  UNL     1      72.816  75.469  97.529  1.00  0.00     0.209 HD
ENDBRANCH  22  23
ENDBRANCH  21  22
ENDBRANCH  19  21
ENDBRANCH  12  19
ENDBRANCH   4   7
BRANCH   1  25
HETATM   25  C3  UNL     1      78.257  64.813  93.140  1.00  0.00     0.695 A 
HETATM   26  N3  UNL     1      78.969  65.310  92.096  1.00  0.00    -0.187 N 
HETATM   27  C2  UNL     1      79.911  64.560  91.502  1.00  0.00     0.215 A 
ATOM     28  H3  UNL     1      78.789  66.256  91.762  1.00  0.00     0.185 HD
HETATM   29  N2  UNL     1      80.146  63.312  91.949  1.00  0.00    -0.187 N 
HETATM   30  C1  UNL     1      79.435  62.817  92.994  1.00  0.00     0.691 A 
ATOM     31  H2  UNL     1      80.861  62.738  91.502  1.00  0.00     0.185 HD
HETATM   32  N11 UNL     1      78.496  63.555  93.589  1.00  0.00    -0.022 N 
ATOM     33  H11 UNL     1      77.964  63.177  94.373  1.00  0.00     0.203 HD
BRANCH  30  34
HETATM   34  N1  UNL     1      79.735  61.619  93.352  1.00  0.00    -0.234 N 
ATOM     35  H12 UNL     1      80.334  60.999  92.808  1.00  0.00     0.174 HD
ATOM     36  H11 UNL     1      79.329  61.308  94.235  1.00  0.00     0.174 HD
ENDBRANCH  30  34
ENDBRANCH   1  25
TORSDOF 8
ENDMDL
MODEL 3
REMARK VINA RESULT: -5.878022722      2.588      3.461
REMARK  8 active torsions:
REMARK  status: ('A' for Active; 'I' for Inactive)
REMARK    1  A    between atoms: N1_1  and  C1_4 
REMARK    2  A    between atoms: C3_10  and  N4_11 
REMARK    3  A    between atoms: N5_14  and  C6_15 
REMARK    4  A    between atoms: C7_18  and  N7_19 
REMARK    5  A    between atoms: C8_24  and  N9_25 
REMARK    6  A    between atoms: N9_25  and  C9_27 
REMARK    7  A    between atoms: C9_27  and  C10_28 
REMARK    8  A    between atoms: C10_28  and  O1_29 
ROOT
HETATM    1  N4  UNL     1      77.133  65.937  93.370  1.00  0.00    -0.214 N 
HETATM    2  C4  UNL     1      76.202  66.799  92.675  1.00  0.00     0.161 C 
HETATM    3  C5  UNL     1      75.025  67.180  93.555  1.00  0.00     0.161 C 
HETATM    4  N5  UNL     1      75.493  67.610  94.843  1.00  0.00    -0.214 N 
HETATM    5  C11 UNL     1      76.851  67.305  95.273  1.00  0.00     0.161 C 
HETATM    6  C12 UNL     1      77.078  65.852  94.812  1.00  0.00     0.161 C 
ENDROOT
BRANCH   4   7
HETATM    7  C6  UNL     1      74.654  68.327  95.727  1.00  0.00     0.709 A 
HETATM    8  N6  UNL     1      73.874  67.654  96.602  1.00  0.00    -0.022 N 
HETATM    9  C7  UNL     1      73.062  68.297  97.457  1.00  0.00     0.705 A 
ATOM     10  H6  UNL     1      73.902  66.635  96.614  1.00  0.00     0.203 HD
HETATM   11  N8  UNL     1      73.042  69.654  97.422  1.00  0.00    -0.022 N 
HETATM   12  C8  UNL     1      73.829  70.327  96.539  1.00  0.00     0.707 A 
ATOM     13  H8  UNL     1      72.437  70.171  98.060  1.00  0.00     0.203 HD
HETATM   14  N10 UNL     1      74.633  69.670  95.693  1.00  0.00    -0.021 N 
ATOM     15  H10 UNL     1      75.220  70.181  95.033  1.00  0.00     0.203 HD
BRANCH   9  16
HETATM   16  N7  UNL     1      72.317  67.666  98.300  1.00  0.00    -0.234 N 
ATOM     17  H72 UNL     1      71.341  67.941  98.420  1.00  0.00     0.174 HD
ATOM     18  H71 UNL     1      72.670  66.894  98.864  1.00  0.00     0.174 HD
ENDBRANCH   9  16
BRANCH  12  19
HETATM   19  N9  UNL     1      73.808  71.623  96.514  1.00  0.00    -0.223 N 
ATOM     20  H9  UNL     1      74.566  72.092  96.017  1.00  0.00     0.177 HD
BRANCH  19  21
HETATM   21  C9  UNL     1      72.813  72.453  97.125  1.00  0.00     0.164 C 
BRANCH  21  22
HETATM   22  C10 UNL     1      73.386  73.768  97.527  1.00  0.00     0.184 C 
BRANCH  22  23
HETATM   23  O1  UNL     1      72.418  74.689  97.865  1.00  0.00    -0.399 OA
ATOM     24  H1  UNL     1      72.709  75.586  97.748  1.00  0.00     0.209 HD
ENDBRANCH  22  23
ENDBRANCH  21  22
ENDBRANCH  19  21
ENDBRANCH  12  19
ENDBRANCH   4   7
BRANCH   1  25
HETATM   25  C3  UNL     1      78.094  65.172  92.670  1.00  0.00     0.695 A 
HETATM   26  N3  UNL     1      78.742  64.176  93.328  1.00  0.00    -0.187 N 
HETATM   27  C2  UNL     1      79.656  63.428  92.690  1.00  0.00     0.215 A 
ATOM     28  H3  UNL     1      78.535  63.996  94.310  1.00  0.00     0.185 HD
HETATM   29  N2  UNL     1      79.923  63.668  91.392  1.00  0.00    -0.187 N 
HETATM   30  C1  UNL     1      79.272  64.663  90.736  1.00  0.00     0.691 A 
ATOM     31  H2  UNL     1      80.615  63.102  90.902  1.00  0.00     0.185 HD
HETATM   32  N11 UNL     1      78.365  65.413  91.363  1.00  0.00    -0.022 N 
ATOM     33  H11 UNL     1      77.880  66.159  90.865  1.00  0.00     0.203 HD
BRANCH  30  34
HETATM   34  N1  UNL     1      79.591  64.812  89.499  1.00  0.00    -0.234 N 
ATOM     35  H12 UNL     1      79.070  65.399  88.848  1.00  0.00     0.174 HD
ATOM     36  H11 UNL     1      80.414  64.296  89.190  1.00  0.00     0.174 HD
ENDBRANCH  30  34
ENDBRANCH   1  25
TORSDOF 8
ENDMDL
MODEL 4
REMARK VINA RESULT: -5.630561027      2.670      3.364
REMARK  8 active torsions:
REMARK  status: ('A' for Active; 'I' for Inactive)
REMARK    1  A    between atoms: N1_1  and  C1_4 
REMARK    2  A    between atoms: C3_10  and  N4_11 
REMARK    3  A    between atoms: N5_14  and  C6_15 
REMARK    4  A    between atoms: C7_18  and  N7_19 
REMARK    5  A    between atoms: C8_24  and  N9_25 
REMARK    6  A    between atoms: N9_25  and  C9_27 
REMARK    7  A    between atoms: C9_27  and  C10_28 
REMARK    8  A    between atoms: C10_28  and  O1_29 
ROOT
HETATM    1  N4  UNL     1      77.318  66.164  93.300  1.00  0.00    -0.214 N 
HETATM    2  C4  UNL     1      77.353  65.780  94.695  1.00  0.00     0.161 C 
HETATM    3  C5  UNL     1      76.808  66.876  95.593  1.00  0.00     0.161 C 
HETATM    4  N5  UNL     1      75.562  67.365  95.071  1.00  0.00    -0.214 N 
HETATM    5  C11 UNL     1      75.180  67.084  93.694  1.00  0.00     0.161 C 
HETATM    6  C12 UNL     1      76.482  67.271  92.892  1.00  0.00     0.161 C 
ENDROOT
BRANCH   4   7
HETATM    7  C6  UNL     1      74.684  68.135  95.868  1.00  0.00     0.709 A 
HETATM    8  N6  UNL     1      73.885  67.519  96.768  1.00  0.00    -0.022 N 
HETATM    9  C7  UNL     1      73.036  68.213  97.543  1.00  0.00     0.705 A 
ATOM     10  H6  UNL     1      73.927  66.504  96.861  1.00  0.00     0.203 HD
HETATM   11  N8  UNL     1      72.998  69.563  97.402  1.00  0.00    -0.022 N 
HETATM   12  C8  UNL     1      73.804  70.177  96.494  1.00  0.00     0.707 A 
ATOM     13  H8  UNL     1      72.364  70.118  97.977  1.00  0.00     0.203 HD
HETATM   14  N10 UNL     1      74.645  69.470  95.729  1.00  0.00    -0.021 N 
ATOM     15  H10 UNL     1      75.247  69.938  95.051  1.00  0.00     0.203 HD
BRANCH   9  16
HETATM   16  N7  UNL     1      72.271  67.637  98.409  1.00  0.00    -0.234 N 
ATOM     17  H72 UNL     1      72.683  67.141  99.199  1.00  0.00     0.174 HD
ATOM     18  H71 UNL     1      71.255  67.657  98.332  1.00  0.00     0.174 HD
ENDBRANCH   9  16
BRANCH  12  19
HETATM   19  N9  UNL     1      73.766  71.467  96.368  1.00  0.00    -0.223 N 
ATOM     20  H9  UNL     1      74.459  71.896  95.753  1.00  0.00     0.177 HD
BRANCH  19  21
HETATM   21  C9  UNL     1      72.837  72.342  97.017  1.00  0.00     0.164 C 
BRANCH  21  22
HETATM   22  C10 UNL     1      73.501  73.602  97.453  1.00  0.00     0.184 C 
BRANCH  22  23
HETATM   23  O1  UNL     1      72.600  74.591  97.784  1.00  0.00    -0.399 OA
ATOM     24  H1  UNL     1      72.752  75.399  97.309  1.00  0.00     0.209 HD
ENDBRANCH  22  23
ENDBRANCH  21  22
ENDBRANCH  19  21
ENDBRANCH  12  19
ENDBRANCH   4   7
BRANCH   1  25
HETATM   25  C3  UNL     1      78.085  65.483  92.328  1.00  0.00     0.695 A 
HETATM   26  N3  UNL     1      77.672  65.508  91.034  1.00  0.00    -0.187 N 
HETATM   27  C2  UNL     1      78.383  64.876  90.086  1.00  0.00     0.215 A 
ATOM     28  H3  UNL     1      76.820  66.008  90.782  1.00  0.00     0.185 HD
HETATM   29  N2  UNL     1      79.508  64.221  90.426  1.00  0.00    -0.187 N 
HETATM   30  C1  UNL     1      79.921  64.199  91.719  1.00  0.00     0.691 A 
ATOM     31  H2  UNL     1      80.052  63.740  89.710  1.00  0.00     0.185 HD
HETATM   32  N11 UNL     1      79.220  64.822  92.668  1.00  0.00    -0.022 N 
ATOM     33  H11 UNL     1      79.534  64.801  93.638  1.00  0.00     0.203 HD
BRANCH  30  34
HETATM   34  N1  UNL     1      81.009  63.553  91.944  1.00  0.00    -0.234 N 
ATOM     35  H12 UNL     1      81.339  62.781  91.365  1.00  0.00     0.174 HD
ATOM     36  H11 UNL     1      81.542  63.857  92.759  1.00  0.00     0.174 HD
ENDBRANCH  30  34
ENDBRANCH   1  25
TORSDOF 8
ENDMDL
MODEL 5
REMARK VINA RESULT: -5.626002919      0.864      1.456
REMARK  8 active torsions:
REMARK  status: ('A' for Active; 'I' for Inactive)
REMARK    1  A    between atoms: N1_1  and  C1_4 
REMARK    2  A    between atoms: C3_10  and  N4_11 
REMARK    3  A    between atoms: N5_14  and  C6_15 
REMARK    4  A    between atoms: C7_18  and  N7_19 
REMARK    5  A    between atoms: C8_24  and  N9_25 
REMARK    6  A    between atoms: N9_25  and  C9_27 
REMARK    7  A    between atoms: C9_27  and  C10_28 
REMARK    8  A    between atoms: C10_28  and  O1_29 
ROOT
HETATM    1  N4  UNL     1      77.448  66.961  91.201  1.00  0.00    -0.214 N 
HETATM    2  C4  UNL     1      77.203  65.775  91.993  1.00  0.00     0.161 C 
HETATM    3  C5  UNL     1      76.485  66.103  93.289  1.00  0.00     0.161 C 
HETATM    4  N5  UNL     1      75.368  66.967  93.028  1.00  0.00    -0.214 N 
HETATM    5  C11 UNL     1      75.271  67.683  91.763  1.00  0.00     0.161 C 
HETATM    6  C12 UNL     1      76.707  68.169  91.489  1.00  0.00     0.161 C 
ENDROOT
BRANCH   4   7
HETATM    7  C6  UNL     1      74.345  67.155  93.985  1.00  0.00     0.709 A 
HETATM    8  N6  UNL     1      73.109  66.661  93.750  1.00  0.00    -0.022 N 
HETATM    9  C7  UNL     1      72.110  66.819  94.633  1.00  0.00     0.705 A 
ATOM     10  H6  UNL     1      72.931  66.157  92.881  1.00  0.00     0.203 HD
HETATM   11  N8  UNL     1      72.372  67.493  95.781  1.00  0.00    -0.022 N 
HETATM   12  C8  UNL     1      73.618  67.989  96.013  1.00  0.00     0.707 A 
ATOM     13  H8  UNL     1      71.634  67.628  96.472  1.00  0.00     0.203 HD
HETATM   14  N10 UNL     1      74.603  67.823  95.122  1.00  0.00    -0.021 N 
ATOM     15  H10 UNL     1      75.534  68.198  95.303  1.00  0.00     0.203 HD
BRANCH   9  16
HETATM   16  N7  UNL     1      70.927  66.347  94.421  1.00  0.00    -0.234 N 
ATOM     17  H72 UNL     1      70.672  66.017  93.490  1.00  0.00     0.174 HD
ATOM     18  H71 UNL     1      70.225  66.294  95.159  1.00  0.00     0.174 HD
ENDBRANCH   9  16
BRANCH  12  19
HETATM   19  N9  UNL     1      73.862  68.628  97.115  1.00  0.00    -0.223 N 
ATOM     20  H9  UNL     1      73.063  68.868  97.702  1.00  0.00     0.177 HD
BRANCH  19  21
HETATM   21  C9  UNL     1      75.157  69.028  97.578  1.00  0.00     0.164 C 
BRANCH  21  22
HETATM   22  C10 UNL     1      75.436  70.449  97.228  1.00  0.00     0.184 C 
BRANCH  22  23
HETATM   23  O1  UNL     1      74.952  70.795  95.985  1.00  0.00    -0.399 OA
ATOM     24  H1  UNL     1      75.479  71.460  95.558  1.00  0.00     0.209 HD
ENDBRANCH  22  23
ENDBRANCH  21  22
ENDBRANCH  19  21
ENDBRANCH  12  19
ENDBRANCH   4   7
BRANCH   1  25
HETATM   25  C3  UNL     1      78.397  66.967  90.154  1.00  0.00     0.695 A 
HETATM   26  N3  UNL     1      78.780  68.158  89.626  1.00  0.00    -0.187 N 
HETATM   27  C2  UNL     1      79.685  68.198  88.634  1.00  0.00     0.215 A 
ATOM     28  H3  UNL     1      78.380  69.026  89.983  1.00  0.00     0.185 HD
HETATM   29  N2  UNL     1      80.211  67.050  88.169  1.00  0.00    -0.187 N 
HETATM   30  C1  UNL     1      79.828  65.860  88.700  1.00  0.00     0.691 A 
ATOM     31  H2  UNL     1      80.899  67.074  87.417  1.00  0.00     0.185 HD
HETATM   32  N11 UNL     1      78.929  65.811  89.684  1.00  0.00    -0.022 N 
ATOM     33  H11 UNL     1      78.644  64.915  90.077  1.00  0.00     0.203 HD
BRANCH  30  34
HETATM   34  N1  UNL     1      80.390  64.820  88.194  1.00  0.00    -0.234 N 
ATOM     35  H12 UNL     1      80.523  63.946  88.701  1.00  0.00     0.174 HD
ATOM     36  H11 UNL     1      80.711  64.917  87.230  1.00  0.00     0.174 HD
ENDBRANCH  30  34
ENDBRANCH   1  25
TORSDOF 8
ENDMDL
