MODEL 1
REMARK VINA RESULT: -4.294383562      0.000      0.000
REMARK  3 active torsions:
REMARK  status: ('A' for Active; 'I' for Inactive)
REMARK    1  A    between atoms: N1_1  and  C1_4 
REMARK    2  A    between atoms: C2_5  and  N2_6 
REMARK       I    between atoms: N2_6  and  C3_8 
REMARK    3  A    between atoms: N5_14  and  N6_15 
ROOT
HETATM    1  C1  UNL     1      56.426  39.721  45.362  1.00  0.00     0.182 A 
HETATM    2  C2  UNL     1      55.668  38.603  45.140  1.00  0.00     0.171 A 
HETATM    3  N3  UNL     1      54.883  38.480  46.228  1.00  0.00    -0.264 N 
ATOM      4  H3  UNL     1      54.197  37.739  46.373  1.00  0.00     0.186 HD
HETATM    5  N4  UNL     1      55.129  39.458  47.082  1.00  0.00     0.004 NA
HETATM    6  N5  UNL     1      56.077  40.237  46.571  1.00  0.00    -0.167 N 
ENDROOT
BRANCH   2   7
HETATM    7  N2  UNL     1      55.739  37.864  44.087  1.00  0.00    -0.283 N 
HETATM    8  C3  UNL     1      55.150  36.571  44.025  1.00  0.00     0.289 C 
HETATM    9  O1  UNL     1      55.830  35.628  43.544  1.00  0.00    -0.629 OA
HETATM   10  O2  UNL     1      53.848  36.376  44.490  1.00  0.00    -0.629 OA
ATOM     11  H2  UNL     1      56.235  38.218  43.269  1.00  0.00     0.173 HD
ENDBRANCH   2   7
BRANCH   1  12
HETATM   12  N1  UNL     1      57.314  40.202  44.566  1.00  0.00    -0.380 N 
ATOM     13  H12 UNL     1      57.650  39.761  43.710  1.00  0.00     0.158 HD
ATOM     14  H11 UNL     1      57.805  41.088  44.681  1.00  0.00     0.158 HD
ENDBRANCH   1  12
BRANCH   6  15
HETATM   15  N6  UNL     1      56.596  41.368  47.188  1.00  0.00    -0.324 N 
ATOM     16  H62 UNL     1      56.925  42.201  46.700  1.00  0.00     0.178 HD
ATOM     17  H61 UNL     1      56.720  41.528  48.188  1.00  0.00     0.178 HD
ENDBRANCH   6  15
TORSDOF 3
ENDMDL
MODEL 2
REMARK VINA RESULT: -4.153099730      0.954      2.131
REMARK  3 active torsions:
REMARK  status: ('A' for Active; 'I' for Inactive)
REMARK    1  A    between atoms: N1_1  and  C1_4 
REMARK    2  A    between atoms: C2_5  and  N2_6 
REMARK       I    between atoms: N2_6  and  C3_8 
REMARK    3  A    between atoms: N5_14  and  N6_15 
ROOT
HETATM    1  C1  UNL     1      55.830  39.355  46.046  1.00  0.00     0.182 A 
HETATM    2  C2  UNL     1      55.435  38.366  45.185  1.00  0.00     0.171 A 
HETATM    3  N3  UNL     1      56.103  38.602  44.039  1.00  0.00    -0.264 N 
ATOM      4  H3  UNL     1      56.027  38.037  43.193  1.00  0.00     0.186 HD
HETATM    5  N4  UNL     1      56.870  39.670  44.167  1.00  0.00     0.004 NA
HETATM    6  N5  UNL     1      56.719  40.153  45.396  1.00  0.00    -0.167 N 
ENDROOT
BRANCH   2   7
HETATM    7  N2  UNL     1      54.596  37.432  45.474  1.00  0.00    -0.283 N 
HETATM    8  C3  UNL     1      54.355  36.331  44.606  1.00  0.00     0.289 C 
HETATM    9  O1  UNL     1      53.164  35.995  44.385  1.00  0.00    -0.629 OA
HETATM   10  O2  UNL     1      55.430  35.655  44.026  1.00  0.00    -0.629 OA
ATOM     11  H2  UNL     1      54.085  37.484  46.355  1.00  0.00     0.173 HD
ENDBRANCH   2   7
BRANCH   1  12
HETATM   12  N1  UNL     1      55.431  39.504  47.259  1.00  0.00    -0.380 N 
ATOM     13  H12 UNL     1      54.836  38.856  47.776  1.00  0.00     0.158 HD
ATOM     14  H11 UNL     1      55.652  40.291  47.870  1.00  0.00     0.158 HD
ENDBRANCH   1  12
BRANCH   6  15
HETATM   15  N6  UNL     1      57.369  41.274  45.895  1.00  0.00    -0.324 N 
ATOM     16  H62 UNL     1      58.185  41.253  46.507  1.00  0.00     0.178 HD
ATOM     17  H61 UNL     1      57.133  42.253  45.729  1.00  0.00     0.178 HD
ENDBRANCH   6  15
TORSDOF 3
ENDMDL
MODEL 3
REMARK VINA RESULT: -3.853314156      3.292      4.453
REMARK  3 active torsions:
REMARK  status: ('A' for Active; 'I' for Inactive)
REMARK    1  A    between atoms: N1_1  and  C1_4 
REMARK    2  A    between atoms: C2_5  and  N2_6 
REMARK       I    between atoms: N2_6  and  C3_8 
REMARK    3  A    between atoms: N5_14  and  N6_15 
ROOT
HETATM    1  C1  UNL     1      56.299  40.042  45.316  1.00  0.00     0.182 A 
HETATM    2  C2  UNL     1      55.787  40.138  46.583  1.00  0.00     0.171 A 
HETATM    3  N3  UNL     1      55.035  39.032  46.750  1.00  0.00    -0.264 N 
ATOM      4  H3  UNL     1      54.514  38.804  47.596  1.00  0.00     0.186 HD
HETATM    5  N4  UNL     1      55.070  38.286  45.661  1.00  0.00     0.004 NA
HETATM    6  N5  UNL     1      55.843  38.887  44.761  1.00  0.00    -0.167 N 
ENDROOT
BRANCH   2   7
HETATM    7  N2  UNL     1      56.015  41.111  47.396  1.00  0.00    -0.283 N 
HETATM    8  C3  UNL     1      55.062  41.532  48.363  1.00  0.00     0.289 C 
HETATM    9  O1  UNL     1      54.844  42.765  48.489  1.00  0.00    -0.629 OA
HETATM   10  O2  UNL     1      54.398  40.584  49.144  1.00  0.00    -0.629 OA
ATOM     11  H2  UNL     1      56.911  41.596  47.344  1.00  0.00     0.173 HD
ENDBRANCH   2   7
BRANCH   1  12
HETATM   12  N1  UNL     1      57.076  40.894  44.749  1.00  0.00    -0.380 N 
ATOM     13  H12 UNL     1      58.087  40.806  44.647  1.00  0.00     0.158 HD
ATOM     14  H11 UNL     1      56.789  41.776  44.323  1.00  0.00     0.158 HD
ENDBRANCH   1  12
BRANCH   6  15
HETATM   15  N6  UNL     1      56.115  38.396  43.491  1.00  0.00    -0.324 N 
ATOM     16  H62 UNL     1      57.009  38.002  43.195  1.00  0.00     0.178 HD
ATOM     17  H61 UNL     1      55.482  38.357  42.692  1.00  0.00     0.178 HD
ENDBRANCH   6  15
TORSDOF 3
ENDMDL
MODEL 4
REMARK VINA RESULT: -3.278415241      3.081      4.615
REMARK  3 active torsions:
REMARK  status: ('A' for Active; 'I' for Inactive)
REMARK    1  A    between atoms: N1_1  and  C1_4 
REMARK    2  A    between atoms: C2_5  and  N2_6 
REMARK       I    between atoms: N2_6  and  C3_8 
REMARK    3  A    between atoms: N5_14  and  N6_15 
ROOT
HETATM    1  C1  UNL     1      55.967  39.144  46.075  1.00  0.00     0.182 A 
HETATM    2  C2  UNL     1      56.384  40.431  46.288  1.00  0.00     0.171 A 
HETATM    3  N3  UNL     1      56.827  40.866  45.091  1.00  0.00    -0.264 N 
ATOM      4  H3  UNL     1      57.207  41.795  44.913  1.00  0.00     0.186 HD
HETATM    5  N4  UNL     1      56.698  39.915  44.183  1.00  0.00     0.004 NA
HETATM    6  N5  UNL     1      56.171  38.843  44.765  1.00  0.00    -0.167 N 
ENDROOT
BRANCH   2   7
HETATM    7  N2  UNL     1      56.335  41.042  47.421  1.00  0.00    -0.283 N 
HETATM    8  C3  UNL     1      55.106  41.414  48.032  1.00  0.00     0.289 C 
HETATM    9  O1  UNL     1      55.002  42.574  48.506  1.00  0.00    -0.629 OA
HETATM   10  O2  UNL     1      54.055  40.496  48.094  1.00  0.00    -0.629 OA
ATOM     11  H2  UNL     1      57.209  41.268  47.896  1.00  0.00     0.173 HD
ENDBRANCH   2   7
BRANCH   1  12
HETATM   12  N1  UNL     1      55.470  38.356  46.961  1.00  0.00    -0.380 N 
ATOM     13  H12 UNL     1      54.791  38.614  47.677  1.00  0.00     0.158 HD
ATOM     14  H11 UNL     1      55.686  37.365  47.070  1.00  0.00     0.158 HD
ENDBRANCH   1  12
BRANCH   6  15
HETATM   15  N6  UNL     1      55.890  37.645  44.120  1.00  0.00    -0.324 N 
ATOM     16  H62 UNL     1      55.827  37.526  43.109  1.00  0.00     0.178 HD
ATOM     17  H61 UNL     1      55.711  36.737  44.549  1.00  0.00     0.178 HD
ENDBRANCH   6  15
TORSDOF 3
ENDMDL
MODEL 5
REMARK VINA RESULT: -2.996757872      6.916      8.618
REMARK  3 active torsions:
REMARK  status: ('A' for Active; 'I' for Inactive)
REMARK    1  A    between atoms: N1_1  and  C1_4 
REMARK    2  A    between atoms: C2_5  and  N2_6 
REMARK       I    between atoms: N2_6  and  C3_8 
REMARK    3  A    between atoms: N5_14  and  N6_15 
ROOT
HETATM    1  C1  UNL     1      49.662  33.385  43.099  1.00  0.00     0.182 A 
HETATM    2  C2  UNL     1      49.841  34.178  44.200  1.00  0.00     0.171 A 
HETATM    3  N3  UNL     1      48.804  33.900  45.015  1.00  0.00    -0.264 N 
ATOM      4  H3  UNL     1      48.647  34.330  45.926  1.00  0.00     0.186 HD
HETATM    5  N4  UNL     1      48.022  32.989  44.464  1.00  0.00     0.004 NA
HETATM    6  N5  UNL     1      48.528  32.655  43.281  1.00  0.00    -0.167 N 
ENDROOT
BRANCH   2   7
HETATM    7  N2  UNL     1      50.820  35.000  44.363  1.00  0.00    -0.283 N 
HETATM    8  C3  UNL     1      50.827  35.980  45.394  1.00  0.00     0.289 C 
HETATM    9  O1  UNL     1      51.168  37.154  45.100  1.00  0.00    -0.629 OA
HETATM   10  O2  UNL     1      50.462  35.623  46.693  1.00  0.00    -0.629 OA
ATOM     11  H2  UNL     1      51.618  34.947  43.730  1.00  0.00     0.173 HD
ENDBRANCH   2   7
BRANCH   1  12
HETATM   12  N1  UNL     1      50.430  33.337  42.070  1.00  0.00    -0.380 N 
ATOM     13  H12 UNL     1      50.161  33.022  41.137  1.00  0.00     0.158 HD
ATOM     14  H11 UNL     1      51.414  33.607  42.043  1.00  0.00     0.158 HD
ENDBRANCH   1  12
BRANCH   6  15
HETATM   15  N6  UNL     1      47.974  31.724  42.412  1.00  0.00    -0.324 N 
ATOM     16  H62 UNL     1      48.164  31.674  41.411  1.00  0.00     0.178 HD
ATOM     17  H61 UNL     1      47.318  30.978  42.640  1.00  0.00     0.178 HD
ENDBRANCH   6  15
TORSDOF 3
ENDMDL
