MODEL 1
REMARK VINA RESULT: -4.655934849      0.000      0.000
REMARK  1 active torsions:
REMARK  status: ('A' for Active; 'I' for Inactive)
REMARK    1  A    between atoms: N1_1  and  C1_4 
ROOT
HETATM    1  C1  UNL     1      49.999  35.473  45.680  1.00  0.00     0.118 C 
HETATM    2  C2  UNL     1      50.769  35.782  44.574  1.00  0.00     0.141 C 
HETATM    3  N2  UNL     1      50.992  35.050  43.444  1.00  0.00    -0.315 N 
ATOM      4  H2  UNL     1      51.717  35.403  42.820  1.00  0.00     0.170 HD
HETATM    5  C3  UNL     1      50.376  33.922  43.050  1.00  0.00     0.328 C 
HETATM    6  O1  UNL     1      50.755  33.408  41.969  1.00  0.00    -0.247 OA
HETATM    7  N3  UNL     1      49.388  33.237  43.647  1.00  0.00    -0.260 N 
ATOM      8  H3  UNL     1      49.109  32.364  43.199  1.00  0.00     0.175 HD
HETATM    9  C4  UNL     1      48.715  33.575  44.787  1.00  0.00     0.329 C 
HETATM   10  O2  UNL     1      47.665  32.916  45.035  1.00  0.00    -0.246 OA
HETATM   11  N4  UNL     1      49.026  34.524  45.687  1.00  0.00    -0.294 N 
ATOM     12  H4  UNL     1      48.430  34.533  46.516  1.00  0.00     0.172 HD
ENDROOT
BRANCH   1  13
HETATM   13  N1  UNL     1      50.205  36.116  46.782  1.00  0.00    -0.384 N 
ATOM     14  H12 UNL     1      51.125  36.023  47.211  1.00  0.00     0.157 HD
ATOM     15  H11 UNL     1      49.448  36.681  47.169  1.00  0.00     0.157 HD
ENDBRANCH   1  13
TORSDOF 1
ENDMDL
MODEL 2
REMARK VINA RESULT: -4.057048678      1.761      3.103
REMARK  1 active torsions:
REMARK  status: ('A' for Active; 'I' for Inactive)
REMARK    1  A    between atoms: N1_1  and  C1_4 
ROOT
HETATM    1  C1  UNL     1      50.347  33.717  43.124  1.00  0.00     0.118 C 
HETATM    2  C2  UNL     1      51.249  34.692  43.510  1.00  0.00     0.141 C 
HETATM    3  N2  UNL     1      51.110  35.675  44.446  1.00  0.00    -0.315 N 
ATOM      4  H2  UNL     1      51.845  36.382  44.463  1.00  0.00     0.170 HD
HETATM    5  C3  UNL     1      50.127  35.829  45.350  1.00  0.00     0.328 C 
HETATM    6  O1  UNL     1      50.198  36.825  46.113  1.00  0.00    -0.247 OA
HETATM    7  N3  UNL     1      49.047  35.065  45.573  1.00  0.00    -0.260 N 
ATOM      8  H3  UNL     1      48.390  35.405  46.276  1.00  0.00     0.175 HD
HETATM    9  C4  UNL     1      48.726  33.883  44.966  1.00  0.00     0.329 C 
HETATM   10  O2  UNL     1      47.796  33.213  45.498  1.00  0.00    -0.246 OA
HETATM   11  N4  UNL     1      49.275  33.335  43.868  1.00  0.00    -0.294 N 
ATOM     12  H4  UNL     1      48.808  32.490  43.537  1.00  0.00     0.172 HD
ENDROOT
BRANCH   1  13
HETATM   13  N1  UNL     1      50.520  33.123  41.990  1.00  0.00    -0.384 N 
ATOM     14  H12 UNL     1      51.422  32.676  41.830  1.00  0.00     0.157 HD
ATOM     15  H11 UNL     1      49.757  33.128  41.312  1.00  0.00     0.157 HD
ENDBRANCH   1  13
TORSDOF 1
ENDMDL
MODEL 3
REMARK VINA RESULT: -3.937569333      0.749      2.806
REMARK  1 active torsions:
REMARK  status: ('A' for Active; 'I' for Inactive)
REMARK    1  A    between atoms: N1_1  and  C1_4 
ROOT
HETATM    1  C1  UNL     1      50.966  35.606  44.765  1.00  0.00     0.118 C 
HETATM    2  C2  UNL     1      50.126  35.244  45.802  1.00  0.00     0.141 C 
HETATM    3  N2  UNL     1      49.054  34.400  45.790  1.00  0.00    -0.315 N 
ATOM      4  H2  UNL     1      48.482  34.394  46.635  1.00  0.00     0.170 HD
HETATM    5  C3  UNL     1      48.655  33.575  44.806  1.00  0.00     0.328 C 
HETATM    6  O1  UNL     1      47.622  32.892  45.012  1.00  0.00    -0.247 OA
HETATM    7  N3  UNL     1      49.204  33.360  43.601  1.00  0.00    -0.260 N 
ATOM      8  H3  UNL     1      48.697  32.729  42.980  1.00  0.00     0.175 HD
HETATM    9  C4  UNL     1      50.365  33.888  43.111  1.00  0.00     0.329 C 
HETATM   10  O2  UNL     1      50.819  33.363  42.054  1.00  0.00    -0.246 OA
HETATM   11  N4  UNL     1      51.094  34.902  43.609  1.00  0.00    -0.294 N 
ATOM     12  H4  UNL     1      51.874  35.193  43.019  1.00  0.00     0.172 HD
ENDROOT
BRANCH   1  13
HETATM   13  N1  UNL     1      51.680  36.676  44.887  1.00  0.00    -0.384 N 
ATOM     14  H12 UNL     1      51.977  36.933  45.827  1.00  0.00     0.157 HD
ATOM     15  H11 UNL     1      51.912  37.209  44.049  1.00  0.00     0.157 HD
ENDBRANCH   1  13
TORSDOF 1
ENDMDL
MODEL 4
REMARK VINA RESULT: -3.862830678      6.804      8.153
REMARK  1 active torsions:
REMARK  status: ('A' for Active; 'I' for Inactive)
REMARK    1  A    between atoms: N1_1  and  C1_4 
ROOT
HETATM    1  C1  UNL     1      56.055  40.013  46.250  1.00  0.00     0.118 C 
HETATM    2  C2  UNL     1      55.507  38.781  46.557  1.00  0.00     0.141 C 
HETATM    3  N2  UNL     1      55.109  37.780  45.718  1.00  0.00    -0.315 N 
ATOM      4  H2  UNL     1      54.591  37.016  46.151  1.00  0.00     0.170 HD
HETATM    5  C3  UNL     1      55.313  37.674  44.394  1.00  0.00     0.328 C 
HETATM    6  O1  UNL     1      54.841  36.663  43.818  1.00  0.00    -0.247 OA
HETATM    7  N3  UNL     1      55.961  38.505  43.563  1.00  0.00    -0.260 N 
ATOM      8  H3  UNL     1      55.942  38.259  42.573  1.00  0.00     0.175 HD
HETATM    9  C4  UNL     1      56.642  39.643  43.891  1.00  0.00     0.329 C 
HETATM   10  O2  UNL     1      57.379  40.136  42.990  1.00  0.00    -0.246 OA
HETATM   11  N4  UNL     1      56.632  40.313  45.056  1.00  0.00    -0.294 N 
ATOM     12  H4  UNL     1      57.143  41.196  45.043  1.00  0.00     0.172 HD
ENDROOT
BRANCH   1  13
HETATM   13  N1  UNL     1      56.024  40.947  47.142  1.00  0.00    -0.384 N 
ATOM     14  H12 UNL     1      56.818  41.585  47.177  1.00  0.00     0.157 HD
ATOM     15  H11 UNL     1      55.217  41.005  47.764  1.00  0.00     0.157 HD
ENDBRANCH   1  13
TORSDOF 1
ENDMDL
MODEL 5
REMARK VINA RESULT: -3.555404776      1.702      3.368
REMARK  1 active torsions:
REMARK  status: ('A' for Active; 'I' for Inactive)
REMARK    1  A    between atoms: N1_1  and  C1_4 
ROOT
HETATM    1  C1  UNL     1      48.603  33.337  44.590  1.00  0.00     0.118 C 
HETATM    2  C2  UNL     1      48.536  34.430  45.434  1.00  0.00     0.141 C 
HETATM    3  N2  UNL     1      49.416  35.464  45.580  1.00  0.00    -0.315 N 
ATOM      4  H2  UNL     1      49.245  36.085  46.370  1.00  0.00     0.170 HD
HETATM    5  C3  UNL     1      50.478  35.766  44.814  1.00  0.00     0.328 C 
HETATM    6  O1  UNL     1      51.161  36.766  45.146  1.00  0.00    -0.247 OA
HETATM    7  N3  UNL     1      50.939  35.148  43.715  1.00  0.00    -0.260 N 
ATOM      8  H3  UNL     1      51.807  35.514  43.322  1.00  0.00     0.175 HD
HETATM    9  C4  UNL     1      50.380  34.085  43.064  1.00  0.00     0.329 C 
HETATM   10  O2  UNL     1      50.846  33.820  41.919  1.00  0.00    -0.246 OA
HETATM   11  N4  UNL     1      49.392  33.276  43.485  1.00  0.00    -0.294 N 
ATOM     12  H4  UNL     1      49.202  32.483  42.871  1.00  0.00     0.172 HD
ENDROOT
BRANCH   1  13
HETATM   13  N1  UNL     1      47.877  32.302  44.854  1.00  0.00    -0.384 N 
ATOM     14  H12 UNL     1      48.328  31.389  44.798  1.00  0.00     0.157 HD
ATOM     15  H11 UNL     1      46.897  32.440  45.104  1.00  0.00     0.157 HD
ENDBRANCH   1  13
TORSDOF 1
ENDMDL
