MODEL 1
REMARK VINA RESULT: -5.123985039      0.000      0.000
REMARK  2 active torsions:
REMARK  status: ('A' for Active; 'I' for Inactive)
REMARK    1  A    between atoms: N1_1  and  N2_4 
REMARK    2  A    between atoms: N2_4  and  C1_6 
ROOT
HETATM    1  C1  UNL     1      55.890  40.138  46.269  1.00  0.00     0.702 A 
HETATM    2  N3  UNL     1      55.170  39.003  46.232  1.00  0.00    -0.162 N 
ATOM      3  H3  UNL     1      54.601  38.756  47.041  1.00  0.00     0.187 HD
HETATM    4  C2  UNL     1      55.172  38.179  45.163  1.00  0.00     0.210 A 
HETATM    5  N4  UNL     1      54.403  36.987  45.150  1.00  0.00    -0.062 NA
HETATM    6  N5  UNL     1      55.910  38.477  44.079  1.00  0.00    -0.282 N 
ATOM      7  H5  UNL     1      55.918  37.861  43.265  1.00  0.00     0.173 HD
HETATM    8  C3  UNL     1      56.638  39.612  44.097  1.00  0.00     0.341 A 
HETATM    9  O1  UNL     1      57.338  39.922  43.106  1.00  0.00    -0.246 OA
HETATM   10  N6  UNL     1      56.628  40.437  45.186  1.00  0.00    -0.140 N 
ATOM     11  H6  UNL     1      57.187  41.290  45.177  1.00  0.00     0.189 HD
ENDROOT
BRANCH   1  12
HETATM   12  N2  UNL     1      55.888  40.928  47.293  1.00  0.00    -0.138 N 
ATOM     13  H2  UNL     1      56.767  41.375  47.557  1.00  0.00     0.205 HD
BRANCH  12  14
HETATM   14  N1  UNL     1      54.769  41.200  48.046  1.00  0.00    -0.331 N 
ATOM     15  H12 UNL     1      53.911  40.709  47.796  1.00  0.00     0.177 HD
ATOM     16  H11 UNL     1      54.758  41.856  48.826  1.00  0.00     0.177 HD
ENDBRANCH  12  14
ENDBRANCH   1  12
TORSDOF 2
ENDMDL
MODEL 2
REMARK VINA RESULT: -4.925873008      1.615      2.530
REMARK  2 active torsions:
REMARK  status: ('A' for Active; 'I' for Inactive)
REMARK    1  A    between atoms: N1_1  and  N2_4 
REMARK    2  A    between atoms: N2_4  and  C1_6 
ROOT
HETATM    1  C1  UNL     1      55.876  40.139  46.230  1.00  0.00     0.702 A 
HETATM    2  N3  UNL     1      56.569  40.413  45.112  1.00  0.00    -0.162 N 
ATOM      3  H3  UNL     1      57.116  41.274  45.072  1.00  0.00     0.187 HD
HETATM    4  C2  UNL     1      56.570  39.592  44.041  1.00  0.00     0.210 A 
HETATM    5  N4  UNL     1      57.312  39.906  42.872  1.00  0.00    -0.062 NA
HETATM    6  N5  UNL     1      55.863  38.449  44.063  1.00  0.00    -0.282 N 
ATOM      7  H5  UNL     1      55.857  37.821  43.259  1.00  0.00     0.173 HD
HETATM    8  C3  UNL     1      55.161  38.156  45.177  1.00  0.00     0.341 A 
HETATM    9  O1  UNL     1      54.489  37.101  45.233  1.00  0.00    -0.246 OA
HETATM   10  N6  UNL     1      55.168  38.997  46.253  1.00  0.00    -0.140 N 
ATOM     11  H6  UNL     1      54.629  38.754  47.085  1.00  0.00     0.189 HD
ENDROOT
BRANCH   1  12
HETATM   12  N2  UNL     1      55.874  40.925  47.257  1.00  0.00    -0.138 N 
ATOM     13  H2  UNL     1      56.746  41.394  47.506  1.00  0.00     0.205 HD
BRANCH  12  14
HETATM   14  N1  UNL     1      54.763  41.166  48.032  1.00  0.00    -0.331 N 
ATOM     15  H12 UNL     1      54.916  41.601  48.941  1.00  0.00     0.177 HD
ATOM     16  H11 UNL     1      53.812  40.933  47.745  1.00  0.00     0.177 HD
ENDBRANCH  12  14
ENDBRANCH   1  12
TORSDOF 2
ENDMDL
MODEL 3
REMARK VINA RESULT: -3.526689632      1.014      3.352
REMARK  2 active torsions:
REMARK  status: ('A' for Active; 'I' for Inactive)
REMARK    1  A    between atoms: N1_1  and  N2_4 
REMARK    2  A    between atoms: N2_4  and  C1_6 
ROOT
HETATM    1  C1  UNL     1      55.417  38.066  44.779  1.00  0.00     0.702 A 
HETATM    2  N3  UNL     1      55.012  38.542  45.968  1.00  0.00    -0.162 N 
ATOM      3  H3  UNL     1      54.397  37.966  46.543  1.00  0.00     0.187 HD
HETATM    4  C2  UNL     1      55.390  39.752  46.431  1.00  0.00     0.210 A 
HETATM    5  N4  UNL     1      54.948  40.230  47.692  1.00  0.00    -0.062 NA
HETATM    6  N5  UNL     1      56.203  40.534  45.699  1.00  0.00    -0.282 N 
ATOM      7  H5  UNL     1      56.495  41.450  46.039  1.00  0.00     0.173 HD
HETATM    8  C3  UNL     1      56.621  40.073  44.502  1.00  0.00     0.341 A 
HETATM    9  O1  UNL     1      57.378  40.774  43.792  1.00  0.00    -0.246 OA
HETATM   10  N6  UNL     1      56.230  38.847  44.045  1.00  0.00    -0.140 N 
ATOM     11  H6  UNL     1      56.559  38.519  43.137  1.00  0.00     0.189 HD
ENDROOT
BRANCH   1  12
HETATM   12  N2  UNL     1      55.056  36.907  44.334  1.00  0.00    -0.138 N 
ATOM     13  H2  UNL     1      54.058  36.719  44.234  1.00  0.00     0.205 HD
BRANCH  12  14
HETATM   14  N1  UNL     1      55.941  35.912  43.989  1.00  0.00    -0.331 N 
ATOM     15  H12 UNL     1      55.877  35.541  43.041  1.00  0.00     0.177 HD
ATOM     16  H11 UNL     1      56.645  35.536  44.624  1.00  0.00     0.177 HD
ENDBRANCH  12  14
ENDBRANCH   1  12
TORSDOF 2
ENDMDL
MODEL 4
REMARK VINA RESULT: -3.429616724      1.983      4.042
REMARK  2 active torsions:
REMARK  status: ('A' for Active; 'I' for Inactive)
REMARK    1  A    between atoms: N1_1  and  N2_4 
REMARK    2  A    between atoms: N2_4  and  C1_6 
ROOT
HETATM    1  C1  UNL     1      55.420  38.087  44.798  1.00  0.00     0.702 A 
HETATM    2  N3  UNL     1      56.172  38.927  44.067  1.00  0.00    -0.162 N 
ATOM      3  H3  UNL     1      56.440  38.650  43.122  1.00  0.00     0.187 HD
HETATM    4  C2  UNL     1      56.585  40.123  44.535  1.00  0.00     0.210 A 
HETATM    5  N4  UNL     1      57.379  40.992  43.741  1.00  0.00    -0.062 NA
HETATM    6  N5  UNL     1      56.246  40.520  45.774  1.00  0.00    -0.282 N 
ATOM      7  H5  UNL     1      56.552  41.423  46.138  1.00  0.00     0.173 HD
HETATM    8  C3  UNL     1      55.490  39.691  46.523  1.00  0.00     0.341 A 
HETATM    9  O1  UNL     1      55.156  40.026  47.682  1.00  0.00    -0.246 OA
HETATM   10  N6  UNL     1      55.080  38.482  46.037  1.00  0.00    -0.140 N 
ATOM     11  H6  UNL     1      54.509  37.872  46.622  1.00  0.00     0.189 HD
ENDROOT
BRANCH   1  12
HETATM   12  N2  UNL     1      55.024  36.940  44.350  1.00  0.00    -0.138 N 
ATOM     13  H2  UNL     1      54.020  36.763  44.301  1.00  0.00     0.205 HD
BRANCH  12  14
HETATM   14  N1  UNL     1      55.880  35.946  43.937  1.00  0.00    -0.331 N 
ATOM     15  H12 UNL     1      56.334  35.392  44.663  1.00  0.00     0.177 HD
ATOM     16  H11 UNL     1      56.077  35.740  42.957  1.00  0.00     0.177 HD
ENDBRANCH  12  14
ENDBRANCH   1  12
TORSDOF 2
ENDMDL
MODEL 5
REMARK VINA RESULT: -3.353063278      7.503      8.415
REMARK  2 active torsions:
REMARK  status: ('A' for Active; 'I' for Inactive)
REMARK    1  A    between atoms: N1_1  and  N2_4 
REMARK    2  A    between atoms: N2_4  and  C1_6 
ROOT
HETATM    1  C1  UNL     1      49.756  35.447  44.902  1.00  0.00     0.702 A 
HETATM    2  N3  UNL     1      50.398  35.175  43.754  1.00  0.00    -0.162 N 
ATOM      3  H3  UNL     1      51.093  35.839  43.412  1.00  0.00     0.187 HD
HETATM    4  C2  UNL     1      50.159  34.058  43.037  1.00  0.00     0.210 A 
HETATM    5  N4  UNL     1      50.853  33.795  41.827  1.00  0.00    -0.062 NA
HETATM    6  N5  UNL     1      49.251  33.162  43.462  1.00  0.00    -0.282 N 
ATOM      7  H5  UNL     1      49.063  32.312  42.928  1.00  0.00     0.173 HD
HETATM    8  C3  UNL     1      48.596  33.416  44.613  1.00  0.00     0.341 A 
HETATM    9  O1  UNL     1      47.742  32.605  45.039  1.00  0.00    -0.246 OA
HETATM   10  N6  UNL     1      48.847  34.552  45.328  1.00  0.00    -0.140 N 
ATOM     11  H6  UNL     1      48.339  34.723  46.196  1.00  0.00     0.189 HD
ENDROOT
BRANCH   1  12
HETATM   12  N2  UNL     1      49.984  36.518  45.590  1.00  0.00    -0.138 N 
ATOM     13  H2  UNL     1      50.054  37.405  45.091  1.00  0.00     0.205 HD
BRANCH  12  14
HETATM   14  N1  UNL     1      50.138  36.528  46.958  1.00  0.00    -0.331 N 
ATOM     15  H12 UNL     1      49.391  36.954  47.506  1.00  0.00     0.177 HD
ATOM     16  H11 UNL     1      50.948  36.137  47.439  1.00  0.00     0.177 HD
ENDBRANCH  12  14
ENDBRANCH   1  12
TORSDOF 2
ENDMDL
