MODEL 1
REMARK VINA RESULT: -5.392302159      0.000      0.000
REMARK  2 active torsions:
REMARK  status: ('A' for Active; 'I' for Inactive)
REMARK    1  A    between atoms: N1_1  and  N2_4 
REMARK    2  A    between atoms: N2_4  and  C1_6 
ROOT
HETATM    1  C1  UNL     1      55.933  40.724  47.100  1.00  0.00     0.714 A 
HETATM    2  N3  UNL     1      55.091  39.675  47.115  1.00  0.00    -0.129 N 
ATOM      3  H3  UNL     1      54.486  39.552  47.927  1.00  0.00     0.205 HD
HETATM    4  N4  UNL     1      55.006  38.792  46.131  1.00  0.00    -0.269 N 
ATOM      5  H4  UNL     1      54.344  38.020  46.210  1.00  0.00     0.189 HD
HETATM    6  C2  UNL     1      55.772  38.891  45.028  1.00  0.00     0.200 A 
HETATM    7  N5  UNL     1      55.718  37.977  43.952  1.00  0.00    -0.075 NA
HETATM    8  C3  UNL     1      56.642  39.964  44.999  1.00  0.00     0.302 A 
HETATM    9  O1  UNL     1      57.379  40.098  43.987  1.00  0.00    -0.264 OA
HETATM   10  N6  UNL     1      56.714  40.851  46.012  1.00  0.00    -0.151 N 
ATOM     11  H6  UNL     1      57.370  41.630  45.953  1.00  0.00     0.188 HD
ENDROOT
BRANCH   1  12
HETATM   12  N2  UNL     1      55.999  41.579  48.082  1.00  0.00    -0.137 N 
ATOM     13  H2  UNL     1      56.909  41.917  48.395  1.00  0.00     0.205 HD
BRANCH  12  14
HETATM   14  N1  UNL     1      54.845  42.038  48.709  1.00  0.00    -0.331 N 
ATOM     15  H12 UNL     1      54.699  43.044  48.787  1.00  0.00     0.177 HD
ATOM     16  H11 UNL     1      54.157  41.385  49.083  1.00  0.00     0.177 HD
ENDBRANCH  12  14
ENDBRANCH   1  12
TORSDOF 2
ENDMDL
MODEL 2
REMARK VINA RESULT: -5.173750169      1.476      1.993
REMARK  2 active torsions:
REMARK  status: ('A' for Active; 'I' for Inactive)
REMARK    1  A    between atoms: N1_1  and  N2_4 
REMARK    2  A    between atoms: N2_4  and  C1_6 
ROOT
HETATM    1  C1  UNL     1      56.027  40.557  46.832  1.00  0.00     0.714 A 
HETATM    2  N3  UNL     1      56.702  40.842  45.703  1.00  0.00    -0.129 N 
ATOM      3  H3  UNL     1      57.251  41.701  45.673  1.00  0.00     0.205 HD
HETATM    4  N4  UNL     1      56.692  40.067  44.629  1.00  0.00    -0.269 N 
ATOM      5  H4  UNL     1      57.228  40.347  43.808  1.00  0.00     0.189 HD
HETATM    6  C2  UNL     1      55.991  38.917  44.598  1.00  0.00     0.200 A 
HETATM    7  N5  UNL     1      55.949  38.057  43.479  1.00  0.00    -0.075 NA
HETATM    8  C3  UNL     1      55.292  38.612  45.750  1.00  0.00     0.302 A 
HETATM    9  O1  UNL     1      54.622  37.546  45.766  1.00  0.00    -0.264 OA
HETATM   10  N6  UNL     1      55.315  39.415  46.832  1.00  0.00    -0.151 N 
ATOM     11  H6  UNL     1      54.785  39.155  47.664  1.00  0.00     0.188 HD
ENDROOT
BRANCH   1  12
HETATM   12  N2  UNL     1      56.053  41.338  47.876  1.00  0.00    -0.137 N 
ATOM     13  H2  UNL     1      56.948  41.587  48.295  1.00  0.00     0.205 HD
BRANCH  12  14
HETATM   14  N1  UNL     1      54.876  41.836  48.425  1.00  0.00    -0.331 N 
ATOM     15  H12 UNL     1      54.574  41.481  49.333  1.00  0.00     0.177 HD
ATOM     16  H11 UNL     1      54.325  42.540  47.935  1.00  0.00     0.177 HD
ENDBRANCH  12  14
ENDBRANCH   1  12
TORSDOF 2
ENDMDL
MODEL 3
REMARK VINA RESULT: -4.706571738      7.267      9.071
REMARK  2 active torsions:
REMARK  status: ('A' for Active; 'I' for Inactive)
REMARK    1  A    between atoms: N1_1  and  N2_4 
REMARK    2  A    between atoms: N2_4  and  C1_6 
ROOT
HETATM    1  C1  UNL     1      49.776  33.659  43.561  1.00  0.00     0.714 A 
HETATM    2  N3  UNL     1      48.815  33.904  44.471  1.00  0.00    -0.129 N 
ATOM      3  H3  UNL     1      47.971  33.332  44.447  1.00  0.00     0.205 HD
HETATM    4  N4  UNL     1      48.906  34.848  45.395  1.00  0.00    -0.269 N 
ATOM      5  H4  UNL     1      48.138  34.979  46.052  1.00  0.00     0.189 HD
HETATM    6  C2  UNL     1      49.992  35.640  45.487  1.00  0.00     0.200 A 
HETATM    7  N5  UNL     1      50.138  36.660  46.454  1.00  0.00    -0.075 NA
HETATM    8  C3  UNL     1      50.988  35.400  44.559  1.00  0.00     0.302 A 
HETATM    9  O1  UNL     1      52.022  36.116  44.607  1.00  0.00    -0.264 OA
HETATM   10  N6  UNL     1      50.874  34.434  43.626  1.00  0.00    -0.151 N 
ATOM     11  H6  UNL     1      51.631  34.288  42.958  1.00  0.00     0.188 HD
ENDROOT
BRANCH   1  12
HETATM   12  N2  UNL     1      49.662  32.723  42.661  1.00  0.00    -0.137 N 
ATOM     13  H2  UNL     1      50.474  32.459  42.105  1.00  0.00     0.205 HD
BRANCH  12  14
HETATM   14  N1  UNL     1      48.447  32.080  42.449  1.00  0.00    -0.331 N 
ATOM     15  H12 UNL     1      47.870  31.848  43.258  1.00  0.00     0.177 HD
ATOM     16  H11 UNL     1      48.136  31.844  41.507  1.00  0.00     0.177 HD
ENDBRANCH  12  14
ENDBRANCH   1  12
TORSDOF 2
ENDMDL
MODEL 4
REMARK VINA RESULT: -4.464274412      1.260      1.452
REMARK  2 active torsions:
REMARK  status: ('A' for Active; 'I' for Inactive)
REMARK    1  A    between atoms: N1_1  and  N2_4 
REMARK    2  A    between atoms: N2_4  and  C1_6 
ROOT
HETATM    1  C1  UNL     1      55.497  41.381  48.130  1.00  0.00     0.714 A 
HETATM    2  N3  UNL     1      54.440  40.551  48.055  1.00  0.00    -0.129 N 
ATOM      3  H3  UNL     1      53.664  40.698  48.699  1.00  0.00     0.205 HD
HETATM    4  N4  UNL     1      54.354  39.554  47.188  1.00  0.00    -0.269 N 
ATOM      5  H4  UNL     1      53.523  38.963  47.187  1.00  0.00     0.189 HD
HETATM    6  C2  UNL     1      55.341  39.301  46.305  1.00  0.00     0.200 A 
HETATM    7  N5  UNL     1      55.297  38.251  45.362  1.00  0.00    -0.075 NA
HETATM    8  C3  UNL     1      56.433  40.145  46.372  1.00  0.00     0.302 A 
HETATM    9  O1  UNL     1      57.379  39.947  45.566  1.00  0.00    -0.264 OA
HETATM   10  N6  UNL     1      56.500  41.155  47.263  1.00  0.00    -0.151 N 
ATOM     11  H6  UNL     1      57.325  41.756  47.281  1.00  0.00     0.188 HD
ENDROOT
BRANCH   1  12
HETATM   12  N2  UNL     1      55.557  42.356  48.994  1.00  0.00    -0.137 N 
ATOM     13  H2  UNL     1      55.646  43.316  48.662  1.00  0.00     0.205 HD
BRANCH  12  14
HETATM   14  N1  UNL     1      55.502  42.105  50.361  1.00  0.00    -0.331 N 
ATOM     15  H12 UNL     1      55.521  42.897  51.003  1.00  0.00     0.177 HD
ATOM     16  H11 UNL     1      55.444  41.151  50.716  1.00  0.00     0.177 HD
ENDBRANCH  12  14
ENDBRANCH   1  12
TORSDOF 2
ENDMDL
MODEL 5
REMARK VINA RESULT: -4.096610412      1.238      1.372
REMARK  2 active torsions:
REMARK  status: ('A' for Active; 'I' for Inactive)
REMARK    1  A    between atoms: N1_1  and  N2_4 
REMARK    2  A    between atoms: N2_4  and  C1_6 
ROOT
HETATM    1  C1  UNL     1      55.928  40.097  46.344  1.00  0.00     0.714 A 
HETATM    2  N3  UNL     1      55.165  39.036  46.667  1.00  0.00    -0.129 N 
ATOM      3  H3  UNL     1      54.740  39.010  47.593  1.00  0.00     0.205 HD
HETATM    4  N4  UNL     1      54.936  38.024  45.844  1.00  0.00    -0.269 N 
ATOM      5  H4  UNL     1      54.348  37.251  46.156  1.00  0.00     0.189 HD
HETATM    6  C2  UNL     1      55.463  37.991  44.605  1.00  0.00     0.200 A 
HETATM    7  N5  UNL     1      55.248  36.935  43.691  1.00  0.00    -0.075 NA
HETATM    8  C3  UNL     1      56.248  39.074  44.260  1.00  0.00     0.302 A 
HETATM    9  O1  UNL     1      56.762  39.086  43.111  1.00  0.00    -0.264 OA
HETATM   10  N6  UNL     1      56.469  40.094  45.113  1.00  0.00    -0.151 N 
ATOM     11  H6  UNL     1      57.057  40.876  44.821  1.00  0.00     0.188 HD
ENDROOT
BRANCH   1  12
HETATM   12  N2  UNL     1      56.138  41.082  47.173  1.00  0.00    -0.137 N 
ATOM     13  H2  UNL     1      55.382  41.733  47.382  1.00  0.00     0.205 HD
BRANCH  12  14
HETATM   14  N1  UNL     1      57.379  41.256  47.776  1.00  0.00    -0.331 N 
ATOM     15  H12 UNL     1      57.517  40.896  48.720  1.00  0.00     0.177 HD
ATOM     16  H11 UNL     1      58.137  41.733  47.287  1.00  0.00     0.177 HD
ENDBRANCH  12  14
ENDBRANCH   1  12
TORSDOF 2
ENDMDL
