MODEL 1
REMARK VINA RESULT: -5.606934669      0.000      0.000
REMARK  0 active torsions:
REMARK  status: ('A' for Active; 'I' for Inactive)
ROOT
HETATM    1  N1  UNL     1      47.822  32.638  44.792  1.00  0.00    -0.079 NA
HETATM    2  C1  UNL     1      48.793  33.663  44.933  1.00  0.00     0.160 A 
HETATM    3  N2  UNL     1      48.751  34.518  45.985  1.00  0.00    -0.304 N 
ATOM      4  H2  UNL     1      48.027  34.449  46.700  1.00  0.00     0.170 HD
HETATM    5  C2  UNL     1      49.710  35.461  46.041  1.00  0.00     0.315 A 
HETATM    6  O1  UNL     1      49.704  36.272  47.001  1.00  0.00    -0.262 OA
HETATM    7  C3  UNL     1      50.707  35.585  45.092  1.00  0.00     0.315 A 
HETATM    8  O2  UNL     1      51.589  36.482  45.180  1.00  0.00    -0.262 OA
HETATM    9  N3  UNL     1      50.695  34.709  44.074  1.00  0.00    -0.304 N 
ATOM     10  H3  UNL     1      51.420  34.778  43.359  1.00  0.00     0.170 HD
HETATM   11  C4  UNL     1      49.771  33.750  43.960  1.00  0.00     0.160 A 
HETATM   12  N4  UNL     1      49.773  32.826  42.873  1.00  0.00    -0.079 NA
ENDROOT
TORSDOF 0
ENDMDL
MODEL 2
REMARK VINA RESULT: -5.493850506      0.049      2.268
REMARK  0 active torsions:
REMARK  status: ('A' for Active; 'I' for Inactive)
ROOT
HETATM    1  N1  UNL     1      49.801  32.817  42.919  1.00  0.00    -0.079 NA
HETATM    2  C1  UNL     1      49.803  33.754  43.983  1.00  0.00     0.160 A 
HETATM    3  N2  UNL     1      50.749  34.723  44.053  1.00  0.00    -0.304 N 
ATOM      4  H2  UNL     1      51.482  34.806  43.348  1.00  0.00     0.170 HD
HETATM    5  C2  UNL     1      50.677  35.570  45.097  1.00  0.00     0.315 A 
HETATM    6  O1  UNL     1      51.537  36.481  45.196  1.00  0.00    -0.262 OA
HETATM    7  C3  UNL     1      49.700  35.491  46.070  1.00  0.00     0.315 A 
HETATM    8  O2  UNL     1      49.665  36.304  47.034  1.00  0.00    -0.262 OA
HETATM    9  N3  UNL     1      48.791  34.510  45.946  1.00  0.00    -0.304 N 
ATOM     10  H3  UNL     1      48.058  34.428  46.652  1.00  0.00     0.170 HD
HETATM   11  C4  UNL     1      48.807  33.636  44.935  1.00  0.00     0.160 A 
HETATM   12  N4  UNL     1      47.834  32.600  44.817  1.00  0.00    -0.079 NA
ENDROOT
TORSDOF 0
ENDMDL
MODEL 3
REMARK VINA RESULT: -5.367460525      2.336      3.304
REMARK  0 active torsions:
REMARK  status: ('A' for Active; 'I' for Inactive)
ROOT
HETATM    1  N1  UNL     1      49.757  36.236  47.094  1.00  0.00    -0.079 NA
HETATM    2  C1  UNL     1      49.652  35.302  46.031  1.00  0.00     0.160 A 
HETATM    3  N2  UNL     1      48.658  34.379  46.014  1.00  0.00    -0.304 N 
ATOM      4  H2  UNL     1      47.963  34.329  46.759  1.00  0.00     0.170 HD
HETATM    5  C2  UNL     1      48.633  33.532  44.968  1.00  0.00     0.315 A 
HETATM    6  O1  UNL     1      47.728  32.662  44.917  1.00  0.00    -0.262 OA
HETATM    7  C3  UNL     1      49.556  33.570  43.940  1.00  0.00     0.315 A 
HETATM    8  O2  UNL     1      49.499  32.758  42.977  1.00  0.00    -0.262 OA
HETATM    9  N3  UNL     1      50.516  34.507  44.014  1.00  0.00    -0.304 N 
ATOM     10  H3  UNL     1      51.210  34.556  43.268  1.00  0.00     0.170 HD
HETATM   11  C4  UNL     1      50.597  35.377  45.025  1.00  0.00     0.160 A 
HETATM   12  N4  UNL     1      51.622  36.366  45.088  1.00  0.00    -0.079 NA
ENDROOT
TORSDOF 0
ENDMDL
MODEL 4
REMARK VINA RESULT: -5.305690753      5.722      7.142
REMARK  0 active torsions:
REMARK  status: ('A' for Active; 'I' for Inactive)
ROOT
HETATM    1  N1  UNL     1      55.167  36.719  42.740  1.00  0.00    -0.079 NA
HETATM    2  C1  UNL     1      55.343  37.527  43.893  1.00  0.00     0.160 A 
HETATM    3  N2  UNL     1      56.173  38.599  43.869  1.00  0.00    -0.304 N 
ATOM      4  H2  UNL     1      56.691  38.854  43.027  1.00  0.00     0.170 HD
HETATM    5  C2  UNL     1      56.282  39.310  45.007  1.00  0.00     0.315 A 
HETATM    6  O1  UNL     1      57.042  40.310  45.023  1.00  0.00    -0.262 OA
HETATM    7  C3  UNL     1      55.597  38.996  46.165  1.00  0.00     0.315 A 
HETATM    8  O2  UNL     1      55.726  39.687  47.212  1.00  0.00    -0.262 OA
HETATM    9  N3  UNL     1      54.791  37.922  46.126  1.00  0.00    -0.304 N 
ATOM     10  H3  UNL     1      54.273  37.668  46.968  1.00  0.00     0.170 HD
HETATM   11  C4  UNL     1      54.638  37.175  45.029  1.00  0.00     0.160 A 
HETATM   12  N4  UNL     1      53.777  36.038  45.005  1.00  0.00    -0.079 NA
ENDROOT
TORSDOF 0
ENDMDL
MODEL 5
REMARK VINA RESULT: -5.288883674      2.339      4.007
REMARK  0 active torsions:
REMARK  status: ('A' for Active; 'I' for Inactive)
ROOT
HETATM    1  N1  UNL     1      51.652  36.308  45.101  1.00  0.00    -0.079 NA
HETATM    2  C1  UNL     1      50.633  35.326  45.004  1.00  0.00     0.160 A 
HETATM    3  N2  UNL     1      50.606  34.454  43.966  1.00  0.00    -0.304 N 
ATOM      4  H2  UNL     1      51.312  34.479  43.230  1.00  0.00     0.170 HD
HETATM    5  C2  UNL     1      49.603  33.556  43.952  1.00  0.00     0.315 A 
HETATM    6  O1  UNL     1      49.545  32.732  43.005  1.00  0.00    -0.262 OA
HETATM    7  C3  UNL     1      48.630  33.491  44.930  1.00  0.00     0.315 A 
HETATM    8  O2  UNL     1      47.706  32.634  44.881  1.00  0.00    -0.262 OA
HETATM    9  N3  UNL     1      48.711  34.381  45.933  1.00  0.00    -0.304 N 
ATOM     10  H3  UNL     1      48.004  34.356  46.668  1.00  0.00     0.170 HD
HETATM   11  C4  UNL     1      49.680  35.299  46.005  1.00  0.00     0.160 A 
HETATM   12  N4  UNL     1      49.751  36.237  47.077  1.00  0.00    -0.079 NA
ENDROOT
TORSDOF 0
ENDMDL
