MODEL 1
REMARK VINA RESULT: -4.984870962      0.000      0.000
REMARK  2 active torsions:
REMARK  status: ('A' for Active; 'I' for Inactive)
REMARK    1  A    between atoms: N2_5  and  N3_6 
REMARK    2  A    between atoms: N4_10  and  N5_12 
ROOT
HETATM    1  N1  UNL     1      55.541  36.382  41.902  1.00  0.00    -0.190 NA
HETATM    2  C1  UNL     1      55.509  36.944  42.915  1.00  0.00     0.120 C 
HETATM    3  C2  UNL     1      55.444  37.651  44.184  1.00  0.00     0.147 A 
HETATM    4  C3  UNL     1      56.215  38.681  44.442  1.00  0.00     0.177 A 
HETATM    5  N2  UNL     1      56.184  39.404  45.672  1.00  0.00    -0.099 N 
HETATM    6  C4  UNL     1      55.277  39.002  46.685  1.00  0.00     0.731 A 
HETATM    7  N4  UNL     1      55.216  39.630  47.818  1.00  0.00    -0.136 N 
ATOM      8  H4  UNL     1      54.561  39.334  48.541  1.00  0.00     0.205 HD
HETATM    9  N6  UNL     1      54.411  37.874  46.441  1.00  0.00    -0.128 N 
ATOM     10  H6  UNL     1      53.742  37.549  47.139  1.00  0.00     0.205 HD
HETATM   11  N7  UNL     1      54.537  37.255  45.202  1.00  0.00    -0.275 N 
ATOM     12  H7  UNL     1      53.933  36.456  45.010  1.00  0.00     0.188 HD
ENDROOT
BRANCH   5  13
HETATM   13  N3  UNL     1      57.041  40.499  45.882  1.00  0.00    -0.324 N 
ATOM     14  H32 UNL     1      57.910  40.579  45.356  1.00  0.00     0.178 HD
ATOM     15  H31 UNL     1      56.802  41.224  46.559  1.00  0.00     0.178 HD
ENDBRANCH   5  13
BRANCH   7  16
HETATM   16  N5  UNL     1      56.060  40.712  48.027  1.00  0.00    -0.331 N 
ATOM     17  H52 UNL     1      55.979  41.258  48.885  1.00  0.00     0.177 HD
ATOM     18  H51 UNL     1      56.751  40.941  47.312  1.00  0.00     0.177 HD
ENDBRANCH   7  16
TORSDOF 2
ENDMDL
MODEL 2
REMARK VINA RESULT: -4.954822425      1.338      4.848
REMARK  2 active torsions:
REMARK  status: ('A' for Active; 'I' for Inactive)
REMARK    1  A    between atoms: N2_5  and  N3_6 
REMARK    2  A    between atoms: N4_10  and  N5_12 
ROOT
HETATM    1  N1  UNL     1      55.696  40.675  48.295  1.00  0.00    -0.190 NA
HETATM    2  C1  UNL     1      55.813  40.177  47.254  1.00  0.00     0.120 C 
HETATM    3  C2  UNL     1      55.952  39.572  45.939  1.00  0.00     0.147 A 
HETATM    4  C3  UNL     1      55.472  38.380  45.672  1.00  0.00     0.177 A 
HETATM    5  N2  UNL     1      55.585  37.750  44.397  1.00  0.00    -0.099 N 
HETATM    6  C4  UNL     1      56.250  38.433  43.347  1.00  0.00     0.731 A 
HETATM    7  N4  UNL     1      56.375  37.897  42.173  1.00  0.00    -0.136 N 
ATOM      8  H4  UNL     1      56.855  38.395  41.423  1.00  0.00     0.205 HD
HETATM    9  N6  UNL     1      56.792  39.746  43.599  1.00  0.00    -0.128 N 
ATOM     10  H6  UNL     1      57.278  40.276  42.875  1.00  0.00     0.205 HD
HETATM   11  N7  UNL     1      56.616  40.250  44.883  1.00  0.00    -0.275 N 
ATOM     12  H7  UNL     1      56.991  41.178  45.081  1.00  0.00     0.188 HD
ENDROOT
BRANCH   5  13
HETATM   13  N3  UNL     1      55.047  36.469  44.180  1.00  0.00    -0.324 N 
ATOM     14  H32 UNL     1      54.042  36.315  44.253  1.00  0.00     0.178 HD
ATOM     15  H31 UNL     1      55.654  35.683  43.947  1.00  0.00     0.178 HD
ENDBRANCH   5  13
BRANCH   7  16
HETATM   16  N5  UNL     1      55.845  36.632  41.956  1.00  0.00    -0.331 N 
ATOM     17  H52 UNL     1      55.182  36.241  42.626  1.00  0.00     0.177 HD
ATOM     18  H51 UNL     1      56.131  36.116  41.124  1.00  0.00     0.177 HD
ENDBRANCH   7  16
TORSDOF 2
ENDMDL
MODEL 3
REMARK VINA RESULT: -4.873833740      1.341      4.370
REMARK  2 active torsions:
REMARK  status: ('A' for Active; 'I' for Inactive)
REMARK    1  A    between atoms: N2_5  and  N3_6 
REMARK    2  A    between atoms: N4_10  and  N5_12 
ROOT
HETATM    1  N1  UNL     1      55.572  41.016  48.576  1.00  0.00    -0.190 NA
HETATM    2  C1  UNL     1      55.569  40.351  47.626  1.00  0.00     0.120 C 
HETATM    3  C2  UNL     1      55.571  39.499  46.448  1.00  0.00     0.147 A 
HETATM    4  C3  UNL     1      56.256  39.808  45.372  1.00  0.00     0.177 A 
HETATM    5  N2  UNL     1      56.287  39.001  44.196  1.00  0.00    -0.099 N 
HETATM    6  C4  UNL     1      55.543  37.794  44.168  1.00  0.00     0.731 A 
HETATM    7  N4  UNL     1      55.543  37.031  43.120  1.00  0.00    -0.136 N 
ATOM      8  H4  UNL     1      55.005  36.164  43.108  1.00  0.00     0.205 HD
HETATM    9  N6  UNL     1      54.777  37.417  45.331  1.00  0.00    -0.128 N 
ATOM     10  H6  UNL     1      54.227  36.558  45.358  1.00  0.00     0.205 HD
HETATM   11  N7  UNL     1      54.830  38.289  46.413  1.00  0.00    -0.275 N 
ATOM     12  H7  UNL     1      54.295  38.040  47.246  1.00  0.00     0.188 HD
ENDROOT
BRANCH   5  13
HETATM   13  N3  UNL     1      57.042  39.393  43.077  1.00  0.00    -0.324 N 
ATOM     14  H32 UNL     1      56.886  40.302  42.645  1.00  0.00     0.178 HD
ATOM     15  H31 UNL     1      57.754  38.774  42.687  1.00  0.00     0.178 HD
ENDBRANCH   5  13
BRANCH   7  16
HETATM   16  N5  UNL     1      56.289  37.415  42.014  1.00  0.00    -0.331 N 
ATOM     17  H52 UNL     1      55.920  37.258  41.076  1.00  0.00     0.177 HD
ATOM     18  H51 UNL     1      57.199  37.851  42.163  1.00  0.00     0.177 HD
ENDBRANCH   7  16
TORSDOF 2
ENDMDL
MODEL 4
REMARK VINA RESULT: -4.821772510      1.261      2.336
REMARK  2 active torsions:
REMARK  status: ('A' for Active; 'I' for Inactive)
REMARK    1  A    between atoms: N2_5  and  N3_6 
REMARK    2  A    between atoms: N4_10  and  N5_12 
ROOT
HETATM    1  N1  UNL     1      55.771  35.643  41.033  1.00  0.00    -0.190 NA
HETATM    2  C1  UNL     1      55.795  36.423  41.892  1.00  0.00     0.120 C 
HETATM    3  C2  UNL     1      55.849  37.401  42.966  1.00  0.00     0.147 A 
HETATM    4  C3  UNL     1      55.209  37.220  44.098  1.00  0.00     0.177 A 
HETATM    5  N2  UNL     1      55.234  38.152  45.178  1.00  0.00    -0.099 N 
HETATM    6  C4  UNL     1      55.986  39.347  45.040  1.00  0.00     0.731 A 
HETATM    7  N4  UNL     1      56.037  40.221  45.997  1.00  0.00    -0.136 N 
ATOM      8  H4  UNL     1      56.581  41.077  45.890  1.00  0.00     0.205 HD
HETATM    9  N6  UNL     1      56.705  39.583  43.812  1.00  0.00    -0.128 N 
ATOM     10  H6  UNL     1      57.260  40.427  43.667  1.00  0.00     0.205 HD
HETATM   11  N7  UNL     1      56.600  38.598  42.836  1.00  0.00    -0.275 N 
ATOM     12  H7  UNL     1      57.102  38.746  41.960  1.00  0.00     0.188 HD
ENDROOT
BRANCH   5  13
HETATM   13  N3  UNL     1      54.524  37.895  46.363  1.00  0.00    -0.324 N 
ATOM     14  H32 UNL     1      53.526  38.095  46.418  1.00  0.00     0.178 HD
ATOM     15  H31 UNL     1      54.997  37.507  47.180  1.00  0.00     0.178 HD
ENDBRANCH   5  13
BRANCH   7  16
HETATM   16  N5  UNL     1      55.337  39.969  47.169  1.00  0.00    -0.331 N 
ATOM     17  H52 UNL     1      55.819  39.552  47.966  1.00  0.00     0.177 HD
ATOM     18  H51 UNL     1      54.346  40.207  47.210  1.00  0.00     0.177 HD
ENDBRANCH   7  16
TORSDOF 2
ENDMDL
MODEL 5
REMARK VINA RESULT: -4.787580067      1.368      2.584
REMARK  2 active torsions:
REMARK  status: ('A' for Active; 'I' for Inactive)
REMARK    1  A    between atoms: N2_5  and  N3_6 
REMARK    2  A    between atoms: N4_10  and  N5_12 
ROOT
HETATM    1  N1  UNL     1      54.936  36.450  44.012  1.00  0.00    -0.190 NA
HETATM    2  C1  UNL     1      55.167  37.301  44.764  1.00  0.00     0.120 C 
HETATM    3  C2  UNL     1      55.479  38.360  45.710  1.00  0.00     0.147 A 
HETATM    4  C3  UNL     1      54.678  38.653  46.709  1.00  0.00     0.177 A 
HETATM    5  N2  UNL     1      54.945  39.682  47.660  1.00  0.00    -0.099 N 
HETATM    6  C4  UNL     1      56.135  40.444  47.537  1.00  0.00     0.731 A 
HETATM    7  N4  UNL     1      56.416  41.388  48.379  1.00  0.00    -0.136 N 
ATOM      8  H4  UNL     1      57.275  41.931  48.284  1.00  0.00     0.205 HD
HETATM    9  N6  UNL     1      57.042  40.153  46.454  1.00  0.00    -0.128 N 
ATOM     10  H6  UNL     1      57.911  40.673  46.325  1.00  0.00     0.205 HD
HETATM   11  N7  UNL     1      56.669  39.126  45.594  1.00  0.00    -0.275 N 
ATOM     12  H7  UNL     1      57.297  38.905  44.822  1.00  0.00     0.188 HD
ENDROOT
BRANCH   5  13
HETATM   13  N3  UNL     1      54.043  39.943  48.706  1.00  0.00    -0.324 N 
ATOM     14  H32 UNL     1      53.048  39.757  48.584  1.00  0.00     0.178 HD
ATOM     15  H31 UNL     1      54.371  40.319  49.596  1.00  0.00     0.178 HD
ENDBRANCH   5  13
BRANCH   7  16
HETATM   16  N5  UNL     1      55.527  41.648  49.413  1.00  0.00    -0.331 N 
ATOM     17  H52 UNL     1      54.523  41.573  49.247  1.00  0.00     0.177 HD
ATOM     18  H51 UNL     1      55.899  41.910  50.326  1.00  0.00     0.177 HD
ENDBRANCH   7  16
TORSDOF 2
ENDMDL
