MODEL 1
REMARK VINA RESULT: -4.941251822      0.000      0.000
REMARK  1 active torsions:
REMARK  status: ('A' for Active; 'I' for Inactive)
REMARK    1  A    between atoms: N3_10  and  N4_11 
ROOT
HETATM    1  N1  UNL     1      54.226  36.822  45.754  1.00  0.00    -0.080 NA
HETATM    2  C1  UNL     1      55.037  37.964  45.788  1.00  0.00     0.147 A 
HETATM    3  C2  UNL     1      55.164  38.679  46.966  1.00  0.00     0.121 A 
HETATM    4  C3  UNL     1      55.970  39.797  46.965  1.00  0.00     0.252 A 
HETATM    5  O1  UNL     1      56.120  40.481  48.004  1.00  0.00    -0.268 OA
HETATM    6  N2  UNL     1      56.602  40.151  45.824  1.00  0.00    -0.274 N 
ATOM      7  H2  UNL     1      57.200  40.976  45.814  1.00  0.00     0.173 HD
HETATM    8  C4  UNL     1      56.452  39.426  44.700  1.00  0.00     0.349 A 
HETATM    9  O2  UNL     1      57.042  39.763  43.648  1.00  0.00    -0.244 OA
HETATM   10  N3  UNL     1      55.671  38.319  44.648  1.00  0.00    -0.198 N 
ENDROOT
BRANCH  10  11
HETATM   11  N4  UNL     1      55.545  37.600  43.461  1.00  0.00    -0.333 N 
ATOM     12  H42 UNL     1      56.290  36.973  43.155  1.00  0.00     0.177 HD
ATOM     13  H41 UNL     1      54.724  37.667  42.860  1.00  0.00     0.177 HD
ENDBRANCH  10  11
TORSDOF 1
ENDMDL
MODEL 2
REMARK VINA RESULT: -4.571648802      7.113      8.652
REMARK  1 active torsions:
REMARK  status: ('A' for Active; 'I' for Inactive)
REMARK    1  A    between atoms: N3_10  and  N4_11 
ROOT
HETATM    1  N1  UNL     1      51.342  36.178  45.210  1.00  0.00    -0.080 NA
HETATM    2  C1  UNL     1      50.528  35.119  44.786  1.00  0.00     0.147 A 
HETATM    3  C2  UNL     1      50.805  34.479  43.592  1.00  0.00     0.121 A 
HETATM    4  C3  UNL     1      49.985  33.442  43.203  1.00  0.00     0.252 A 
HETATM    5  O1  UNL     1      50.190  32.827  42.131  1.00  0.00    -0.268 OA
HETATM    6  N2  UNL     1      48.948  33.091  43.997  1.00  0.00    -0.274 N 
ATOM      7  H2  UNL     1      48.335  32.325  43.717  1.00  0.00     0.173 HD
HETATM    8  C4  UNL     1      48.714  33.741  45.152  1.00  0.00     0.349 A 
HETATM    9  O2  UNL     1      47.751  33.407  45.880  1.00  0.00    -0.244 OA
HETATM   10  N3  UNL     1      49.491  34.767  45.579  1.00  0.00    -0.198 N 
ENDROOT
BRANCH  10  11
HETATM   11  N4  UNL     1      49.210  35.411  46.783  1.00  0.00    -0.333 N 
ATOM     12  H42 UNL     1      49.041  36.417  46.803  1.00  0.00     0.177 HD
ATOM     13  H41 UNL     1      49.162  34.917  47.674  1.00  0.00     0.177 HD
ENDBRANCH  10  11
TORSDOF 1
ENDMDL
MODEL 3
REMARK VINA RESULT: -4.559916324      7.309      8.440
REMARK  1 active torsions:
REMARK  status: ('A' for Active; 'I' for Inactive)
REMARK    1  A    between atoms: N3_10  and  N4_11 
ROOT
HETATM    1  N1  UNL     1      50.677  33.784  42.478  1.00  0.00    -0.080 NA
HETATM    2  C1  UNL     1      50.033  34.094  43.682  1.00  0.00     0.147 A 
HETATM    3  C2  UNL     1      50.474  35.167  44.437  1.00  0.00     0.121 A 
HETATM    4  C3  UNL     1      49.819  35.446  45.617  1.00  0.00     0.252 A 
HETATM    5  O1  UNL     1      50.177  36.404  46.340  1.00  0.00    -0.268 OA
HETATM    6  N2  UNL     1      48.778  34.668  45.990  1.00  0.00    -0.274 N 
ATOM      7  H2  UNL     1      48.287  34.867  46.862  1.00  0.00     0.173 HD
HETATM    8  C4  UNL     1      48.381  33.635  45.225  1.00  0.00     0.349 A 
HETATM    9  O2  UNL     1      47.414  32.921  45.580  1.00  0.00    -0.244 OA
HETATM   10  N3  UNL     1      48.991  33.319  44.056  1.00  0.00    -0.198 N 
ENDROOT
BRANCH  10  11
HETATM   11  N4  UNL     1      48.545  32.238  43.297  1.00  0.00    -0.333 N 
ATOM     12  H42 UNL     1      49.063  31.359  43.296  1.00  0.00     0.177 HD
ATOM     13  H41 UNL     1      47.703  32.278  42.724  1.00  0.00     0.177 HD
ENDBRANCH  10  11
TORSDOF 1
ENDMDL
MODEL 4
REMARK VINA RESULT: -4.513717743      2.439      3.365
REMARK  1 active torsions:
REMARK  status: ('A' for Active; 'I' for Inactive)
REMARK    1  A    between atoms: N3_10  and  N4_11 
ROOT
HETATM    1  N1  UNL     1      57.005  40.044  44.358  1.00  0.00    -0.080 NA
HETATM    2  C1  UNL     1      56.259  38.865  44.237  1.00  0.00     0.147 A 
HETATM    3  C2  UNL     1      55.605  38.352  45.343  1.00  0.00     0.121 A 
HETATM    4  C3  UNL     1      54.880  37.190  45.190  1.00  0.00     0.252 A 
HETATM    5  O1  UNL     1      54.269  36.681  46.159  1.00  0.00    -0.268 OA
HETATM    6  N2  UNL     1      54.834  36.600  43.975  1.00  0.00    -0.274 N 
ATOM      7  H2  UNL     1      54.300  35.739  43.853  1.00  0.00     0.173 HD
HETATM    8  C4  UNL     1      55.484  37.133  42.925  1.00  0.00     0.349 A 
HETATM    9  O2  UNL     1      55.433  36.578  41.803  1.00  0.00    -0.244 OA
HETATM   10  N3  UNL     1      56.210  38.274  43.022  1.00  0.00    -0.198 N 
ENDROOT
BRANCH  10  11
HETATM   11  N4  UNL     1      56.867  38.789  41.906  1.00  0.00    -0.333 N 
ATOM     12  H42 UNL     1      57.887  38.787  41.861  1.00  0.00     0.177 HD
ATOM     13  H41 UNL     1      56.371  39.181  41.107  1.00  0.00     0.177 HD
ENDBRANCH  10  11
TORSDOF 1
ENDMDL
MODEL 5
REMARK VINA RESULT: -4.461152905      2.181      3.243
REMARK  1 active torsions:
REMARK  status: ('A' for Active; 'I' for Inactive)
REMARK    1  A    between atoms: N3_10  and  N4_11 
ROOT
HETATM    1  N1  UNL     1      56.536  38.273  42.385  1.00  0.00    -0.080 NA
HETATM    2  C1  UNL     1      55.968  38.232  43.665  1.00  0.00     0.147 A 
HETATM    3  C2  UNL     1      55.167  37.163  44.025  1.00  0.00     0.121 A 
HETATM    4  C3  UNL     1      54.624  37.154  45.291  1.00  0.00     0.252 A 
HETATM    5  O1  UNL     1      53.891  36.211  45.670  1.00  0.00    -0.268 OA
HETATM    6  N2  UNL     1      54.892  38.181  46.129  1.00  0.00    -0.274 N 
ATOM      7  H2  UNL     1      54.494  38.183  47.068  1.00  0.00     0.173 HD
HETATM    8  C4  UNL     1      55.677  39.202  45.738  1.00  0.00     0.349 A 
HETATM    9  O2  UNL     1      55.919  40.148  46.522  1.00  0.00    -0.244 OA
HETATM   10  N3  UNL     1      56.235  39.258  44.503  1.00  0.00    -0.198 N 
ENDROOT
BRANCH  10  11
HETATM   11  N4  UNL     1      57.042  40.336  44.143  1.00  0.00    -0.333 N 
ATOM     12  H42 UNL     1      56.854  41.268  44.513  1.00  0.00     0.177 HD
ATOM     13  H41 UNL     1      57.836  40.243  43.510  1.00  0.00     0.177 HD
ENDBRANCH  10  11
TORSDOF 1
ENDMDL
