MODEL 1
REMARK VINA RESULT: -5.874082641      0.000      0.000
REMARK  0 active torsions:
REMARK  status: ('A' for Active; 'I' for Inactive)
ROOT
HETATM    1  O1  UNL     1      55.903  40.330  46.738  1.00  0.00    -0.247 OA
HETATM    2  C1  UNL     1      55.689  39.378  45.913  1.00  0.00     0.328 A 
HETATM    3  N1  UNL     1      54.964  38.308  46.252  1.00  0.00    -0.273 N 
ATOM      4  H1  UNL     1      54.573  38.251  47.192  1.00  0.00     0.173 HD
HETATM    5  C2  UNL     1      54.737  37.304  45.388  1.00  0.00     0.281 A 
HETATM    6  O2  UNL     1      54.058  36.333  45.748  1.00  0.00    -0.265 OA
HETATM    7  C3  UNL     1      55.295  37.436  44.129  1.00  0.00     0.160 A 
HETATM    8  N2  UNL     1      55.264  36.636  43.050  1.00  0.00    -0.276 N 
ATOM      9  H2  UNL     1      54.785  35.738  42.993  1.00  0.00     0.184 HD
HETATM   10  N3  UNL     1      55.958  37.202  42.066  1.00  0.00    -0.020 NA
HETATM   11  N4  UNL     1      56.454  38.363  42.456  1.00  0.00    -0.267 N 
ATOM     12  H4  UNL     1      57.023  39.005  41.904  1.00  0.00     0.186 HD
HETATM   13  C4  UNL     1      56.049  38.528  43.750  1.00  0.00     0.156 A 
HETATM   14  N5  UNL     1      56.228  39.488  44.674  1.00  0.00    -0.291 N 
ATOM     15  H5  UNL     1      56.778  40.315  44.439  1.00  0.00     0.172 HD
ENDROOT
TORSDOF 0
ENDMDL
MODEL 2
REMARK VINA RESULT: -5.629816150      1.757      3.327
REMARK  0 active torsions:
REMARK  status: ('A' for Active; 'I' for Inactive)
ROOT
HETATM    1  O1  UNL     1      55.920  37.223  41.971  1.00  0.00    -0.247 OA
HETATM    2  C1  UNL     1      55.683  37.526  43.190  1.00  0.00     0.328 A 
HETATM    3  N1  UNL     1      54.949  36.734  43.978  1.00  0.00    -0.273 N 
ATOM      4  H1  UNL     1      54.570  35.867  43.596  1.00  0.00     0.173 HD
HETATM    5  C2  UNL     1      54.697  37.048  45.260  1.00  0.00     0.281 A 
HETATM    6  O2  UNL     1      54.013  36.283  45.952  1.00  0.00    -0.265 OA
HETATM    7  C3  UNL     1      55.236  38.237  45.720  1.00  0.00     0.160 A 
HETATM    8  N2  UNL     1      55.179  38.838  46.921  1.00  0.00    -0.276 N 
ATOM      9  H2  UNL     1      54.690  38.477  47.740  1.00  0.00     0.184 HD
HETATM   10  N3  UNL     1      55.862  39.978  46.872  1.00  0.00    -0.020 NA
HETATM   11  N4  UNL     1      56.379  40.159  45.669  1.00  0.00    -0.267 N 
ATOM     12  H4  UNL     1      56.947  40.946  45.357  1.00  0.00     0.186 HD
HETATM   13  C4  UNL     1      55.996  39.075  44.930  1.00  0.00     0.156 A 
HETATM   14  N5  UNL     1      56.201  38.686  43.660  1.00  0.00    -0.291 N 
ATOM     15  H5  UNL     1      56.758  39.275  43.039  1.00  0.00     0.172 HD
ENDROOT
TORSDOF 0
ENDMDL
MODEL 3
REMARK VINA RESULT: -5.541108540      1.894      2.695
REMARK  0 active torsions:
REMARK  status: ('A' for Active; 'I' for Inactive)
ROOT
HETATM    1  O1  UNL     1      55.365  40.393  48.033  1.00  0.00    -0.247 OA
HETATM    2  C1  UNL     1      55.473  39.726  46.948  1.00  0.00     0.328 A 
HETATM    3  N1  UNL     1      56.220  40.164  45.930  1.00  0.00    -0.273 N 
ATOM      4  H1  UNL     1      56.715  41.051  46.022  1.00  0.00     0.173 HD
HETATM    5  C2  UNL     1      56.338  39.467  44.787  1.00  0.00     0.281 A 
HETATM    6  O2  UNL     1      57.042  39.912  43.871  1.00  0.00    -0.265 OA
HETATM    7  C3  UNL     1      55.642  38.273  44.719  1.00  0.00     0.160 A 
HETATM    8  N2  UNL     1      55.542  37.351  43.746  1.00  0.00    -0.276 N 
ATOM      9  H2  UNL     1      56.002  37.399  42.838  1.00  0.00     0.184 HD
HETATM   10  N3  UNL     1      54.747  36.367  44.157  1.00  0.00    -0.020 NA
HETATM   11  N4  UNL     1      54.311  36.602  45.383  1.00  0.00    -0.267 N 
ATOM     12  H4  UNL     1      53.691  36.012  45.938  1.00  0.00     0.186 HD
HETATM   13  C4  UNL     1      54.862  37.796  45.753  1.00  0.00     0.156 A 
HETATM   14  N5  UNL     1      54.800  38.554  46.862  1.00  0.00    -0.291 N 
ATOM     15  H5  UNL     1      54.235  38.241  47.652  1.00  0.00     0.172 HD
ENDROOT
TORSDOF 0
ENDMDL
MODEL 4
REMARK VINA RESULT: -5.505033375      1.559      3.279
REMARK  0 active torsions:
REMARK  status: ('A' for Active; 'I' for Inactive)
ROOT
HETATM    1  O1  UNL     1      55.365  36.113  41.728  1.00  0.00    -0.247 OA
HETATM    2  C1  UNL     1      55.388  36.785  42.816  1.00  0.00     0.328 A 
HETATM    3  N1  UNL     1      54.792  36.339  43.926  1.00  0.00    -0.273 N 
ATOM      4  H1  UNL     1      54.307  35.442  43.903  1.00  0.00     0.173 HD
HETATM    5  C2  UNL     1      54.814  37.041  45.071  1.00  0.00     0.281 A 
HETATM    6  O2  UNL     1      54.248  36.588  46.075  1.00  0.00    -0.265 OA
HETATM    7  C3  UNL     1      55.485  38.251  45.040  1.00  0.00     0.160 A 
HETATM    8  N2  UNL     1      55.695  39.181  45.987  1.00  0.00    -0.276 N 
ATOM      9  H2  UNL     1      55.363  39.130  46.950  1.00  0.00     0.184 HD
HETATM   10  N3  UNL     1      56.405  40.180  45.469  1.00  0.00    -0.020 NA
HETATM   11  N4  UNL     1      56.680  39.944  44.198  1.00  0.00    -0.267 N 
ATOM     12  H4  UNL     1      57.209  40.542  43.563  1.00  0.00     0.186 HD
HETATM   13  C4  UNL     1      56.109  38.737  43.909  1.00  0.00     0.156 A 
HETATM   14  N5  UNL     1      56.041  37.972  42.806  1.00  0.00    -0.291 N 
ATOM     15  H5  UNL     1      56.488  38.291  41.946  1.00  0.00     0.172 HD
ENDROOT
TORSDOF 0
ENDMDL
MODEL 5
REMARK VINA RESULT: -5.375446678      1.121      1.330
REMARK  0 active torsions:
REMARK  status: ('A' for Active; 'I' for Inactive)
ROOT
HETATM    1  O1  UNL     1      55.584  40.482  48.041  1.00  0.00    -0.247 OA
HETATM    2  C1  UNL     1      55.586  39.788  46.968  1.00  0.00     0.328 A 
HETATM    3  N1  UNL     1      54.876  38.661  46.862  1.00  0.00    -0.273 N 
ATOM      4  H1  UNL     1      54.320  38.348  47.658  1.00  0.00     0.173 HD
HETATM    5  C2  UNL     1      54.874  37.928  45.736  1.00  0.00     0.281 A 
HETATM    6  O2  UNL     1      54.200  36.891  45.685  1.00  0.00    -0.265 OA
HETATM    7  C3  UNL     1      55.649  38.401  44.692  1.00  0.00     0.160 A 
HETATM    8  N2  UNL     1      55.868  37.924  43.455  1.00  0.00    -0.276 N 
ATOM      9  H2  UNL     1      55.462  37.072  43.070  1.00  0.00     0.184 HD
HETATM   10  N3  UNL     1      56.699  38.741  42.812  1.00  0.00    -0.020 NA
HETATM   11  N4  UNL     1      57.042  39.756  43.585  1.00  0.00    -0.267 N 
ATOM     12  H4  UNL     1      57.665  40.528  43.345  1.00  0.00     0.186 HD
HETATM   13  C4  UNL     1      56.393  39.560  44.771  1.00  0.00     0.156 A 
HETATM   14  N5  UNL     1      56.339  40.234  45.933  1.00  0.00    -0.291 N 
ATOM     15  H5  UNL     1      56.873  41.097  46.038  1.00  0.00     0.172 HD
ENDROOT
TORSDOF 0
ENDMDL
