MODEL 1
REMARK VINA RESULT: -8.562267044      0.000      0.000
REMARK  20 active torsions:
REMARK  status: ('A' for Active; 'I' for Inactive)
REMARK    1  A    between atoms: C1_2  and  O2_3 
REMARK    2  A    between atoms: C1_2  and  C8_24 
REMARK    3  A    between atoms: O2_3  and  C2_4 
REMARK    4  A    between atoms: C2_4  and  C3_5 
REMARK    5  A    between atoms: C2_4  and  C4_11 
REMARK    6  A    between atoms: C3_5  and  O3_6 
REMARK    7  A    between atoms: O3_6  and  S1_7 
REMARK    8  A    between atoms: C4_11  and  N1_12 
REMARK    9  A    between atoms: C6_14  and  C7_15 
REMARK   10  A    between atoms: C7_15  and  O7_16 
REMARK   11  A    between atoms: C7_15  and  O8_18 
REMARK   12  A    between atoms: C9_27  and  N5_28 
REMARK   13  A    between atoms: C10_33  and  C11_34 
REMARK   14  A    between atoms: C11_34  and  C12_35 
REMARK   15  A    between atoms: C14_37  and  O9_38 
REMARK   16  A    between atoms: C15_40  and  O10_41 
REMARK   17  A    between atoms: C16_43  and  O11_44 
REMARK   18  A    between atoms: C18_47  and  C19_48 
REMARK   19  A    between atoms: C19_48  and  O12_49 
REMARK   20  A    between atoms: N9_58  and  O14_59 
ROOT
HETATM    1  C8  UNL     1       7.032  31.188  29.146  1.00  0.00     0.139 A 
HETATM    2  N4  UNL     1       7.883  30.453  28.457  1.00  0.00    -0.334 N 
ATOM      3  H4  UNL     1       7.588  30.128  27.537  1.00  0.00     0.168 HD
HETATM    4  C9  UNL     1       9.143  30.090  28.886  1.00  0.00     0.131 A 
HETATM    5  C20 UNL     1       9.504  30.507  30.081  1.00  0.00     0.085 A 
HETATM    6  C21 UNL     1       8.652  31.309  30.871  1.00  0.00     0.100 A 
HETATM    7  C22 UNL     1       7.408  31.655  30.396  1.00  0.00     0.099 A 
HETATM    8  N8  UNL     1       6.804  32.523  31.238  1.00  0.00    -0.302 N 
ATOM      9  H8  UNL     1       5.885  32.952  31.135  1.00  0.00     0.171 HD
HETATM   10  C23 UNL     1       7.672  32.693  32.230  1.00  0.00     0.351 A 
HETATM   11  O13 UNL     1       7.427  33.464  33.220  1.00  0.00    -0.244 OA
HETATM   12  N9  UNL     1       8.779  31.969  32.026  1.00  0.00    -0.170 N 
ENDROOT
BRANCH   1  13
HETATM   13  C1  UNL     1       5.672  31.377  28.695  1.00  0.00     0.313 C 
HETATM   14  O1  UNL     1       5.291  32.506  28.367  1.00  0.00    -0.258 OA
BRANCH  13  15
HETATM   15  O2  UNL     1       4.724  30.332  28.578  1.00  0.00    -0.307 OA
BRANCH  15  16
HETATM   16  C2  UNL     1       4.607  29.800  27.282  1.00  0.00     0.177 C 
BRANCH  16  17
HETATM   17  C3  UNL     1       4.897  30.633  26.094  1.00  0.00     0.227 C 
BRANCH  17  18
HETATM   18  O3  UNL     1       5.087  29.555  25.124  1.00  0.00    -0.254 OA
BRANCH  18  19
HETATM   19  S1  UNL     1       6.682  29.294  24.812  1.00  0.00     0.251 S 
HETATM   20  O4  UNL     1       7.516  30.428  25.444  1.00  0.00    -0.572 OA
HETATM   21  O5  UNL     1       6.832  29.664  23.278  1.00  0.00    -0.572 OA
HETATM   22  O6  UNL     1       7.384  27.865  25.083  1.00  0.00    -0.572 OA
ENDBRANCH  18  19
ENDBRANCH  17  18
ENDBRANCH  16  17
BRANCH  16  23
HETATM   23  C4  UNL     1       3.909  28.502  27.192  1.00  0.00     0.184 C 
BRANCH  23  24
HETATM   24  N1  UNL     1       4.590  27.470  27.921  1.00  0.00    -0.284 N 
HETATM   25  C5  UNL     1       4.391  26.431  28.642  1.00  0.00     0.143 A 
HETATM   26  C6  UNL     1       5.601  25.831  28.941  1.00  0.00     0.098 A 
HETATM   27  N2  UNL     1       6.530  26.601  28.348  1.00  0.00    -0.284 N 
HETATM   28  N3  UNL     1       5.968  27.554  27.752  1.00  0.00    -0.240 N 
ATOM     29  H2  UNL     1       7.537  26.437  28.377  1.00  0.00     0.188 HD
ATOM     30  H3  UNL     1       6.450  28.281  27.223  1.00  0.00     0.208 HD
BRANCH  26  31
HETATM   31  C7  UNL     1       5.900  24.606  29.739  1.00  0.00     0.308 C 
BRANCH  31  32
HETATM   32  O7  UNL     1       7.036  24.628  30.466  1.00  0.00    -0.366 OA
ATOM     33  H7  UNL     1       7.844  24.751  29.982  1.00  0.00     0.213 HD
ENDBRANCH  31  32
BRANCH  31  34
HETATM   34  O8  UNL     1       4.745  24.464  30.537  1.00  0.00    -0.366 OA
ATOM     35  H8  UNL     1       4.625  23.522  30.567  1.00  0.00     0.213 HD
ENDBRANCH  31  34
ENDBRANCH  26  31
ENDBRANCH  23  24
ENDBRANCH  16  23
ENDBRANCH  15  16
ENDBRANCH  13  15
ENDBRANCH   1  13
BRANCH   4  36
HETATM   36  N5  UNL     1       9.954  29.633  27.749  1.00  0.00    -0.226 N 
HETATM   37  N6  UNL     1       9.608  28.692  26.921  1.00  0.00    -0.234 N 
HETATM   38  N7  UNL     1      10.195  28.894  25.731  1.00  0.00    -0.288 N 
ATOM     39  H6  UNL     1       8.984  27.916  27.143  1.00  0.00     0.209 HD
HETATM   40  C10 UNL     1      10.954  30.023  25.810  1.00  0.00     0.058 A 
ATOM     41  H7  UNL     1      10.092  28.302  24.907  1.00  0.00     0.188 HD
HETATM   42  C18 UNL     1      10.815  30.475  27.103  1.00  0.00     0.085 A 
BRANCH  40  43
HETATM   43  C11 UNL     1      11.561  30.747  24.665  1.00  0.00     0.099 C 
BRANCH  43  44
HETATM   44  C12 UNL     1      11.271  30.222  23.325  1.00  0.00    -0.047 A 
HETATM   45  C13 UNL     1      12.064  29.244  22.754  1.00  0.00     0.047 A 
HETATM   46  C14 UNL     1      11.711  28.601  21.584  1.00  0.00     0.102 A 
HETATM   47  C15 UNL     1      10.560  28.946  20.997  1.00  0.00     0.132 A 
HETATM   48  C16 UNL     1       9.736  29.941  21.546  1.00  0.00     0.102 A 
HETATM   49  C17 UNL     1      10.122  30.564  22.712  1.00  0.00     0.047 A 
BRANCH  46  50
HETATM   50  O9  UNL     1      12.533  27.653  21.021  1.00  0.00    -0.358 OA
ATOM     51  H9  UNL     1      13.284  27.906  20.495  1.00  0.00     0.217 HD
ENDBRANCH  46  50
BRANCH  47  52
HETATM   52  O10 UNL     1       9.949  28.386  19.831  1.00  0.00    -0.356 OA
ATOM     53  H10 UNL     1       9.932  28.733  18.947  1.00  0.00     0.218 HD
ENDBRANCH  47  52
BRANCH  48  54
HETATM   54  O11 UNL     1       8.555  30.265  20.886  1.00  0.00    -0.358 OA
ATOM     55  H11 UNL     1       8.275  31.173  20.875  1.00  0.00     0.217 HD
ENDBRANCH  48  54
ENDBRANCH  43  44
ENDBRANCH  40  43
BRANCH  42  56
HETATM   56  C19 UNL     1      11.424  31.657  27.671  1.00  0.00     0.225 C 
BRANCH  56  57
HETATM   57  O12 UNL     1      12.780  31.271  28.027  1.00  0.00    -0.395 OA
ATOM     58  H12 UNL     1      12.708  30.808  28.854  1.00  0.00     0.209 HD
ENDBRANCH  56  57
ENDBRANCH  42  56
ENDBRANCH   4  36
BRANCH  12  59
HETATM   59  O14 UNL     1       9.865  31.873  32.866  1.00  0.00    -0.278 OA
ATOM     60  H14 UNL     1       9.967  32.363  33.674  1.00  0.00     0.245 HD
ENDBRANCH  12  59
TORSDOF 20
ENDMDL
MODEL 2
REMARK VINA RESULT: -8.525928816      2.983      7.908
REMARK  20 active torsions:
REMARK  status: ('A' for Active; 'I' for Inactive)
REMARK    1  A    between atoms: C1_2  and  O2_3 
REMARK    2  A    between atoms: C1_2  and  C8_24 
REMARK    3  A    between atoms: O2_3  and  C2_4 
REMARK    4  A    between atoms: C2_4  and  C3_5 
REMARK    5  A    between atoms: C2_4  and  C4_11 
REMARK    6  A    between atoms: C3_5  and  O3_6 
REMARK    7  A    between atoms: O3_6  and  S1_7 
REMARK    8  A    between atoms: C4_11  and  N1_12 
REMARK    9  A    between atoms: C6_14  and  C7_15 
REMARK   10  A    between atoms: C7_15  and  O7_16 
REMARK   11  A    between atoms: C7_15  and  O8_18 
REMARK   12  A    between atoms: C9_27  and  N5_28 
REMARK   13  A    between atoms: C10_33  and  C11_34 
REMARK   14  A    between atoms: C11_34  and  C12_35 
REMARK   15  A    between atoms: C14_37  and  O9_38 
REMARK   16  A    between atoms: C15_40  and  O10_41 
REMARK   17  A    between atoms: C16_43  and  O11_44 
REMARK   18  A    between atoms: C18_47  and  C19_48 
REMARK   19  A    between atoms: C19_48  and  O12_49 
REMARK   20  A    between atoms: N9_58  and  O14_59 
ROOT
HETATM    1  C8  UNL     1      10.132  27.920  25.166  1.00  0.00     0.139 A 
HETATM    2  N4  UNL     1      10.247  29.200  25.462  1.00  0.00    -0.334 N 
ATOM      3  H4  UNL     1       9.819  29.523  26.329  1.00  0.00     0.168 HD
HETATM    4  C9  UNL     1      10.904  30.135  24.689  1.00  0.00     0.131 A 
HETATM    5  C20 UNL     1      11.440  29.704  23.568  1.00  0.00     0.085 A 
HETATM    6  C21 UNL     1      11.369  28.345  23.191  1.00  0.00     0.100 A 
HETATM    7  C22 UNL     1      10.713  27.446  24.000  1.00  0.00     0.099 A 
HETATM    8  N8  UNL     1      10.867  26.188  23.531  1.00  0.00    -0.302 N 
ATOM      9  H8  UNL     1      10.499  25.326  23.933  1.00  0.00     0.171 HD
HETATM   10  C23 UNL     1      11.602  26.321  22.432  1.00  0.00     0.351 A 
HETATM   11  O13 UNL     1      11.946  25.317  21.722  1.00  0.00    -0.244 OA
HETATM   12  N9  UNL     1      11.905  27.606  22.214  1.00  0.00    -0.170 N 
ENDROOT
BRANCH   1  13
HETATM   13  C1  UNL     1       9.282  27.047  25.943  1.00  0.00     0.313 C 
HETATM   14  O1  UNL     1       9.593  26.775  27.108  1.00  0.00    -0.258 OA
BRANCH  13  15
HETATM   15  O2  UNL     1       8.077  26.480  25.463  1.00  0.00    -0.307 OA
BRANCH  15  16
HETATM   16  C2  UNL     1       7.085  27.421  25.138  1.00  0.00     0.177 C 
BRANCH  16  17
HETATM   17  C3  UNL     1       6.449  28.243  26.191  1.00  0.00     0.227 C 
BRANCH  17  18
HETATM   18  O3  UNL     1       6.993  29.543  25.800  1.00  0.00    -0.254 OA
BRANCH  18  19
HETATM   19  S1  UNL     1       7.282  30.498  27.109  1.00  0.00     0.251 S 
HETATM   20  O4  UNL     1       7.821  31.863  26.632  1.00  0.00    -0.572 OA
HETATM   21  O5  UNL     1       8.601  29.886  27.739  1.00  0.00    -0.572 OA
HETATM   22  O6  UNL     1       6.184  30.706  28.276  1.00  0.00    -0.572 OA
ENDBRANCH  18  19
ENDBRANCH  17  18
ENDBRANCH  16  17
BRANCH  16  23
HETATM   23  C4  UNL     1       6.536  27.314  23.772  1.00  0.00     0.184 C 
BRANCH  23  24
HETATM   24  N1  UNL     1       7.354  27.992  22.806  1.00  0.00    -0.284 N 
HETATM   25  C5  UNL     1       7.965  27.826  21.693  1.00  0.00     0.143 A 
HETATM   26  C6  UNL     1       8.503  29.028  21.271  1.00  0.00     0.098 A 
HETATM   27  N2  UNL     1       8.169  29.915  22.226  1.00  0.00    -0.284 N 
HETATM   28  N3  UNL     1       7.505  29.337  23.122  1.00  0.00    -0.240 N 
ATOM     29  H2  UNL     1       8.418  30.905  22.223  1.00  0.00     0.188 HD
ATOM     30  H3  UNL     1       7.131  29.788  23.957  1.00  0.00     0.208 HD
BRANCH  26  31
HETATM   31  C7  UNL     1       9.293  29.357  20.049  1.00  0.00     0.308 C 
BRANCH  31  32
HETATM   32  O7  UNL     1      10.085  30.447  20.123  1.00  0.00    -0.366 OA
ATOM     33  H7  UNL     1      10.681  30.485  20.862  1.00  0.00     0.213 HD
ENDBRANCH  31  32
BRANCH  31  34
HETATM   34  O8  UNL     1      10.020  28.169  19.820  1.00  0.00    -0.366 OA
ATOM     35  H8  UNL     1      10.916  28.479  19.763  1.00  0.00     0.213 HD
ENDBRANCH  31  34
ENDBRANCH  26  31
ENDBRANCH  23  24
ENDBRANCH  16  23
ENDBRANCH  15  16
ENDBRANCH  13  15
ENDBRANCH   1  13
BRANCH   4  36
HETATM   36  N5  UNL     1      11.187  31.339  25.482  1.00  0.00    -0.226 N 
HETATM   37  N6  UNL     1      10.498  32.441  25.430  1.00  0.00    -0.234 N 
HETATM   38  N7  UNL     1      10.591  33.091  26.601  1.00  0.00    -0.288 N 
ATOM     39  H6  UNL     1       9.968  32.763  24.620  1.00  0.00     0.209 HD
HETATM   40  C10 UNL     1      11.380  32.362  27.438  1.00  0.00     0.058 A 
ATOM     41  H7  UNL     1      10.145  33.981  26.825  1.00  0.00     0.188 HD
HETATM   42  C18 UNL     1      11.776  31.261  26.712  1.00  0.00     0.085 A 
BRANCH  40  43
HETATM   43  C11 UNL     1      11.537  32.579  28.899  1.00  0.00     0.099 C 
BRANCH  43  44
HETATM   44  C12 UNL     1      10.557  31.919  29.771  1.00  0.00    -0.047 A 
HETATM   45  C13 UNL     1      10.948  30.962  30.688  1.00  0.00     0.047 A 
HETATM   46  C14 UNL     1      10.085  30.462  31.643  1.00  0.00     0.102 A 
HETATM   47  C15 UNL     1       8.834  30.933  31.670  1.00  0.00     0.132 A 
HETATM   48  C16 UNL     1       8.402  31.899  30.749  1.00  0.00     0.102 A 
HETATM   49  C17 UNL     1       9.289  32.370  29.806  1.00  0.00     0.047 A 
BRANCH  46  50
HETATM   50  O9  UNL     1      10.491  29.487  32.525  1.00  0.00    -0.358 OA
ATOM     51  H9  UNL     1      10.114  28.615  32.498  1.00  0.00     0.217 HD
ENDBRANCH  46  50
BRANCH  47  52
HETATM   52  O10 UNL     1       7.785  30.629  32.595  1.00  0.00    -0.356 OA
ATOM     53  H10 UNL     1       6.872  30.441  32.414  1.00  0.00     0.218 HD
ENDBRANCH  47  52
BRANCH  48  54
HETATM   54  O11 UNL     1       7.086  32.344  30.819  1.00  0.00    -0.358 OA
ATOM     55  H11 UNL     1       6.770  32.937  30.147  1.00  0.00     0.217 HD
ENDBRANCH  48  54
ENDBRANCH  43  44
ENDBRANCH  40  43
BRANCH  42  56
HETATM   56  C19 UNL     1      12.619  30.182  27.176  1.00  0.00     0.225 C 
BRANCH  56  57
HETATM   57  O12 UNL     1      13.981  30.581  26.860  1.00  0.00    -0.395 OA
ATOM     58  H12 UNL     1      14.431  29.784  26.604  1.00  0.00     0.209 HD
ENDBRANCH  56  57
ENDBRANCH  42  56
ENDBRANCH   4  36
BRANCH  12  59
HETATM   59  O14 UNL     1      12.616  28.114  21.150  1.00  0.00    -0.278 OA
ATOM     60  H14 UNL     1      12.242  28.323  20.302  1.00  0.00     0.245 HD
ENDBRANCH  12  59
TORSDOF 20
ENDMDL
MODEL 3
REMARK VINA RESULT: -8.389808898      2.766      7.388
REMARK  20 active torsions:
REMARK  status: ('A' for Active; 'I' for Inactive)
REMARK    1  A    between atoms: C1_2  and  O2_3 
REMARK    2  A    between atoms: C1_2  and  C8_24 
REMARK    3  A    between atoms: O2_3  and  C2_4 
REMARK    4  A    between atoms: C2_4  and  C3_5 
REMARK    5  A    between atoms: C2_4  and  C4_11 
REMARK    6  A    between atoms: C3_5  and  O3_6 
REMARK    7  A    between atoms: O3_6  and  S1_7 
REMARK    8  A    between atoms: C4_11  and  N1_12 
REMARK    9  A    between atoms: C6_14  and  C7_15 
REMARK   10  A    between atoms: C7_15  and  O7_16 
REMARK   11  A    between atoms: C7_15  and  O8_18 
REMARK   12  A    between atoms: C9_27  and  N5_28 
REMARK   13  A    between atoms: C10_33  and  C11_34 
REMARK   14  A    between atoms: C11_34  and  C12_35 
REMARK   15  A    between atoms: C14_37  and  O9_38 
REMARK   16  A    between atoms: C15_40  and  O10_41 
REMARK   17  A    between atoms: C16_43  and  O11_44 
REMARK   18  A    between atoms: C18_47  and  C19_48 
REMARK   19  A    between atoms: C19_48  and  O12_49 
REMARK   20  A    between atoms: N9_58  and  O14_59 
ROOT
HETATM    1  C8  UNL     1       9.012  29.242  24.346  1.00  0.00     0.139 A 
HETATM    2  N4  UNL     1       9.916  29.943  25.001  1.00  0.00    -0.334 N 
ATOM      3  H4  UNL     1       9.595  30.766  25.510  1.00  0.00     0.168 HD
HETATM    4  C9  UNL     1      11.263  29.650  25.051  1.00  0.00     0.131 A 
HETATM    5  C20 UNL     1      11.662  28.591  24.378  1.00  0.00     0.085 A 
HETATM    6  C21 UNL     1      10.751  27.784  23.665  1.00  0.00     0.100 A 
HETATM    7  C22 UNL     1       9.414  28.111  23.654  1.00  0.00     0.099 A 
HETATM    8  N8  UNL     1       8.698  27.151  23.027  1.00  0.00    -0.302 N 
ATOM      9  H8  UNL     1       7.689  27.125  22.880  1.00  0.00     0.171 HD
HETATM   10  C23 UNL     1       9.597  26.249  22.646  1.00  0.00     0.351 A 
HETATM   11  O13 UNL     1       9.266  25.188  22.016  1.00  0.00    -0.244 OA
HETATM   12  N9  UNL     1      10.828  26.618  23.016  1.00  0.00    -0.170 N 
ENDROOT
BRANCH   1  13
HETATM   13  C1  UNL     1       7.654  29.717  24.207  1.00  0.00     0.313 C 
HETATM   14  O1  UNL     1       7.104  29.669  23.101  1.00  0.00    -0.258 OA
BRANCH  13  15
HETATM   15  O2  UNL     1       6.880  30.229  25.275  1.00  0.00    -0.307 OA
BRANCH  15  16
HETATM   16  C2  UNL     1       5.863  29.365  25.718  1.00  0.00     0.177 C 
BRANCH  16  17
HETATM   17  C3  UNL     1       6.191  28.043  26.293  1.00  0.00     0.227 C 
BRANCH  17  18
HETATM   18  O3  UNL     1       4.853  27.676  26.753  1.00  0.00    -0.254 OA
BRANCH  18  19
HETATM   19  S1  UNL     1       4.722  27.784  28.390  1.00  0.00     0.251 S 
HETATM   20  O4  UNL     1       5.767  26.856  29.046  1.00  0.00    -0.572 OA
HETATM   21  O5  UNL     1       3.396  26.979  28.717  1.00  0.00    -0.572 OA
HETATM   22  O6  UNL     1       4.680  29.207  29.153  1.00  0.00    -0.572 OA
ENDBRANCH  18  19
ENDBRANCH  17  18
ENDBRANCH  16  17
BRANCH  16  23
HETATM   23  C4  UNL     1       4.495  29.734  25.301  1.00  0.00     0.184 C 
BRANCH  23  24
HETATM   24  N1  UNL     1       4.011  30.891  25.999  1.00  0.00    -0.284 N 
HETATM   25  C5  UNL     1       3.042  31.727  26.036  1.00  0.00     0.143 A 
HETATM   26  C6  UNL     1       3.200  32.579  27.114  1.00  0.00     0.098 A 
HETATM   27  N2  UNL     1       4.341  32.185  27.706  1.00  0.00    -0.284 N 
HETATM   28  N3  UNL     1       4.826  31.211  27.079  1.00  0.00    -0.240 N 
ATOM     29  H2  UNL     1       4.751  32.612  28.538  1.00  0.00     0.188 HD
ATOM     30  H3  UNL     1       5.689  30.726  27.325  1.00  0.00     0.208 HD
BRANCH  26  31
HETATM   31  C7  UNL     1       2.347  33.709  27.585  1.00  0.00     0.308 C 
BRANCH  31  32
HETATM   32  O7  UNL     1       2.680  34.937  27.137  1.00  0.00    -0.366 OA
ATOM     33  H7  UNL     1       2.244  35.670  27.555  1.00  0.00     0.213 HD
ENDBRANCH  31  32
BRANCH  31  34
HETATM   34  O8  UNL     1       1.054  33.312  27.181  1.00  0.00    -0.366 OA
ATOM     35  H8  UNL     1       0.991  33.668  26.302  1.00  0.00     0.213 HD
ENDBRANCH  31  34
ENDBRANCH  26  31
ENDBRANCH  23  24
ENDBRANCH  16  23
ENDBRANCH  15  16
ENDBRANCH  13  15
ENDBRANCH   1  13
BRANCH   4  36
HETATM   36  N5  UNL     1      11.899  30.371  26.162  1.00  0.00    -0.226 N 
HETATM   37  N6  UNL     1      12.358  31.585  26.093  1.00  0.00    -0.234 N 
HETATM   38  N7  UNL     1      12.321  32.156  27.307  1.00  0.00    -0.288 N 
ATOM     39  H6  UNL     1      12.697  32.036  25.243  1.00  0.00     0.209 HD
HETATM   40  C10 UNL     1      11.811  31.255  28.192  1.00  0.00     0.058 A 
ATOM     41  H7  UNL     1      12.623  33.104  27.529  1.00  0.00     0.188 HD
HETATM   42  C18 UNL     1      11.567  30.113  27.462  1.00  0.00     0.085 A 
BRANCH  40  43
HETATM   43  C11 UNL     1      11.360  31.550  29.576  1.00  0.00     0.099 C 
BRANCH  43  44
HETATM   44  C12 UNL     1       9.927  31.811  29.759  1.00  0.00    -0.047 A 
HETATM   45  C13 UNL     1       9.172  32.391  28.756  1.00  0.00     0.047 A 
HETATM   46  C14 UNL     1       7.796  32.477  28.827  1.00  0.00     0.102 A 
HETATM   47  C15 UNL     1       7.187  31.976  29.907  1.00  0.00     0.132 A 
HETATM   48  C16 UNL     1       7.924  31.387  30.947  1.00  0.00     0.102 A 
HETATM   49  C17 UNL     1       9.296  31.323  30.844  1.00  0.00     0.047 A 
BRANCH  46  50
HETATM   50  O9  UNL     1       7.072  33.087  27.830  1.00  0.00    -0.358 OA
ATOM     51  H9  UNL     1       6.164  33.335  27.964  1.00  0.00     0.217 HD
ENDBRANCH  46  50
BRANCH  47  52
HETATM   52  O10 UNL     1       5.787  31.883  30.181  1.00  0.00    -0.356 OA
ATOM     53  H10 UNL     1       5.081  32.425  29.849  1.00  0.00     0.218 HD
ENDBRANCH  47  52
BRANCH  48  54
HETATM   54  O11 UNL     1       7.237  30.891  32.051  1.00  0.00    -0.358 OA
ATOM     55  H11 UNL     1       6.512  30.295  31.904  1.00  0.00     0.217 HD
ENDBRANCH  48  54
ENDBRANCH  43  44
ENDBRANCH  40  43
BRANCH  42  56
HETATM   56  C19 UNL     1      11.010  28.875  27.961  1.00  0.00     0.225 C 
BRANCH  56  57
HETATM   57  O12 UNL     1       9.568  29.017  27.845  1.00  0.00    -0.395 OA
ATOM     58  H12 UNL     1       9.197  28.345  28.405  1.00  0.00     0.209 HD
ENDBRANCH  56  57
ENDBRANCH  42  56
ENDBRANCH   4  36
BRANCH  12  59
HETATM   59  O14 UNL     1      12.001  25.946  22.753  1.00  0.00    -0.278 OA
ATOM     60  H14 UNL     1      12.178  25.048  23.008  1.00  0.00     0.245 HD
ENDBRANCH  12  59
TORSDOF 20
ENDMDL
MODEL 4
REMARK VINA RESULT: -8.147221566      2.916      7.906
REMARK  20 active torsions:
REMARK  status: ('A' for Active; 'I' for Inactive)
REMARK    1  A    between atoms: C1_2  and  O2_3 
REMARK    2  A    between atoms: C1_2  and  C8_24 
REMARK    3  A    between atoms: O2_3  and  C2_4 
REMARK    4  A    between atoms: C2_4  and  C3_5 
REMARK    5  A    between atoms: C2_4  and  C4_11 
REMARK    6  A    between atoms: C3_5  and  O3_6 
REMARK    7  A    between atoms: O3_6  and  S1_7 
REMARK    8  A    between atoms: C4_11  and  N1_12 
REMARK    9  A    between atoms: C6_14  and  C7_15 
REMARK   10  A    between atoms: C7_15  and  O7_16 
REMARK   11  A    between atoms: C7_15  and  O8_18 
REMARK   12  A    between atoms: C9_27  and  N5_28 
REMARK   13  A    between atoms: C10_33  and  C11_34 
REMARK   14  A    between atoms: C11_34  and  C12_35 
REMARK   15  A    between atoms: C14_37  and  O9_38 
REMARK   16  A    between atoms: C15_40  and  O10_41 
REMARK   17  A    between atoms: C16_43  and  O11_44 
REMARK   18  A    between atoms: C18_47  and  C19_48 
REMARK   19  A    between atoms: C19_48  and  O12_49 
REMARK   20  A    between atoms: N9_58  and  O14_59 
ROOT
HETATM    1  C8  UNL     1      10.009  27.940  25.063  1.00  0.00     0.139 A 
HETATM    2  N4  UNL     1      10.164  29.220  25.338  1.00  0.00    -0.334 N 
ATOM      3  H4  UNL     1       9.717  29.577  26.183  1.00  0.00     0.168 HD
HETATM    4  C9  UNL     1      10.882  30.114  24.571  1.00  0.00     0.131 A 
HETATM    5  C20 UNL     1      11.441  29.639  23.479  1.00  0.00     0.085 A 
HETATM    6  C21 UNL     1      11.331  28.277  23.126  1.00  0.00     0.100 A 
HETATM    7  C22 UNL     1      10.613  27.421  23.928  1.00  0.00     0.099 A 
HETATM    8  N8  UNL     1      10.735  26.148  23.490  1.00  0.00    -0.302 N 
ATOM      9  H8  UNL     1      10.320  25.309  23.895  1.00  0.00     0.171 HD
HETATM   10  C23 UNL     1      11.513  26.231  22.416  1.00  0.00     0.351 A 
HETATM   11  O13 UNL     1      11.843  25.199  21.738  1.00  0.00    -0.244 OA
HETATM   12  N9  UNL     1      11.872  27.498  22.184  1.00  0.00    -0.170 N 
ENDROOT
BRANCH   1  13
HETATM   13  C1  UNL     1       9.100  27.116  25.826  1.00  0.00     0.313 C 
HETATM   14  O1  UNL     1       9.262  27.000  27.046  1.00  0.00    -0.258 OA
BRANCH  13  15
HETATM   15  O2  UNL     1       7.995  26.429  25.268  1.00  0.00    -0.307 OA
BRANCH  15  16
HETATM   16  C2  UNL     1       6.910  27.256  24.931  1.00  0.00     0.177 C 
BRANCH  16  17
HETATM   17  C3  UNL     1       6.124  27.938  25.983  1.00  0.00     0.227 C 
BRANCH  17  18
HETATM   18  O3  UNL     1       5.386  28.864  25.125  1.00  0.00    -0.254 OA
BRANCH  18  19
HETATM   19  S1  UNL     1       4.830  30.162  25.971  1.00  0.00     0.251 S 
HETATM   20  O4  UNL     1       3.856  30.967  25.085  1.00  0.00    -0.572 OA
HETATM   21  O5  UNL     1       6.066  31.155  25.994  1.00  0.00    -0.572 OA
HETATM   22  O6  UNL     1       4.238  30.019  27.467  1.00  0.00    -0.572 OA
ENDBRANCH  18  19
ENDBRANCH  17  18
ENDBRANCH  16  17
BRANCH  16  23
HETATM   23  C4  UNL     1       6.447  27.153  23.533  1.00  0.00     0.184 C 
BRANCH  23  24
HETATM   24  N1  UNL     1       7.284  27.893  22.630  1.00  0.00    -0.284 N 
HETATM   25  C5  UNL     1       7.907  27.805  21.516  1.00  0.00     0.143 A 
HETATM   26  C6  UNL     1       8.462  29.030  21.192  1.00  0.00     0.098 A 
HETATM   27  N2  UNL     1       8.126  29.845  22.208  1.00  0.00    -0.284 N 
HETATM   28  N3  UNL     1       7.444  29.209  23.049  1.00  0.00    -0.240 N 
ATOM     29  H2  UNL     1       8.385  30.829  22.282  1.00  0.00     0.188 HD
ATOM     30  H3  UNL     1       7.065  29.599  23.912  1.00  0.00     0.208 HD
BRANCH  26  31
HETATM   31  C7  UNL     1       9.270  29.441  20.007  1.00  0.00     0.308 C 
BRANCH  31  32
HETATM   32  O7  UNL     1      10.196  28.558  19.578  1.00  0.00    -0.366 OA
ATOM     33  H7  UNL     1       9.874  27.827  19.064  1.00  0.00     0.213 HD
ENDBRANCH  31  32
BRANCH  31  34
HETATM   34  O8  UNL     1       8.283  29.712  19.036  1.00  0.00    -0.366 OA
ATOM     35  H8  UNL     1       8.794  29.831  18.244  1.00  0.00     0.213 HD
ENDBRANCH  31  34
ENDBRANCH  26  31
ENDBRANCH  23  24
ENDBRANCH  16  23
ENDBRANCH  15  16
ENDBRANCH  13  15
ENDBRANCH   1  13
BRANCH   4  36
HETATM   36  N5  UNL     1      11.183  31.323  25.351  1.00  0.00    -0.226 N 
HETATM   37  N6  UNL     1      10.572  32.463  25.218  1.00  0.00    -0.234 N 
HETATM   38  N7  UNL     1      10.620  33.142  26.375  1.00  0.00    -0.288 N 
ATOM     39  H6  UNL     1      10.123  32.791  24.363  1.00  0.00     0.209 HD
HETATM   40  C10 UNL     1      11.299  32.393  27.287  1.00  0.00     0.058 A 
ATOM     41  H7  UNL     1      10.218  34.064  26.542  1.00  0.00     0.188 HD
HETATM   42  C18 UNL     1      11.676  31.247  26.623  1.00  0.00     0.085 A 
BRANCH  40  43
HETATM   43  C11 UNL     1      11.363  32.646  28.749  1.00  0.00     0.099 C 
BRANCH  43  44
HETATM   44  C12 UNL     1      10.159  32.323  29.526  1.00  0.00    -0.047 A 
HETATM   45  C13 UNL     1       8.994  31.918  28.902  1.00  0.00     0.047 A 
HETATM   46  C14 UNL     1       7.912  31.433  29.609  1.00  0.00     0.102 A 
HETATM   47  C15 UNL     1       8.012  31.355  30.941  1.00  0.00     0.132 A 
HETATM   48  C16 UNL     1       9.177  31.765  31.606  1.00  0.00     0.102 A 
HETATM   49  C17 UNL     1      10.235  32.250  30.869  1.00  0.00     0.047 A 
BRANCH  46  50
HETATM   50  O9  UNL     1       6.753  31.065  28.967  1.00  0.00    -0.358 OA
ATOM     51  H9  UNL     1       6.775  30.515  28.192  1.00  0.00     0.217 HD
ENDBRANCH  46  50
BRANCH  47  52
HETATM   52  O10 UNL     1       7.067  30.830  31.878  1.00  0.00    -0.356 OA
ATOM     53  H10 UNL     1       6.119  30.811  31.817  1.00  0.00     0.218 HD
ENDBRANCH  47  52
BRANCH  48  54
HETATM   54  O11 UNL     1       9.219  31.672  32.993  1.00  0.00    -0.358 OA
ATOM     55  H11 UNL     1       8.590  32.170  33.502  1.00  0.00     0.217 HD
ENDBRANCH  48  54
ENDBRANCH  43  44
ENDBRANCH  40  43
BRANCH  42  56
HETATM   56  C19 UNL     1      12.413  30.133  27.177  1.00  0.00     0.225 C 
BRANCH  56  57
HETATM   57  O12 UNL     1      13.807  30.546  27.183  1.00  0.00    -0.395 OA
ATOM     58  H12 UNL     1      14.020  30.720  28.093  1.00  0.00     0.209 HD
ENDBRANCH  56  57
ENDBRANCH  42  56
ENDBRANCH   4  36
BRANCH  12  59
HETATM   59  O14 UNL     1      12.640  27.957  21.136  1.00  0.00    -0.278 OA
ATOM     60  H14 UNL     1      13.322  27.454  20.707  1.00  0.00     0.245 HD
ENDBRANCH  12  59
TORSDOF 20
ENDMDL
MODEL 5
REMARK VINA RESULT: -8.144152279      2.283      3.093
REMARK  20 active torsions:
REMARK  status: ('A' for Active; 'I' for Inactive)
REMARK    1  A    between atoms: C1_2  and  O2_3 
REMARK    2  A    between atoms: C1_2  and  C8_24 
REMARK    3  A    between atoms: O2_3  and  C2_4 
REMARK    4  A    between atoms: C2_4  and  C3_5 
REMARK    5  A    between atoms: C2_4  and  C4_11 
REMARK    6  A    between atoms: C3_5  and  O3_6 
REMARK    7  A    between atoms: O3_6  and  S1_7 
REMARK    8  A    between atoms: C4_11  and  N1_12 
REMARK    9  A    between atoms: C6_14  and  C7_15 
REMARK   10  A    between atoms: C7_15  and  O7_16 
REMARK   11  A    between atoms: C7_15  and  O8_18 
REMARK   12  A    between atoms: C9_27  and  N5_28 
REMARK   13  A    between atoms: C10_33  and  C11_34 
REMARK   14  A    between atoms: C11_34  and  C12_35 
REMARK   15  A    between atoms: C14_37  and  O9_38 
REMARK   16  A    between atoms: C15_40  and  O10_41 
REMARK   17  A    between atoms: C16_43  and  O11_44 
REMARK   18  A    between atoms: C18_47  and  C19_48 
REMARK   19  A    between atoms: C19_48  and  O12_49 
REMARK   20  A    between atoms: N9_58  and  O14_59 
ROOT
HETATM    1  C8  UNL     1       7.497  31.584  28.758  1.00  0.00     0.139 A 
HETATM    2  N4  UNL     1       8.479  30.962  28.136  1.00  0.00    -0.334 N 
ATOM      3  H4  UNL     1       8.316  30.672  27.172  1.00  0.00     0.168 HD
HETATM    4  C9  UNL     1       9.710  30.674  28.688  1.00  0.00     0.131 A 
HETATM    5  C20 UNL     1       9.899  31.044  29.936  1.00  0.00     0.085 A 
HETATM    6  C21 UNL     1       8.899  31.726  30.663  1.00  0.00     0.100 A 
HETATM    7  C22 UNL     1       7.691  32.002  30.066  1.00  0.00     0.099 A 
HETATM    8  N8  UNL     1       6.925  32.766  30.877  1.00  0.00    -0.302 N 
ATOM      9  H8  UNL     1       5.989  33.127  30.690  1.00  0.00     0.171 HD
HETATM   10  C23 UNL     1       7.660  32.943  31.970  1.00  0.00     0.351 A 
HETATM   11  O13 UNL     1       7.241  33.630  32.963  1.00  0.00    -0.244 OA
HETATM   12  N9  UNL     1       8.840  32.323  31.857  1.00  0.00    -0.170 N 
ENDROOT
BRANCH   1  13
HETATM   13  C1  UNL     1       6.184  31.692  28.163  1.00  0.00     0.313 C 
HETATM   14  O1  UNL     1       5.210  31.944  28.881  1.00  0.00    -0.258 OA
BRANCH  13  15
HETATM   15  O2  UNL     1       5.927  31.546  26.779  1.00  0.00    -0.307 OA
BRANCH  15  16
HETATM   16  C2  UNL     1       5.160  30.415  26.449  1.00  0.00     0.177 C 
BRANCH  16  17
HETATM   17  C3  UNL     1       3.935  30.545  25.631  1.00  0.00     0.227 C 
BRANCH  17  18
HETATM   18  O3  UNL     1       3.009  30.918  26.700  1.00  0.00    -0.254 OA
BRANCH  18  19
HETATM   19  S1  UNL     1       2.352  32.406  26.442  1.00  0.00     0.251 S 
HETATM   20  O4  UNL     1       0.816  32.307  26.538  1.00  0.00    -0.572 OA
HETATM   21  O5  UNL     1       2.517  32.626  24.881  1.00  0.00    -0.572 OA
HETATM   22  O6  UNL     1       2.879  33.720  27.220  1.00  0.00    -0.572 OA
ENDBRANCH  18  19
ENDBRANCH  17  18
ENDBRANCH  16  17
BRANCH  16  23
HETATM   23  C4  UNL     1       5.487  29.188  27.202  1.00  0.00     0.184 C 
BRANCH  23  24
HETATM   24  N1  UNL     1       6.503  28.409  26.552  1.00  0.00    -0.284 N 
HETATM   25  C5  UNL     1       7.718  28.022  26.665  1.00  0.00     0.143 A 
HETATM   26  C6  UNL     1       8.026  27.142  25.643  1.00  0.00     0.098 A 
HETATM   27  N2  UNL     1       6.900  27.047  24.913  1.00  0.00    -0.284 N 
HETATM   28  N3  UNL     1       6.007  27.770  25.421  1.00  0.00    -0.240 N 
ATOM     29  H2  UNL     1       6.788  26.475  24.076  1.00  0.00     0.188 HD
ATOM     30  H3  UNL     1       5.059  27.873  25.059  1.00  0.00     0.208 HD
BRANCH  26  31
HETATM   31  C7  UNL     1       9.295  26.420  25.339  1.00  0.00     0.308 C 
BRANCH  31  32
HETATM   32  O7  UNL     1      10.067  26.948  24.367  1.00  0.00    -0.366 OA
ATOM     33  H7  UNL     1      10.968  26.647  24.334  1.00  0.00     0.213 HD
ENDBRANCH  31  32
BRANCH  31  34
HETATM   34  O8  UNL     1       9.943  26.389  26.593  1.00  0.00    -0.366 OA
ATOM     35  H8  UNL     1      10.834  26.634  26.375  1.00  0.00     0.213 HD
ENDBRANCH  31  34
ENDBRANCH  26  31
ENDBRANCH  23  24
ENDBRANCH  16  23
ENDBRANCH  15  16
ENDBRANCH  13  15
ENDBRANCH   1  13
BRANCH   4  36
HETATM   36  N5  UNL     1      10.678  30.353  27.630  1.00  0.00    -0.226 N 
HETATM   37  N6  UNL     1      10.974  29.151  27.234  1.00  0.00    -0.234 N 
HETATM   38  N7  UNL     1      11.380  29.180  25.955  1.00  0.00    -0.288 N 
ATOM     39  H6  UNL     1      10.908  28.311  27.810  1.00  0.00     0.209 HD
HETATM   40  C10 UNL     1      11.340  30.469  25.518  1.00  0.00     0.058 A 
ATOM     41  H7  UNL     1      11.671  28.372  25.404  1.00  0.00     0.188 HD
HETATM   42  C18 UNL     1      10.915  31.215  26.596  1.00  0.00     0.085 A 
BRANCH  40  43
HETATM   43  C11 UNL     1      11.458  30.917  24.107  1.00  0.00     0.099 C 
BRANCH  43  44
HETATM   44  C12 UNL     1      10.489  30.357  23.157  1.00  0.00    -0.047 A 
HETATM   45  C13 UNL     1      10.903  29.786  21.968  1.00  0.00     0.047 A 
HETATM   46  C14 UNL     1      10.038  29.089  21.146  1.00  0.00     0.102 A 
HETATM   47  C15 UNL     1       8.762  28.971  21.529  1.00  0.00     0.132 A 
HETATM   48  C16 UNL     1       8.307  29.546  22.725  1.00  0.00     0.102 A 
HETATM   49  C17 UNL     1       9.197  30.238  23.517  1.00  0.00     0.047 A 
BRANCH  46  50
HETATM   50  O9  UNL     1      10.469  28.557  19.954  1.00  0.00    -0.358 OA
ATOM     51  H9  UNL     1      10.262  27.661  19.714  1.00  0.00     0.217 HD
ENDBRANCH  46  50
BRANCH  47  52
HETATM   52  O10 UNL     1       7.703  28.249  20.894  1.00  0.00    -0.356 OA
ATOM     53  H10 UNL     1       6.789  28.493  20.806  1.00  0.00     0.218 HD
ENDBRANCH  47  52
BRANCH  48  54
HETATM   54  O11 UNL     1       6.967  29.399  23.067  1.00  0.00    -0.358 OA
ATOM     55  H11 UNL     1       6.490  30.161  23.376  1.00  0.00     0.217 HD
ENDBRANCH  48  54
ENDBRANCH  43  44
ENDBRANCH  40  43
BRANCH  42  56
HETATM   56  C19 UNL     1      10.703  32.644  26.623  1.00  0.00     0.225 C 
BRANCH  56  57
HETATM   57  O12 UNL     1       9.400  32.862  26.018  1.00  0.00    -0.395 OA
ATOM     58  H12 UNL     1       8.766  32.538  26.647  1.00  0.00     0.209 HD
ENDBRANCH  56  57
ENDBRANCH  42  56
ENDBRANCH   4  36
BRANCH  12  59
HETATM   59  O14 UNL     1       9.830  32.262  32.812  1.00  0.00    -0.278 OA
ATOM     60  H14 UNL     1       9.771  31.765  33.620  1.00  0.00     0.245 HD
ENDBRANCH  12  59
TORSDOF 20
ENDMDL
