MODEL 1
REMARK VINA RESULT: -8.227705931      0.000      0.000
REMARK  19 active torsions:
REMARK  status: ('A' for Active; 'I' for Inactive)
REMARK    1  A    between atoms: C3_5  and  O3_6 
REMARK    2  A    between atoms: C4_8  and  O4_9 
REMARK    3  A    between atoms: C6_13  and  C7_14 
REMARK    4  A    between atoms: C7_14  and  O5_15 
REMARK    5  A    between atoms: C7_14  and  O6_17 
REMARK    6  A    between atoms: C11_24  and  O9_25 
REMARK    7  A    between atoms: O9_25  and  C12_26 
REMARK    8  A    between atoms: C13_28  and  C14_29 
REMARK    9  A    between atoms: C14_29  and  O11_30 
REMARK   10  A    between atoms: C15_32  and  O12_33 
REMARK   11  A    between atoms: O12_33  and  C16_34 
REMARK   12  A    between atoms: C16_34  and  C17_35 
REMARK   13  A    between atoms: C16_34  and  C18_38 
REMARK   14  A    between atoms: C17_35  and  O13_36 
REMARK   15  A    between atoms: C18_38  and  O14_39 
REMARK   16  A    between atoms: C19_41  and  O15_42 
REMARK   17  A    between atoms: C20_44  and  C21_45 
REMARK   18  A    between atoms: C21_45  and  N1_46 
REMARK   19  A    between atoms: N1_46  and  C22_48 
ROOT
HETATM    1  O1  UNL     1       6.047  32.964  29.250  1.00  0.00    -0.259 OA
HETATM    2  C1  UNL     1       5.761  32.459  28.194  1.00  0.00     0.299 C 
HETATM    3  O2  UNL     1       4.458  32.597  27.856  1.00  0.00    -0.271 OA
HETATM    4  C2  UNL     1       3.792  31.902  26.967  1.00  0.00     0.133 C 
HETATM    5  C3  UNL     1       2.684  32.707  26.631  1.00  0.00     0.136 C 
HETATM    6  C4  UNL     1       1.418  32.196  26.245  1.00  0.00     0.120 C 
HETATM    7  C5  UNL     1       1.098  30.879  25.937  1.00  0.00     0.063 C 
HETATM    8  S1  UNL     1      -0.680  30.554  25.813  1.00  0.00    -0.049 SA
HETATM    9  C6  UNL     1       1.912  29.815  25.697  1.00  0.00     0.067 C 
HETATM   10  C8  UNL     1       3.260  29.663  26.010  1.00  0.00     0.201 C 
HETATM   11  O7  UNL     1       3.702  28.514  25.835  1.00  0.00    -0.287 OA
HETATM   12  C9  UNL     1       4.107  30.647  26.487  1.00  0.00     0.104 C 
HETATM   13  C10 UNL     1       5.370  30.064  26.393  1.00  0.00     0.223 C 
HETATM   14  O8  UNL     1       5.338  28.933  25.876  1.00  0.00    -0.284 OA
HETATM   15  C11 UNL     1       6.603  30.582  26.788  1.00  0.00     0.137 C 
HETATM   16  C20 UNL     1       6.727  31.801  27.397  1.00  0.00     0.072 C 
ENDROOT
BRANCH  15  17
HETATM   17  O9  UNL     1       7.667  29.836  26.554  1.00  0.00    -0.313 OA
BRANCH  17  18
HETATM   18  C12 UNL     1       8.478  29.559  25.456  1.00  0.00     0.298 C 
HETATM   19  O10 UNL     1       7.963  30.007  24.256  1.00  0.00    -0.348 OA
HETATM   20  C13 UNL     1       7.873  28.920  23.372  1.00  0.00     0.180 C 
HETATM   21  C15 UNL     1       9.078  28.082  23.713  1.00  0.00     0.186 C 
HETATM   22  C19 UNL     1       8.966  28.171  25.269  1.00  0.00     0.205 C 
BRANCH  20  23
HETATM   23  C14 UNL     1       8.085  29.488  21.967  1.00  0.00     0.198 C 
BRANCH  23  24
HETATM   24  O11 UNL     1       8.387  30.858  22.012  1.00  0.00    -0.398 OA
ATOM     25  H11 UNL     1       7.649  31.383  21.729  1.00  0.00     0.209 HD
ENDBRANCH  23  24
ENDBRANCH  20  23
BRANCH  21  26
HETATM   26  O12 UNL     1      10.159  28.768  23.208  1.00  0.00    -0.371 OA
BRANCH  26  27
HETATM   27  C16 UNL     1      11.360  28.165  23.036  1.00  0.00     0.169 C 
BRANCH  27  28
HETATM   28  C17 UNL     1      12.069  28.763  21.884  1.00  0.00     0.198 C 
BRANCH  28  29
HETATM   29  O13 UNL     1      11.464  28.198  20.719  1.00  0.00    -0.398 OA
ATOM     30  H13 UNL     1      11.408  28.905  20.088  1.00  0.00     0.209 HD
ENDBRANCH  28  29
ENDBRANCH  27  28
BRANCH  27  31
HETATM   31  C18 UNL     1      11.036  26.681  22.474  1.00  0.00     0.198 C 
BRANCH  31  32
HETATM   32  O14 UNL     1      12.207  26.009  22.810  1.00  0.00    -0.398 OA
ATOM     33  H14 UNL     1      12.083  25.886  23.744  1.00  0.00     0.209 HD
ENDBRANCH  31  32
ENDBRANCH  27  31
ENDBRANCH  26  27
ENDBRANCH  21  26
BRANCH  22  34
HETATM   34  O15 UNL     1       7.954  27.255  25.564  1.00  0.00    -0.388 OA
ATOM     35  H15 UNL     1       8.087  26.448  25.081  1.00  0.00     0.210 HD
ENDBRANCH  22  34
ENDBRANCH  17  18
ENDBRANCH  15  17
BRANCH  16  36
HETATM   36  C21 UNL     1       7.987  32.563  27.347  1.00  0.00     0.167 C 
BRANCH  36  37
HETATM   37  N1  UNL     1       8.835  32.180  28.508  1.00  0.00    -0.384 N 
ATOM     38  H1  UNL     1       8.492  32.179  29.468  1.00  0.00     0.160 HD
BRANCH  37  39
HETATM   39  C22 UNL     1      10.174  31.813  28.160  1.00  0.00     0.046 A 
HETATM   40  C23 UNL     1      10.655  30.518  28.172  1.00  0.00     0.119 A 
HETATM   41  N2  UNL     1      11.948  30.260  27.766  1.00  0.00    -0.342 N 
HETATM   42  C24 UNL     1      12.799  31.181  27.353  1.00  0.00     0.178 A 
ATOM     43  H2  UNL     1      12.268  29.291  27.786  1.00  0.00     0.167 HD
HETATM   44  C25 UNL     1      12.355  32.499  27.330  1.00  0.00     0.124 A 
HETATM   45  O17 UNL     1      14.130  31.162  26.909  1.00  0.00    -0.307 OA
HETATM   46  C26 UNL     1      11.067  32.821  27.722  1.00  0.00     0.072 A 
HETATM   47  O16 UNL     1      13.387  33.272  26.884  1.00  0.00    -0.321 OA
HETATM   48  C27 UNL     1      14.544  32.471  26.609  1.00  0.00     0.353 A 
ENDBRANCH  37  39
ENDBRANCH  36  37
ENDBRANCH  16  36
BRANCH   5  49
HETATM   49  O3  UNL     1       2.866  34.045  26.682  1.00  0.00    -0.356 OA
ATOM     50  H3  UNL     1       3.217  34.459  25.903  1.00  0.00     0.218 HD
ENDBRANCH   5  49
BRANCH   9  51
HETATM   51  C7  UNL     1       1.372  28.623  25.008  1.00  0.00     0.293 C 
BRANCH  51  52
HETATM   52  O5  UNL     1       1.202  27.577  25.924  1.00  0.00    -0.367 OA
ATOM     53  H5  UNL     1       0.598  26.933  25.573  1.00  0.00     0.213 HD
ENDBRANCH  51  52
BRANCH  51  54
HETATM   54  O6  UNL     1       2.313  28.152  24.073  1.00  0.00    -0.367 OA
ATOM     55  H6  UNL     1       2.727  27.365  24.407  1.00  0.00     0.213 HD
ENDBRANCH  51  54
ENDBRANCH   9  51
BRANCH   6  56
HETATM   56  O4  UNL     1       0.389  33.072  26.163  1.00  0.00    -0.357 OA
ATOM     57  H4  UNL     1      -0.365  32.816  25.644  1.00  0.00     0.218 HD
ENDBRANCH   6  56
TORSDOF 19
ENDMDL
MODEL 2
REMARK VINA RESULT: -7.924937195      3.432      6.508
REMARK  19 active torsions:
REMARK  status: ('A' for Active; 'I' for Inactive)
REMARK    1  A    between atoms: C3_5  and  O3_6 
REMARK    2  A    between atoms: C4_8  and  O4_9 
REMARK    3  A    between atoms: C6_13  and  C7_14 
REMARK    4  A    between atoms: C7_14  and  O5_15 
REMARK    5  A    between atoms: C7_14  and  O6_17 
REMARK    6  A    between atoms: C11_24  and  O9_25 
REMARK    7  A    between atoms: O9_25  and  C12_26 
REMARK    8  A    between atoms: C13_28  and  C14_29 
REMARK    9  A    between atoms: C14_29  and  O11_30 
REMARK   10  A    between atoms: C15_32  and  O12_33 
REMARK   11  A    between atoms: O12_33  and  C16_34 
REMARK   12  A    between atoms: C16_34  and  C17_35 
REMARK   13  A    between atoms: C16_34  and  C18_38 
REMARK   14  A    between atoms: C17_35  and  O13_36 
REMARK   15  A    between atoms: C18_38  and  O14_39 
REMARK   16  A    between atoms: C19_41  and  O15_42 
REMARK   17  A    between atoms: C20_44  and  C21_45 
REMARK   18  A    between atoms: C21_45  and  N1_46 
REMARK   19  A    between atoms: N1_46  and  C22_48 
ROOT
HETATM    1  O1  UNL     1       3.037  31.576  26.769  1.00  0.00    -0.259 OA
HETATM    2  C1  UNL     1       4.094  31.027  26.953  1.00  0.00     0.299 C 
HETATM    3  O2  UNL     1       4.669  31.331  28.140  1.00  0.00    -0.271 OA
HETATM    4  C2  UNL     1       5.924  31.163  28.478  1.00  0.00     0.133 C 
HETATM    5  C3  UNL     1       5.923  31.151  29.888  1.00  0.00     0.136 C 
HETATM    6  C4  UNL     1       6.998  31.616  30.689  1.00  0.00     0.120 C 
HETATM    7  C5  UNL     1       8.276  31.962  30.266  1.00  0.00     0.063 C 
HETATM    8  S1  UNL     1       9.265  32.823  31.516  1.00  0.00    -0.049 SA
HETATM    9  C6  UNL     1       8.894  31.735  29.075  1.00  0.00     0.067 C 
HETATM   10  C8  UNL     1       8.325  31.394  27.851  1.00  0.00     0.201 C 
HETATM   11  O7  UNL     1       9.115  31.428  26.891  1.00  0.00    -0.287 OA
HETATM   12  C9  UNL     1       7.005  31.044  27.629  1.00  0.00     0.104 C 
HETATM   13  C10 UNL     1       7.012  30.559  26.322  1.00  0.00     0.223 C 
HETATM   14  O8  UNL     1       8.153  30.536  25.825  1.00  0.00    -0.284 OA
HETATM   15  C11 UNL     1       5.939  30.114  25.549  1.00  0.00     0.137 C 
HETATM   16  C20 UNL     1       4.648  30.139  26.001  1.00  0.00     0.072 C 
ENDROOT
BRANCH  15  17
HETATM   17  O9  UNL     1       6.220  29.666  24.340  1.00  0.00    -0.313 OA
BRANCH  17  18
HETATM   18  C12 UNL     1       7.355  29.203  23.678  1.00  0.00     0.298 C 
HETATM   19  O10 UNL     1       7.641  29.890  22.515  1.00  0.00    -0.348 OA
HETATM   20  C13 UNL     1       7.704  28.972  21.455  1.00  0.00     0.180 C 
HETATM   21  C15 UNL     1       8.305  27.742  22.083  1.00  0.00     0.186 C 
HETATM   22  C19 UNL     1       7.472  27.750  23.406  1.00  0.00     0.205 C 
BRANCH  20  23
HETATM   23  C14 UNL     1       8.723  29.531  20.461  1.00  0.00     0.198 C 
BRANCH  23  24
HETATM   24  O11 UNL     1       9.177  28.534  19.583  1.00  0.00    -0.398 OA
ATOM     25  H11 UNL     1      10.120  28.569  19.480  1.00  0.00     0.209 HD
ENDBRANCH  23  24
ENDBRANCH  20  23
BRANCH  21  26
HETATM   26  O12 UNL     1       9.634  28.040  22.279  1.00  0.00    -0.371 OA
BRANCH  26  27
HETATM   27  C16 UNL     1      10.410  27.296  23.103  1.00  0.00     0.169 C 
BRANCH  27  28
HETATM   28  C17 UNL     1      10.991  28.150  24.163  1.00  0.00     0.198 C 
BRANCH  28  29
HETATM   29  O13 UNL     1      12.407  28.026  24.027  1.00  0.00    -0.398 OA
ATOM     30  H13 UNL     1      12.583  28.075  23.095  1.00  0.00     0.209 HD
ENDBRANCH  28  29
ENDBRANCH  27  28
BRANCH  27  31
HETATM   31  C18 UNL     1      11.729  26.912  22.246  1.00  0.00     0.198 C 
BRANCH  31  32
HETATM   32  O14 UNL     1      12.009  25.643  22.745  1.00  0.00    -0.398 OA
ATOM     33  H14 UNL     1      12.712  25.839  23.353  1.00  0.00     0.209 HD
ENDBRANCH  31  32
ENDBRANCH  27  31
ENDBRANCH  26  27
ENDBRANCH  21  26
BRANCH  22  34
HETATM   34  O15 UNL     1       6.241  27.229  23.004  1.00  0.00    -0.388 OA
ATOM     35  H15 UNL     1       6.103  26.371  23.389  1.00  0.00     0.210 HD
ENDBRANCH  22  34
ENDBRANCH  17  18
ENDBRANCH  15  17
BRANCH  16  36
HETATM   36  C21 UNL     1       3.621  29.239  25.449  1.00  0.00     0.167 C 
BRANCH  36  37
HETATM   37  N1  UNL     1       4.189  27.870  25.323  1.00  0.00    -0.384 N 
ATOM     38  H1  UNL     1       4.581  27.511  24.453  1.00  0.00     0.160 HD
BRANCH  37  39
HETATM   39  C22 UNL     1       4.138  27.101  26.529  1.00  0.00     0.046 A 
HETATM   40  C23 UNL     1       2.981  26.581  27.073  1.00  0.00     0.119 A 
HETATM   41  N2  UNL     1       3.042  25.805  28.212  1.00  0.00    -0.342 N 
HETATM   42  C24 UNL     1       4.158  25.507  28.852  1.00  0.00     0.178 A 
ATOM     43  H2  UNL     1       2.167  25.437  28.585  1.00  0.00     0.167 HD
HETATM   44  C25 UNL     1       5.347  26.014  28.338  1.00  0.00     0.124 A 
HETATM   45  O17 UNL     1       4.464  24.762  30.002  1.00  0.00    -0.307 OA
HETATM   46  C26 UNL     1       5.349  26.797  27.196  1.00  0.00     0.072 A 
HETATM   47  O16 UNL     1       6.359  25.594  29.152  1.00  0.00    -0.321 OA
HETATM   48  C27 UNL     1       5.849  24.799  30.231  1.00  0.00     0.353 A 
ENDBRANCH  37  39
ENDBRANCH  36  37
ENDBRANCH  16  36
BRANCH   5  49
HETATM   49  O3  UNL     1       4.819  30.655  30.492  1.00  0.00    -0.356 OA
ATOM     50  H3  UNL     1       4.912  29.817  30.930  1.00  0.00     0.218 HD
ENDBRANCH   5  49
BRANCH   9  51
HETATM   51  C7  UNL     1      10.366  31.837  28.986  1.00  0.00     0.293 C 
BRANCH  51  52
HETATM   52  O5  UNL     1      10.723  32.902  28.149  1.00  0.00    -0.367 OA
ATOM     53  H5  UNL     1      11.231  33.541  28.636  1.00  0.00     0.213 HD
ENDBRANCH  51  52
BRANCH  51  54
HETATM   54  O6  UNL     1      10.881  30.684  28.363  1.00  0.00    -0.367 OA
ATOM     55  H6  UNL     1      10.918  29.972  28.992  1.00  0.00     0.213 HD
ENDBRANCH  51  54
ENDBRANCH   9  51
BRANCH   6  56
HETATM   56  O4  UNL     1       6.776  31.747  32.018  1.00  0.00    -0.357 OA
ATOM     57  H4  UNL     1       6.011  31.316  32.380  1.00  0.00     0.218 HD
ENDBRANCH   6  56
TORSDOF 19
ENDMDL
MODEL 3
REMARK VINA RESULT: -7.702165769      1.498      1.713
REMARK  19 active torsions:
REMARK  status: ('A' for Active; 'I' for Inactive)
REMARK    1  A    between atoms: C3_5  and  O3_6 
REMARK    2  A    between atoms: C4_8  and  O4_9 
REMARK    3  A    between atoms: C6_13  and  C7_14 
REMARK    4  A    between atoms: C7_14  and  O5_15 
REMARK    5  A    between atoms: C7_14  and  O6_17 
REMARK    6  A    between atoms: C11_24  and  O9_25 
REMARK    7  A    between atoms: O9_25  and  C12_26 
REMARK    8  A    between atoms: C13_28  and  C14_29 
REMARK    9  A    between atoms: C14_29  and  O11_30 
REMARK   10  A    between atoms: C15_32  and  O12_33 
REMARK   11  A    between atoms: O12_33  and  C16_34 
REMARK   12  A    between atoms: C16_34  and  C17_35 
REMARK   13  A    between atoms: C16_34  and  C18_38 
REMARK   14  A    between atoms: C17_35  and  O13_36 
REMARK   15  A    between atoms: C18_38  and  O14_39 
REMARK   16  A    between atoms: C19_41  and  O15_42 
REMARK   17  A    between atoms: C20_44  and  C21_45 
REMARK   18  A    between atoms: C21_45  and  N1_46 
REMARK   19  A    between atoms: N1_46  and  C22_48 
ROOT
HETATM    1  O1  UNL     1       6.497  30.839  29.278  1.00  0.00    -0.259 OA
HETATM    2  C1  UNL     1       5.979  31.064  28.213  1.00  0.00     0.299 C 
HETATM    3  O2  UNL     1       4.877  31.846  28.294  1.00  0.00    -0.271 OA
HETATM    4  C2  UNL     1       3.940  31.990  27.390  1.00  0.00     0.133 C 
HETATM    5  C3  UNL     1       3.320  33.217  27.700  1.00  0.00     0.136 C 
HETATM    6  C4  UNL     1       1.950  33.499  27.461  1.00  0.00     0.120 C 
HETATM    7  C5  UNL     1       1.049  32.741  26.722  1.00  0.00     0.063 C 
HETATM    8  S1  UNL     1      -0.680  33.244  26.915  1.00  0.00    -0.049 SA
HETATM    9  C6  UNL     1       1.273  31.703  25.871  1.00  0.00     0.067 C 
HETATM   10  C8  UNL     1       2.406  30.904  25.752  1.00  0.00     0.201 C 
HETATM   11  O7  UNL     1       2.262  29.913  25.014  1.00  0.00    -0.287 OA
HETATM   12  C9  UNL     1       3.626  31.113  26.371  1.00  0.00     0.104 C 
HETATM   13  C10 UNL     1       4.473  30.206  25.737  1.00  0.00     0.223 C 
HETATM   14  O8  UNL     1       3.907  29.580  24.823  1.00  0.00    -0.284 OA
HETATM   15  C11 UNL     1       5.817  29.937  25.996  1.00  0.00     0.137 C 
HETATM   16  C20 UNL     1       6.508  30.551  27.006  1.00  0.00     0.072 C 
ENDROOT
BRANCH  15  17
HETATM   17  O9  UNL     1       6.409  29.047  25.221  1.00  0.00    -0.313 OA
BRANCH  17  18
HETATM   18  C12 UNL     1       7.476  29.045  24.326  1.00  0.00     0.298 C 
HETATM   19  O10 UNL     1       7.234  29.760  23.169  1.00  0.00    -0.348 OA
HETATM   20  C13 UNL     1       7.432  28.911  22.069  1.00  0.00     0.180 C 
HETATM   21  C15 UNL     1       8.575  28.029  22.499  1.00  0.00     0.186 C 
HETATM   22  C19 UNL     1       8.088  27.745  23.957  1.00  0.00     0.205 C 
BRANCH  20  23
HETATM   23  C14 UNL     1       7.934  29.797  20.927  1.00  0.00     0.198 C 
BRANCH  23  24
HETATM   24  O11 UNL     1       7.949  31.150  21.301  1.00  0.00    -0.398 OA
ATOM     25  H11 UNL     1       8.693  31.603  20.922  1.00  0.00     0.209 HD
ENDBRANCH  23  24
ENDBRANCH  20  23
BRANCH  21  26
HETATM   26  O12 UNL     1       9.695  28.825  22.447  1.00  0.00    -0.371 OA
BRANCH  26  27
HETATM   27  C16 UNL     1      10.911  28.356  22.819  1.00  0.00     0.169 C 
BRANCH  27  28
HETATM   28  C17 UNL     1      11.975  29.031  22.042  1.00  0.00     0.198 C 
BRANCH  28  29
HETATM   29  O13 UNL     1      12.348  28.111  21.015  1.00  0.00    -0.398 OA
ATOM     30  H13 UNL     1      13.269  28.272  20.846  1.00  0.00     0.209 HD
ENDBRANCH  28  29
ENDBRANCH  27  28
BRANCH  27  31
HETATM   31  C18 UNL     1      11.003  26.848  22.239  1.00  0.00     0.198 C 
BRANCH  31  32
HETATM   32  O14 UNL     1      11.990  26.308  23.058  1.00  0.00    -0.398 OA
ATOM     33  H14 UNL     1      12.367  25.655  22.480  1.00  0.00     0.209 HD
ENDBRANCH  31  32
ENDBRANCH  27  31
ENDBRANCH  26  27
ENDBRANCH  21  26
BRANCH  22  34
HETATM   34  O15 UNL     1       7.099  26.776  23.775  1.00  0.00    -0.388 OA
ATOM     35  H15 UNL     1       7.458  25.908  23.912  1.00  0.00     0.210 HD
ENDBRANCH  22  34
ENDBRANCH  17  18
ENDBRANCH  15  17
BRANCH  16  36
HETATM   36  C21 UNL     1       7.975  30.678  26.969  1.00  0.00     0.167 C 
BRANCH  36  37
HETATM   37  N1  UNL     1       8.349  32.093  27.234  1.00  0.00    -0.384 N 
ATOM     38  H1  UNL     1       7.676  32.859  27.204  1.00  0.00     0.160 HD
BRANCH  37  39
HETATM   39  C22 UNL     1       9.735  32.286  27.534  1.00  0.00     0.046 A 
HETATM   40  C23 UNL     1      10.230  32.548  28.797  1.00  0.00     0.119 A 
HETATM   41  N2  UNL     1      11.590  32.665  28.994  1.00  0.00    -0.342 N 
HETATM   42  C24 UNL     1      12.495  32.545  28.040  1.00  0.00     0.178 A 
ATOM     43  H2  UNL     1      11.919  32.858  29.940  1.00  0.00     0.167 HD
HETATM   44  C25 UNL     1      12.038  32.284  26.752  1.00  0.00     0.124 A 
HETATM   45  O17 UNL     1      13.895  32.627  27.996  1.00  0.00    -0.307 OA
HETATM   46  C26 UNL     1      10.685  32.153  26.492  1.00  0.00     0.072 A 
HETATM   47  O16 UNL     1      13.130  32.209  25.936  1.00  0.00    -0.321 OA
HETATM   48  C27 UNL     1      14.338  32.428  26.678  1.00  0.00     0.353 A 
ENDBRANCH  37  39
ENDBRANCH  36  37
ENDBRANCH  16  36
BRANCH   5  49
HETATM   49  O3  UNL     1       4.101  34.171  28.256  1.00  0.00    -0.356 OA
ATOM     50  H3  UNL     1       3.984  35.058  27.938  1.00  0.00     0.218 HD
ENDBRANCH   5  49
BRANCH   9  51
HETATM   51  C7  UNL     1       0.223  31.311  24.905  1.00  0.00     0.293 C 
BRANCH  51  52
HETATM   52  O5  UNL     1      -0.177  29.990  25.143  1.00  0.00    -0.367 OA
ATOM     53  H5  UNL     1      -1.031  29.980  25.560  1.00  0.00     0.213 HD
ENDBRANCH  51  52
BRANCH  51  54
HETATM   54  O6  UNL     1       0.757  31.312  23.603  1.00  0.00    -0.367 OA
ATOM     55  H6  UNL     1       0.050  31.285  22.969  1.00  0.00     0.213 HD
ENDBRANCH  51  54
ENDBRANCH   9  51
BRANCH   6  56
HETATM   56  O4  UNL     1       1.440  34.630  28.004  1.00  0.00    -0.357 OA
ATOM     57  H4  UNL     1       0.884  35.169  27.454  1.00  0.00     0.218 HD
ENDBRANCH   6  56
TORSDOF 19
ENDMDL
MODEL 4
REMARK VINA RESULT: -7.681055226      3.558      7.327
REMARK  19 active torsions:
REMARK  status: ('A' for Active; 'I' for Inactive)
REMARK    1  A    between atoms: C3_5  and  O3_6 
REMARK    2  A    between atoms: C4_8  and  O4_9 
REMARK    3  A    between atoms: C6_13  and  C7_14 
REMARK    4  A    between atoms: C7_14  and  O5_15 
REMARK    5  A    between atoms: C7_14  and  O6_17 
REMARK    6  A    between atoms: C11_24  and  O9_25 
REMARK    7  A    between atoms: O9_25  and  C12_26 
REMARK    8  A    between atoms: C13_28  and  C14_29 
REMARK    9  A    between atoms: C14_29  and  O11_30 
REMARK   10  A    between atoms: C15_32  and  O12_33 
REMARK   11  A    between atoms: O12_33  and  C16_34 
REMARK   12  A    between atoms: C16_34  and  C17_35 
REMARK   13  A    between atoms: C16_34  and  C18_38 
REMARK   14  A    between atoms: C17_35  and  O13_36 
REMARK   15  A    between atoms: C18_38  and  O14_39 
REMARK   16  A    between atoms: C19_41  and  O15_42 
REMARK   17  A    between atoms: C20_44  and  C21_45 
REMARK   18  A    between atoms: C21_45  and  N1_46 
REMARK   19  A    between atoms: N1_46  and  C22_48 
ROOT
HETATM    1  O1  UNL     1       5.695  29.628  24.750  1.00  0.00    -0.259 OA
HETATM    2  C1  UNL     1       4.894  30.009  25.566  1.00  0.00     0.299 C 
HETATM    3  O2  UNL     1       3.738  30.464  25.028  1.00  0.00    -0.271 OA
HETATM    4  C2  UNL     1       2.840  31.222  25.606  1.00  0.00     0.133 C 
HETATM    5  C3  UNL     1       1.657  31.012  24.867  1.00  0.00     0.136 C 
HETATM    6  C4  UNL     1       0.651  31.995  24.680  1.00  0.00     0.120 C 
HETATM    7  C5  UNL     1       0.539  33.221  25.325  1.00  0.00     0.063 C 
HETATM    8  S1  UNL     1      -0.680  34.340  24.589  1.00  0.00    -0.049 SA
HETATM    9  C6  UNL     1       1.187  33.691  26.426  1.00  0.00     0.067 C 
HETATM   10  C8  UNL     1       2.359  33.223  27.012  1.00  0.00     0.201 C 
HETATM   11  O7  UNL     1       2.819  33.960  27.902  1.00  0.00    -0.287 OA
HETATM   12  C9  UNL     1       3.028  32.055  26.690  1.00  0.00     0.104 C 
HETATM   13  C10 UNL     1       3.965  31.923  27.712  1.00  0.00     0.223 C 
HETATM   14  O8  UNL     1       3.861  32.813  28.576  1.00  0.00    -0.284 OA
HETATM   15  C11 UNL     1       4.953  30.951  27.872  1.00  0.00     0.137 C 
HETATM   16  C20 UNL     1       5.163  29.959  26.954  1.00  0.00     0.072 C 
ENDROOT
BRANCH  15  17
HETATM   17  O9  UNL     1       5.698  31.030  28.959  1.00  0.00    -0.313 OA
BRANCH  17  18
HETATM   18  C12 UNL     1       7.045  31.250  29.241  1.00  0.00     0.298 C 
HETATM   19  O10 UNL     1       7.507  30.545  30.335  1.00  0.00    -0.348 OA
HETATM   20  C13 UNL     1       8.056  31.453  31.253  1.00  0.00     0.180 C 
HETATM   21  C15 UNL     1       8.689  32.505  30.381  1.00  0.00     0.186 C 
HETATM   22  C19 UNL     1       7.528  32.648  29.345  1.00  0.00     0.205 C 
BRANCH  20  23
HETATM   23  C14 UNL     1       9.183  30.708  31.973  1.00  0.00     0.198 C 
BRANCH  23  24
HETATM   24  O11 UNL     1      10.114  31.603  32.524  1.00  0.00    -0.398 OA
ATOM     25  H11 UNL     1      10.853  31.142  32.900  1.00  0.00     0.209 HD
ENDBRANCH  23  24
ENDBRANCH  20  23
BRANCH  21  26
HETATM   26  O12 UNL     1       9.816  31.919  29.854  1.00  0.00    -0.371 OA
BRANCH  26  27
HETATM   27  C16 UNL     1      10.385  32.382  28.715  1.00  0.00     0.169 C 
BRANCH  27  28
HETATM   28  C17 UNL     1      10.391  31.322  27.682  1.00  0.00     0.198 C 
BRANCH  28  29
HETATM   29  O13 UNL     1      10.143  30.100  28.380  1.00  0.00    -0.398 OA
ATOM     30  H13 UNL     1       9.648  29.555  27.779  1.00  0.00     0.209 HD
ENDBRANCH  28  29
ENDBRANCH  27  28
BRANCH  27  31
HETATM   31  C18 UNL     1      11.966  32.523  29.033  1.00  0.00     0.198 C 
BRANCH  31  32
HETATM   32  O14 UNL     1      12.104  31.633  30.094  1.00  0.00    -0.398 OA
ATOM     33  H14 UNL     1      12.819  31.090  29.783  1.00  0.00     0.209 HD
ENDBRANCH  31  32
ENDBRANCH  27  31
ENDBRANCH  26  27
ENDBRANCH  21  26
BRANCH  22  34
HETATM   34  O15 UNL     1       6.596  33.436  30.023  1.00  0.00    -0.388 OA
ATOM     35  H15 UNL     1       5.812  33.547  29.499  1.00  0.00     0.210 HD
ENDBRANCH  22  34
ENDBRANCH  17  18
ENDBRANCH  15  17
BRANCH  16  36
HETATM   36  C21 UNL     1       5.803  28.686  27.328  1.00  0.00     0.167 C 
BRANCH  36  37
HETATM   37  N1  UNL     1       4.983  28.016  28.373  1.00  0.00    -0.384 N 
ATOM     38  H1  UNL     1       4.857  28.401  29.309  1.00  0.00     0.160 HD
BRANCH  37  39
HETATM   39  C22 UNL     1       4.386  26.786  27.951  1.00  0.00     0.046 A 
HETATM   40  C23 UNL     1       3.634  25.964  28.767  1.00  0.00     0.119 A 
HETATM   41  N2  UNL     1       3.054  24.824  28.251  1.00  0.00    -0.342 N 
HETATM   42  C24 UNL     1       3.162  24.435  26.994  1.00  0.00     0.178 A 
ATOM     43  H2  UNL     1       2.504  24.242  28.884  1.00  0.00     0.167 HD
HETATM   44  C25 UNL     1       3.914  25.234  26.139  1.00  0.00     0.124 A 
HETATM   45  O17 UNL     1       2.681  23.342  26.258  1.00  0.00    -0.307 OA
HETATM   46  C26 UNL     1       4.518  26.392  26.597  1.00  0.00     0.072 A 
HETATM   47  O16 UNL     1       3.898  24.645  24.907  1.00  0.00    -0.321 OA
HETATM   48  C27 UNL     1       3.132  23.433  24.931  1.00  0.00     0.353 A 
ENDBRANCH  37  39
ENDBRANCH  36  37
ENDBRANCH  16  36
BRANCH   5  49
HETATM   49  O3  UNL     1       1.491  29.788  24.317  1.00  0.00    -0.356 OA
ATOM     50  H3  UNL     1       1.638  29.041  24.886  1.00  0.00     0.218 HD
ENDBRANCH   5  49
BRANCH   9  51
HETATM   51  C7  UNL     1       0.632  34.850  27.160  1.00  0.00     0.293 C 
BRANCH  51  52
HETATM   52  O5  UNL     1       1.487  35.952  27.030  1.00  0.00    -0.367 OA
ATOM     53  H5  UNL     1       1.489  36.457  27.835  1.00  0.00     0.213 HD
ENDBRANCH  51  52
BRANCH  51  54
HETATM   54  O6  UNL     1       0.599  34.562  28.538  1.00  0.00    -0.367 OA
ATOM     55  H6  UNL     1      -0.082  35.078  28.954  1.00  0.00     0.213 HD
ENDBRANCH  51  54
ENDBRANCH   9  51
BRANCH   6  56
HETATM   56  O4  UNL     1      -0.321  31.730  23.774  1.00  0.00    -0.357 OA
ATOM     57  H4  UNL     1      -1.174  32.120  23.921  1.00  0.00     0.218 HD
ENDBRANCH   6  56
TORSDOF 19
ENDMDL
MODEL 5
REMARK VINA RESULT: -7.527306305      4.695      7.636
REMARK  19 active torsions:
REMARK  status: ('A' for Active; 'I' for Inactive)
REMARK    1  A    between atoms: C3_5  and  O3_6 
REMARK    2  A    between atoms: C4_8  and  O4_9 
REMARK    3  A    between atoms: C6_13  and  C7_14 
REMARK    4  A    between atoms: C7_14  and  O5_15 
REMARK    5  A    between atoms: C7_14  and  O6_17 
REMARK    6  A    between atoms: C11_24  and  O9_25 
REMARK    7  A    between atoms: O9_25  and  C12_26 
REMARK    8  A    between atoms: C13_28  and  C14_29 
REMARK    9  A    between atoms: C14_29  and  O11_30 
REMARK   10  A    between atoms: C15_32  and  O12_33 
REMARK   11  A    between atoms: O12_33  and  C16_34 
REMARK   12  A    between atoms: C16_34  and  C17_35 
REMARK   13  A    between atoms: C16_34  and  C18_38 
REMARK   14  A    between atoms: C17_35  and  O13_36 
REMARK   15  A    between atoms: C18_38  and  O14_39 
REMARK   16  A    between atoms: C19_41  and  O15_42 
REMARK   17  A    between atoms: C20_44  and  C21_45 
REMARK   18  A    between atoms: C21_45  and  N1_46 
REMARK   19  A    between atoms: N1_46  and  C22_48 
ROOT
HETATM    1  O1  UNL     1      11.251  32.253  28.278  1.00  0.00    -0.259 OA
HETATM    2  C1  UNL     1      10.808  31.204  28.673  1.00  0.00     0.299 C 
HETATM    3  O2  UNL     1      11.431  30.726  29.775  1.00  0.00    -0.271 OA
HETATM    4  C2  UNL     1      11.403  29.498  30.231  1.00  0.00     0.133 C 
HETATM    5  C3  UNL     1      11.759  29.607  31.591  1.00  0.00     0.136 C 
HETATM    6  C4  UNL     1      12.457  28.604  32.314  1.00  0.00     0.120 C 
HETATM    7  C5  UNL     1      12.727  27.304  31.905  1.00  0.00     0.063 C 
HETATM    8  S1  UNL     1      13.919  26.428  32.950  1.00  0.00    -0.049 SA
HETATM    9  C6  UNL     1      12.220  26.593  30.861  1.00  0.00     0.067 C 
HETATM   10  C8  UNL     1      11.551  27.061  29.733  1.00  0.00     0.201 C 
HETATM   11  O7  UNL     1      11.362  26.201  28.854  1.00  0.00    -0.287 OA
HETATM   12  C9  UNL     1      11.107  28.354  29.519  1.00  0.00     0.104 C 
HETATM   13  C10 UNL     1      10.299  28.238  28.390  1.00  0.00     0.223 C 
HETATM   14  O8  UNL     1      10.188  27.063  27.997  1.00  0.00    -0.284 OA
HETATM   15  C11 UNL     1       9.629  29.242  27.689  1.00  0.00     0.137 C 
HETATM   16  C20 UNL     1       9.724  30.564  28.028  1.00  0.00     0.072 C 
ENDROOT
BRANCH  15  17
HETATM   17  O9  UNL     1       8.892  28.862  26.662  1.00  0.00    -0.313 OA
BRANCH  17  18
HETATM   18  C12 UNL     1       8.897  29.079  25.286  1.00  0.00     0.298 C 
HETATM   19  O10 UNL     1       7.876  28.433  24.617  1.00  0.00    -0.348 OA
HETATM   20  C13 UNL     1       8.437  27.620  23.620  1.00  0.00     0.180 C 
HETATM   21  C15 UNL     1       9.627  28.411  23.141  1.00  0.00     0.186 C 
HETATM   22  C19 UNL     1      10.160  28.861  24.539  1.00  0.00     0.205 C 
BRANCH  20  23
HETATM   23  C14 UNL     1       7.420  27.574  22.478  1.00  0.00     0.198 C 
BRANCH  23  24
HETATM   24  O11 UNL     1       7.996  27.066  21.303  1.00  0.00    -0.398 OA
ATOM     25  H11 UNL     1       8.840  27.466  21.132  1.00  0.00     0.209 HD
ENDBRANCH  23  24
ENDBRANCH  20  23
BRANCH  21  26
HETATM   26  O12 UNL     1       9.106  29.447  22.401  1.00  0.00    -0.371 OA
BRANCH  26  27
HETATM   27  C16 UNL     1       9.830  30.053  21.428  1.00  0.00     0.169 C 
BRANCH  27  28
HETATM   28  C17 UNL     1       8.971  30.338  20.258  1.00  0.00     0.198 C 
BRANCH  28  29
HETATM   29  O13 UNL     1       7.872  31.100  20.761  1.00  0.00    -0.398 OA
ATOM     30  H13 UNL     1       8.143  32.008  20.711  1.00  0.00     0.209 HD
ENDBRANCH  28  29
ENDBRANCH  27  28
BRANCH  27  31
HETATM   31  C18 UNL     1      10.813  28.914  20.830  1.00  0.00     0.198 C 
BRANCH  31  32
HETATM   32  O14 UNL     1      10.161  28.598  19.642  1.00  0.00    -0.398 OA
ATOM     33  H14 UNL     1      10.828  28.085  19.201  1.00  0.00     0.209 HD
ENDBRANCH  31  32
ENDBRANCH  27  31
ENDBRANCH  26  27
ENDBRANCH  21  26
BRANCH  22  34
HETATM   34  O15 UNL     1      10.812  27.719  25.009  1.00  0.00    -0.388 OA
ATOM     35  H15 UNL     1      11.574  27.529  24.474  1.00  0.00     0.210 HD
ENDBRANCH  22  34
ENDBRANCH  17  18
ENDBRANCH  15  17
BRANCH  16  36
HETATM   36  C21 UNL     1       8.674  31.530  27.662  1.00  0.00     0.167 C 
BRANCH  36  37
HETATM   37  N1  UNL     1       7.469  31.280  28.496  1.00  0.00    -0.384 N 
ATOM     38  H1  UNL     1       6.601  30.899  28.118  1.00  0.00     0.160 HD
BRANCH  37  39
HETATM   39  C22 UNL     1       7.631  31.619  29.877  1.00  0.00     0.046 A 
HETATM   40  C23 UNL     1       8.027  30.730  30.857  1.00  0.00     0.119 A 
HETATM   41  N2  UNL     1       8.208  31.168  32.153  1.00  0.00    -0.342 N 
HETATM   42  C24 UNL     1       8.025  32.413  32.552  1.00  0.00     0.178 A 
ATOM     43  H2  UNL     1       8.503  30.483  32.849  1.00  0.00     0.167 HD
HETATM   44  C25 UNL     1       7.622  33.340  31.596  1.00  0.00     0.124 A 
HETATM   45  O17 UNL     1       8.137  33.078  33.783  1.00  0.00    -0.307 OA
HETATM   46  C26 UNL     1       7.427  32.962  30.279  1.00  0.00     0.072 A 
HETATM   47  O16 UNL     1       7.487  34.544  32.224  1.00  0.00    -0.321 OA
HETATM   48  C27 UNL     1       7.796  34.431  33.619  1.00  0.00     0.353 A 
ENDBRANCH  37  39
ENDBRANCH  36  37
ENDBRANCH  16  36
BRANCH   5  49
HETATM   49  O3  UNL     1      11.398  30.745  32.226  1.00  0.00    -0.356 OA
ATOM     50  H3  UNL     1      12.085  31.217  32.680  1.00  0.00     0.218 HD
ENDBRANCH   5  49
BRANCH   9  51
HETATM   51  C7  UNL     1      12.348  25.120  30.850  1.00  0.00     0.293 C 
BRANCH  51  52
HETATM   52  O5  UNL     1      13.090  24.712  29.734  1.00  0.00    -0.367 OA
ATOM     53  H5  UNL     1      12.977  23.779  29.593  1.00  0.00     0.213 HD
ENDBRANCH  51  52
BRANCH  51  54
HETATM   54  O6  UNL     1      11.077  24.537  30.687  1.00  0.00    -0.367 OA
ATOM     55  H6  UNL     1      10.543  25.090  30.127  1.00  0.00     0.213 HD
ENDBRANCH  51  54
ENDBRANCH   9  51
BRANCH   6  56
HETATM   56  O4  UNL     1      12.921  28.929  33.544  1.00  0.00    -0.357 OA
ATOM     57  H4  UNL     1      13.777  28.599  33.790  1.00  0.00     0.218 HD
ENDBRANCH   6  56
TORSDOF 19
ENDMDL
