MODEL 1
REMARK VINA RESULT: -10.185389862      0.000      0.000
REMARK  17 active torsions:
REMARK  status: ('A' for Active; 'I' for Inactive)
REMARK    1  A    between atoms: N5_15  and  C6_16 
REMARK    2  A    between atoms: C7_18  and  C8_19 
REMARK    3  A    between atoms: C8_19  and  O2_20 
REMARK    4  A    between atoms: C10_23  and  N6_24 
REMARK       I    between atoms: N6_24  and  C11_26 
REMARK    5  A    between atoms: C11_26  and  C12_28 
REMARK    6  A    between atoms: C13_31  and  C14_32 
REMARK    7  A    between atoms: C15_35  and  N9_36 
REMARK    8  A    between atoms: C16_41  and  N11_42 
REMARK    9  A    between atoms: N11_42  and  C17_44 
REMARK   10  A    between atoms: C17_44  and  C18_45 
REMARK   11  A    between atoms: C18_45  and  C19_46 
REMARK   12  A    between atoms: C19_46  and  S1_47 
REMARK   13  A    between atoms: S1_47  and  C20_48 
REMARK   14  A    between atoms: C21_51  and  C22_52 
REMARK   15  A    between atoms: C22_52  and  O4_53 
REMARK   16  A    between atoms: C22_52  and  C23_55 
REMARK   17  A    between atoms: C23_55  and  O5_56 
ROOT
HETATM    1  C12 UNL     1       9.241  29.560  19.515  1.00  0.00     0.240 A 
HETATM    2  N7  UNL     1       9.512  29.025  18.336  1.00  0.00    -0.313 N 
ATOM      3  H7  UNL     1      10.340  28.475  18.111  1.00  0.00     0.170 HD
HETATM    4  C13 UNL     1       8.526  29.323  17.495  1.00  0.00     0.163 A 
HETATM    5  N15 UNL     1       7.632  30.058  18.177  1.00  0.00    -0.240 N 
ATOM      6  H15 UNL     1       6.760  30.443  17.815  1.00  0.00     0.196 HD
HETATM    7  O6  UNL     1       8.091  30.183  19.387  1.00  0.00    -0.212 OA
ENDROOT
BRANCH   4   8
HETATM    8  C14 UNL     1       8.444  28.951  16.086  1.00  0.00     0.139 A 
HETATM    9  N8  UNL     1       7.312  28.586  15.469  1.00  0.00    -0.182 N 
HETATM   10  C15 UNL     1       7.181  28.262  14.178  1.00  0.00     0.678 A 
ATOM     11  H8  UNL     1       6.468  28.553  16.040  1.00  0.00     0.185 HD
HETATM   12  N10 UNL     1       8.156  28.240  13.262  1.00  0.00    -0.171 N 
HETATM   13  C16 UNL     1       9.436  28.537  13.451  1.00  0.00     0.161 A 
ATOM     14  H10 UNL     1       7.887  27.966  12.317  1.00  0.00     0.186 HD
HETATM   15  S2  UNL     1       9.810  28.985  15.074  1.00  0.00    -0.032 SA
BRANCH  10  16
HETATM   16  N9  UNL     1       5.951  27.934  13.824  1.00  0.00    -0.234 N 
ATOM     17  H92 UNL     1       5.166  28.239  14.398  1.00  0.00     0.174 HD
ATOM     18  H91 UNL     1       5.894  27.383  12.967  1.00  0.00     0.174 HD
ENDBRANCH  10  16
BRANCH  13  19
HETATM   19  N11 UNL     1      10.373  28.566  12.601  1.00  0.00    -0.370 N 
ATOM     20  H11 UNL     1      10.284  29.291  11.889  1.00  0.00     0.161 HD
BRANCH  19  21
HETATM   21  C17 UNL     1      11.529  27.748  12.485  1.00  0.00     0.122 C 
BRANCH  21  22
HETATM   22  C18 UNL     1      12.577  28.546  11.729  1.00  0.00     0.030 C 
BRANCH  22  23
HETATM   23  C19 UNL     1      13.905  27.868  11.697  1.00  0.00     0.084 C 
BRANCH  23  24
HETATM   24  S1  UNL     1      13.884  26.090  11.554  1.00  0.00    -0.092 SA
BRANCH  24  25
HETATM   25  C20 UNL     1      14.041  25.507   9.885  1.00  0.00     0.160 A 
HETATM   26  N12 UNL     1      14.637  26.059   8.827  1.00  0.00    -0.322 N 
HETATM   27  C21 UNL     1      14.510  25.249   7.786  1.00  0.00     0.129 A 
ATOM     28  H12 UNL     1      15.113  26.961   8.820  1.00  0.00     0.169 HD
HETATM   29  N13 UNL     1      13.824  24.160   8.181  1.00  0.00    -0.285 N 
HETATM   30  N14 UNL     1      13.538  24.326   9.471  1.00  0.00    -0.278 N 
ATOM     31  H13 UNL     1      13.569  23.360   7.602  1.00  0.00     0.188 HD
ATOM     32  H14 UNL     1      13.022  23.665  10.053  1.00  0.00     0.189 HD
BRANCH  27  33
HETATM   33  C22 UNL     1      15.017  25.441   6.411  1.00  0.00     0.210 C 
BRANCH  33  34
HETATM   34  O4  UNL     1      14.538  26.683   5.982  1.00  0.00    -0.386 OA
ATOM     35  H4  UNL     1      13.977  26.512   5.235  1.00  0.00     0.210 HD
ENDBRANCH  33  34
BRANCH  33  36
HETATM   36  C23 UNL     1      16.541  25.557   6.473  1.00  0.00     0.203 C 
BRANCH  36  37
HETATM   37  O5  UNL     1      16.891  26.867   6.788  1.00  0.00    -0.398 OA
ATOM     38  H5  UNL     1      17.352  26.879   7.619  1.00  0.00     0.209 HD
ENDBRANCH  36  37
ENDBRANCH  33  36
ENDBRANCH  27  33
ENDBRANCH  24  25
ENDBRANCH  23  24
ENDBRANCH  22  23
ENDBRANCH  21  22
ENDBRANCH  19  21
ENDBRANCH  13  19
ENDBRANCH   4   8
BRANCH   1  39
HETATM   39  C11 UNL     1      10.055  29.485  20.746  1.00  0.00     0.296 C 
HETATM   40  N6  UNL     1      11.014  28.441  20.844  1.00  0.00    -0.327 N 
ATOM     41  H6  UNL     1      11.092  27.793  20.060  1.00  0.00     0.165 HD
HETATM   42  O3  UNL     1       9.867  30.336  21.653  1.00  0.00    -0.264 OA
BRANCH  40  43
HETATM   43  C10 UNL     1      11.886  28.232  21.976  1.00  0.00     0.231 C 
HETATM   44  C9  UNL     1      11.770  26.797  22.420  1.00  0.00     0.088 C 
HETATM   45  C7  UNL     1      10.480  26.691  23.202  1.00  0.00     0.154 C 
HETATM   46  O1  UNL     1      10.700  27.307  24.447  1.00  0.00    -0.336 OA
HETATM   47  C6  UNL     1      11.511  28.417  24.261  1.00  0.00     0.382 C 
HETATM   48  O7  UNL     1      11.301  29.008  23.014  1.00  0.00    -0.319 OA
BRANCH  45  49
HETATM   49  C8  UNL     1       9.987  25.295  23.402  1.00  0.00     0.196 C 
BRANCH  49  50
HETATM   50  O2  UNL     1      11.088  24.427  23.245  1.00  0.00    -0.398 OA
ATOM     51  H2  UNL     1      11.870  24.906  23.491  1.00  0.00     0.209 HD
ENDBRANCH  49  50
ENDBRANCH  45  49
BRANCH  47  52
HETATM   52  N5  UNL     1      11.117  29.432  25.238  1.00  0.00    -0.277 N 
HETATM   53  C2  UNL     1      11.849  30.248  25.982  1.00  0.00     0.156 A 
HETATM   54  N2  UNL     1      13.179  30.396  26.057  1.00  0.00    -0.174 N 
HETATM   55  C3  UNL     1      11.059  31.042  26.786  1.00  0.00     0.094 A 
HETATM   56  C1  UNL     1      13.721  31.296  26.894  1.00  0.00     0.677 A 
ATOM     57  H2  UNL     1      13.785  29.821  25.472  1.00  0.00     0.186 HD
HETATM   58  N1  UNL     1      15.019  31.402  26.927  1.00  0.00    -0.234 N 
HETATM   59  N3  UNL     1      12.976  32.089  27.697  1.00  0.00    -0.200 N 
ATOM     60  H12 UNL     1      15.581  30.804  26.321  1.00  0.00     0.174 HD
ATOM     61  H11 UNL     1      15.431  32.086  27.563  1.00  0.00     0.174 HD
HETATM   62  C4  UNL     1      11.648  31.957  27.636  1.00  0.00     0.139 A 
ATOM     63  H3  UNL     1      13.412  32.763  28.326  1.00  0.00     0.183 HD
HETATM   64  N4  UNL     1       9.790  30.683  26.506  1.00  0.00    -0.348 N 
HETATM   65  C5  UNL     1       9.832  29.706  25.564  1.00  0.00     0.190 A 
ATOM     66  H4  UNL     1       8.948  31.075  26.929  1.00  0.00     0.167 HD
ENDBRANCH  47  52
ENDBRANCH  40  43
ENDBRANCH   1  39
TORSDOF 17
ENDMDL
MODEL 2
REMARK VINA RESULT: -10.048768544      4.455     15.367
REMARK  17 active torsions:
REMARK  status: ('A' for Active; 'I' for Inactive)
REMARK    1  A    between atoms: N5_15  and  C6_16 
REMARK    2  A    between atoms: C7_18  and  C8_19 
REMARK    3  A    between atoms: C8_19  and  O2_20 
REMARK    4  A    between atoms: C10_23  and  N6_24 
REMARK       I    between atoms: N6_24  and  C11_26 
REMARK    5  A    between atoms: C11_26  and  C12_28 
REMARK    6  A    between atoms: C13_31  and  C14_32 
REMARK    7  A    between atoms: C15_35  and  N9_36 
REMARK    8  A    between atoms: C16_41  and  N11_42 
REMARK    9  A    between atoms: N11_42  and  C17_44 
REMARK   10  A    between atoms: C17_44  and  C18_45 
REMARK   11  A    between atoms: C18_45  and  C19_46 
REMARK   12  A    between atoms: C19_46  and  S1_47 
REMARK   13  A    between atoms: S1_47  and  C20_48 
REMARK   14  A    between atoms: C21_51  and  C22_52 
REMARK   15  A    between atoms: C22_52  and  O4_53 
REMARK   16  A    between atoms: C22_52  and  C23_55 
REMARK   17  A    between atoms: C23_55  and  O5_56 
ROOT
HETATM    1  C12 UNL     1       8.963  29.364  18.960  1.00  0.00     0.240 A 
HETATM    2  N7  UNL     1       9.721  29.661  20.003  1.00  0.00    -0.313 N 
ATOM      3  H7  UNL     1      10.487  30.333  20.007  1.00  0.00     0.170 HD
HETATM    4  C13 UNL     1       9.317  28.939  21.044  1.00  0.00     0.163 A 
HETATM    5  N15 UNL     1       8.287  28.183  20.627  1.00  0.00    -0.240 N 
ATOM      6  H15 UNL     1       7.755  27.518  21.188  1.00  0.00     0.196 HD
HETATM    7  O6  UNL     1       8.100  28.461  19.371  1.00  0.00    -0.212 OA
ENDROOT
BRANCH   4   8
HETATM    8  C14 UNL     1       9.901  28.940  22.382  1.00  0.00     0.139 A 
HETATM    9  N8  UNL     1       9.723  27.964  23.282  1.00  0.00    -0.182 N 
HETATM   10  C15 UNL     1      10.255  27.907  24.508  1.00  0.00     0.678 A 
ATOM     11  H8  UNL     1       9.122  27.187  23.004  1.00  0.00     0.185 HD
HETATM   12  N10 UNL     1      11.064  28.816  25.064  1.00  0.00    -0.171 N 
HETATM   13  C16 UNL     1      11.497  29.943  24.513  1.00  0.00     0.161 A 
ATOM     14  H10 UNL     1      11.382  28.621  26.013  1.00  0.00     0.186 HD
HETATM   15  S2  UNL     1      10.912  30.201  22.912  1.00  0.00    -0.032 SA
BRANCH  10  16
HETATM   16  N9  UNL     1       9.915  26.833  25.197  1.00  0.00    -0.234 N 
ATOM     17  H92 UNL     1       8.929  26.643  25.376  1.00  0.00     0.174 HD
ATOM     18  H91 UNL     1      10.704  26.262  25.499  1.00  0.00     0.174 HD
ENDBRANCH  10  16
BRANCH  13  19
HETATM   19  N11 UNL     1      12.292  30.801  24.994  1.00  0.00    -0.370 N 
ATOM     20  H11 UNL     1      13.029  31.109  24.359  1.00  0.00     0.161 HD
BRANCH  19  21
HETATM   21  C17 UNL     1      12.320  31.404  26.281  1.00  0.00     0.122 C 
BRANCH  21  22
HETATM   22  C18 UNL     1      11.428  32.632  26.228  1.00  0.00     0.030 C 
BRANCH  22  23
HETATM   23  C19 UNL     1      10.454  32.685  27.356  1.00  0.00     0.084 C 
BRANCH  23  24
HETATM   24  S1  UNL     1      10.062  31.131  28.139  1.00  0.00    -0.092 SA
BRANCH  24  25
HETATM   25  C20 UNL     1       9.901  31.242  29.902  1.00  0.00     0.160 A 
HETATM   26  N12 UNL     1       9.144  32.041  30.656  1.00  0.00    -0.322 N 
HETATM   27  C21 UNL     1       9.346  31.754  31.933  1.00  0.00     0.129 A 
ATOM     28  H12 UNL     1       8.512  32.761  30.304  1.00  0.00     0.169 HD
HETATM   29  N13 UNL     1      10.244  30.754  32.002  1.00  0.00    -0.285 N 
HETATM   30  N14 UNL     1      10.582  30.444  30.752  1.00  0.00    -0.278 N 
ATOM     31  H13 UNL     1      10.600  30.316  32.852  1.00  0.00     0.188 HD
ATOM     32  H14 UNL     1      11.248  29.721  30.480  1.00  0.00     0.189 HD
BRANCH  27  33
HETATM   33  C22 UNL     1       8.721  32.374  33.120  1.00  0.00     0.210 C 
BRANCH  33  34
HETATM   34  O4  UNL     1       9.761  32.939  33.866  1.00  0.00    -0.386 OA
ATOM     35  H4  UNL     1       9.430  33.760  34.210  1.00  0.00     0.210 HD
ENDBRANCH  33  34
BRANCH  33  36
HETATM   36  C23 UNL     1       7.841  33.534  32.647  1.00  0.00     0.203 C 
BRANCH  36  37
HETATM   37  O5  UNL     1       6.732  33.027  31.975  1.00  0.00    -0.398 OA
ATOM     38  H5  UNL     1       6.407  32.262  32.436  1.00  0.00     0.209 HD
ENDBRANCH  36  37
ENDBRANCH  33  36
ENDBRANCH  27  33
ENDBRANCH  24  25
ENDBRANCH  23  24
ENDBRANCH  22  23
ENDBRANCH  21  22
ENDBRANCH  19  21
ENDBRANCH  13  19
ENDBRANCH   4   8
BRANCH   1  39
HETATM   39  C11 UNL     1       9.049  29.924  17.596  1.00  0.00     0.296 C 
HETATM   40  N6  UNL     1       9.103  29.011  16.507  1.00  0.00    -0.327 N 
ATOM     41  H6  UNL     1       9.081  28.014  16.722  1.00  0.00     0.165 HD
HETATM   42  O3  UNL     1       9.075  31.173  17.451  1.00  0.00    -0.264 OA
BRANCH  40  43
HETATM   43  C10 UNL     1       9.186  29.397  15.118  1.00  0.00     0.231 C 
HETATM   44  C9  UNL     1       7.906  29.002  14.428  1.00  0.00     0.088 C 
HETATM   45  C7  UNL     1       7.993  27.513  14.176  1.00  0.00     0.154 C 
HETATM   46  O1  UNL     1       8.901  27.325  13.118  1.00  0.00    -0.336 OA
HETATM   47  C6  UNL     1       9.932  28.245  13.243  1.00  0.00     0.382 C 
HETATM   48  O7  UNL     1      10.194  28.549  14.580  1.00  0.00    -0.319 OA
BRANCH  45  49
HETATM   49  C8  UNL     1       6.690  26.859  13.854  1.00  0.00     0.196 C 
BRANCH  49  50
HETATM   50  O2  UNL     1       6.427  27.082  12.486  1.00  0.00    -0.398 OA
ATOM     51  H2  UNL     1       5.518  26.856  12.327  1.00  0.00     0.209 HD
ENDBRANCH  49  50
ENDBRANCH  45  49
BRANCH  47  52
HETATM   52  N5  UNL     1      11.157  27.619  12.747  1.00  0.00    -0.277 N 
HETATM   53  C2  UNL     1      11.561  26.357  12.781  1.00  0.00     0.156 A 
HETATM   54  N2  UNL     1      10.959  25.266  13.275  1.00  0.00    -0.174 N 
HETATM   55  C3  UNL     1      12.804  26.210  12.204  1.00  0.00     0.094 A 
HETATM   56  C1  UNL     1      11.556  24.066  13.207  1.00  0.00     0.677 A 
ATOM     57  H2  UNL     1      10.039  25.350  13.707  1.00  0.00     0.186 HD
HETATM   58  N1  UNL     1      10.927  23.036  13.700  1.00  0.00    -0.234 N 
HETATM   59  N3  UNL     1      12.775  23.886  12.649  1.00  0.00    -0.200 N 
ATOM     60  H12 UNL     1      10.008  23.172  14.121  1.00  0.00     0.174 HD
ATOM     61  H11 UNL     1      11.381  22.124  13.647  1.00  0.00     0.174 HD
HETATM   62  C4  UNL     1      13.391  24.961  12.149  1.00  0.00     0.139 A 
ATOM     63  H3  UNL     1      13.208  22.964  12.611  1.00  0.00     0.183 HD
HETATM   64  N4  UNL     1      13.161  27.447  11.803  1.00  0.00    -0.348 N 
HETATM   65  C5  UNL     1      12.156  28.297  12.134  1.00  0.00     0.190 A 
ATOM     66  H4  UNL     1      14.031  27.698  11.334  1.00  0.00     0.167 HD
ENDBRANCH  47  52
ENDBRANCH  40  43
ENDBRANCH   1  39
TORSDOF 17
ENDMDL
MODEL 3
REMARK VINA RESULT: -10.036941389      4.498     15.531
REMARK  17 active torsions:
REMARK  status: ('A' for Active; 'I' for Inactive)
REMARK    1  A    between atoms: N5_15  and  C6_16 
REMARK    2  A    between atoms: C7_18  and  C8_19 
REMARK    3  A    between atoms: C8_19  and  O2_20 
REMARK    4  A    between atoms: C10_23  and  N6_24 
REMARK       I    between atoms: N6_24  and  C11_26 
REMARK    5  A    between atoms: C11_26  and  C12_28 
REMARK    6  A    between atoms: C13_31  and  C14_32 
REMARK    7  A    between atoms: C15_35  and  N9_36 
REMARK    8  A    between atoms: C16_41  and  N11_42 
REMARK    9  A    between atoms: N11_42  and  C17_44 
REMARK   10  A    between atoms: C17_44  and  C18_45 
REMARK   11  A    between atoms: C18_45  and  C19_46 
REMARK   12  A    between atoms: C19_46  and  S1_47 
REMARK   13  A    between atoms: S1_47  and  C20_48 
REMARK   14  A    between atoms: C21_51  and  C22_52 
REMARK   15  A    between atoms: C22_52  and  O4_53 
REMARK   16  A    between atoms: C22_52  and  C23_55 
REMARK   17  A    between atoms: C23_55  and  O5_56 
ROOT
HETATM    1  C12 UNL     1       8.923  29.475  18.330  1.00  0.00     0.240 A 
HETATM    2  N7  UNL     1       9.417  29.979  19.448  1.00  0.00    -0.313 N 
ATOM      3  H7  UNL     1      10.143  30.692  19.509  1.00  0.00     0.170 HD
HETATM    4  C13 UNL     1       8.811  29.401  20.481  1.00  0.00     0.163 A 
HETATM    5  N15 UNL     1       7.925  28.523  19.981  1.00  0.00    -0.240 N 
ATOM      6  H15 UNL     1       7.300  27.920  20.515  1.00  0.00     0.196 HD
HETATM    7  O6  UNL     1       8.018  28.592  18.686  1.00  0.00    -0.212 OA
ENDROOT
BRANCH   4   8
HETATM    8  C14 UNL     1       9.078  29.647  21.896  1.00  0.00     0.139 A 
HETATM    9  N8  UNL     1       8.195  29.424  22.878  1.00  0.00    -0.182 N 
HETATM   10  C15 UNL     1       8.400  29.609  24.187  1.00  0.00     0.678 A 
ATOM     11  H8  UNL     1       7.276  29.079  22.600  1.00  0.00     0.185 HD
HETATM   12  N10 UNL     1       9.525  30.053  24.758  1.00  0.00    -0.171 N 
HETATM   13  C16 UNL     1      10.653  30.393  24.145  1.00  0.00     0.161 A 
ATOM     14  H10 UNL     1       9.515  30.141  25.774  1.00  0.00     0.186 HD
HETATM   15  S2  UNL     1      10.587  30.221  22.431  1.00  0.00    -0.032 SA
BRANCH  10  16
HETATM   16  N9  UNL     1       7.359  29.316  24.946  1.00  0.00    -0.234 N 
ATOM     17  H92 UNL     1       6.438  29.221  24.518  1.00  0.00     0.174 HD
ATOM     18  H91 UNL     1       7.580  29.201  25.935  1.00  0.00     0.174 HD
ENDBRANCH  10  16
BRANCH  13  19
HETATM   19  N11 UNL     1      11.744  30.776  24.657  1.00  0.00    -0.370 N 
ATOM     20  H11 UNL     1      12.546  30.753  24.026  1.00  0.00     0.161 HD
BRANCH  19  21
HETATM   21  C17 UNL     1      12.029  31.232  25.973  1.00  0.00     0.122 C 
BRANCH  21  22
HETATM   22  C18 UNL     1      11.383  32.598  26.130  1.00  0.00     0.030 C 
BRANCH  22  23
HETATM   23  C19 UNL     1      10.537  32.697  27.354  1.00  0.00     0.084 C 
BRANCH  23  24
HETATM   24  S1  UNL     1      10.557  31.288  28.447  1.00  0.00    -0.092 SA
BRANCH  24  25
HETATM   25  C20 UNL     1       9.529  31.484  29.881  1.00  0.00     0.160 A 
HETATM   26  N12 UNL     1       9.706  32.218  30.981  1.00  0.00    -0.322 N 
HETATM   27  C21 UNL     1       8.662  32.060  31.781  1.00  0.00     0.129 A 
ATOM     28  H12 UNL     1      10.516  32.806  31.175  1.00  0.00     0.169 HD
HETATM   29  N13 UNL     1       7.801  31.213  31.186  1.00  0.00    -0.285 N 
HETATM   30  N14 UNL     1       8.340  30.862  30.020  1.00  0.00    -0.278 N 
ATOM     31  H13 UNL     1       6.905  30.898  31.559  1.00  0.00     0.188 HD
ATOM     32  H14 UNL     1       7.921  30.226  29.341  1.00  0.00     0.189 HD
BRANCH  27  33
HETATM   33  C22 UNL     1       8.418  32.681  33.099  1.00  0.00     0.210 C 
BRANCH  33  34
HETATM   34  O4  UNL     1       9.671  32.830  33.705  1.00  0.00    -0.386 OA
ATOM     35  H4  UNL     1      10.013  31.954  33.836  1.00  0.00     0.210 HD
ENDBRANCH  33  34
BRANCH  33  36
HETATM   36  C23 UNL     1       7.871  34.091  32.872  1.00  0.00     0.203 C 
BRANCH  36  37
HETATM   37  O5  UNL     1       7.143  34.117  31.685  1.00  0.00    -0.398 OA
ATOM     38  H5  UNL     1       6.380  34.672  31.796  1.00  0.00     0.209 HD
ENDBRANCH  36  37
ENDBRANCH  33  36
ENDBRANCH  27  33
ENDBRANCH  24  25
ENDBRANCH  23  24
ENDBRANCH  22  23
ENDBRANCH  21  22
ENDBRANCH  19  21
ENDBRANCH  13  19
ENDBRANCH   4   8
BRANCH   1  39
HETATM   39  C11 UNL     1       9.298  29.823  16.944  1.00  0.00     0.296 C 
HETATM   40  N6  UNL     1       9.497  28.756  16.024  1.00  0.00    -0.327 N 
ATOM     41  H6  UNL     1       9.373  27.804  16.368  1.00  0.00     0.165 HD
HETATM   42  O3  UNL     1       9.429  31.034  16.634  1.00  0.00    -0.264 OA
BRANCH  40  43
HETATM   43  C10 UNL     1       9.862  28.928  14.637  1.00  0.00     0.231 C 
HETATM   44  C9  UNL     1       8.605  28.984  13.808  1.00  0.00     0.088 C 
HETATM   45  C7  UNL     1       8.120  27.560  13.662  1.00  0.00     0.154 C 
HETATM   46  O1  UNL     1       8.979  26.923  12.747  1.00  0.00    -0.336 OA
HETATM   47  C6  UNL     1      10.272  27.382  12.952  1.00  0.00     0.382 C 
HETATM   48  O7  UNL     1      10.499  27.704  14.291  1.00  0.00    -0.319 OA
BRANCH  45  49
HETATM   49  C8  UNL     1       6.703  27.428  13.209  1.00  0.00     0.196 C 
BRANCH  49  50
HETATM   50  O2  UNL     1       6.638  27.877  11.873  1.00  0.00    -0.398 OA
ATOM     51  H2  UNL     1       5.845  28.391  11.780  1.00  0.00     0.209 HD
ENDBRANCH  49  50
ENDBRANCH  45  49
BRANCH  47  52
HETATM   52  N5  UNL     1      11.192  26.282  12.662  1.00  0.00    -0.277 N 
HETATM   53  C2  UNL     1      12.297  26.247  11.932  1.00  0.00     0.156 A 
HETATM   54  N2  UNL     1      12.913  27.217  11.243  1.00  0.00    -0.174 N 
HETATM   55  C3  UNL     1      12.850  24.985  11.915  1.00  0.00     0.094 A 
HETATM   56  C1  UNL     1      14.039  26.960  10.558  1.00  0.00     0.677 A 
ATOM     57  H2  UNL     1      12.523  28.160  11.240  1.00  0.00     0.186 HD
HETATM   58  N1  UNL     1      14.601  27.940   9.907  1.00  0.00    -0.234 N 
HETATM   59  N3  UNL     1      14.608  25.734  10.520  1.00  0.00    -0.200 N 
ATOM     60  H12 UNL     1      14.172  28.865   9.937  1.00  0.00     0.174 HD
ATOM     61  H11 UNL     1      15.457  27.744   9.388  1.00  0.00     0.174 HD
HETATM   62  C4  UNL     1      14.009  24.753  11.201  1.00  0.00     0.139 A 
ATOM     63  H3  UNL     1      15.463  25.564   9.991  1.00  0.00     0.183 HD
HETATM   64  N4  UNL     1      12.035  24.227  12.676  1.00  0.00    -0.348 N 
HETATM   65  C5  UNL     1      11.030  25.021  13.128  1.00  0.00     0.190 A 
ATOM     66  H4  UNL     1      12.152  23.233  12.876  1.00  0.00     0.167 HD
ENDBRANCH  47  52
ENDBRANCH  40  43
ENDBRANCH   1  39
TORSDOF 17
ENDMDL
MODEL 4
REMARK VINA RESULT: -10.015128052      4.063     15.022
REMARK  17 active torsions:
REMARK  status: ('A' for Active; 'I' for Inactive)
REMARK    1  A    between atoms: N5_15  and  C6_16 
REMARK    2  A    between atoms: C7_18  and  C8_19 
REMARK    3  A    between atoms: C8_19  and  O2_20 
REMARK    4  A    between atoms: C10_23  and  N6_24 
REMARK       I    between atoms: N6_24  and  C11_26 
REMARK    5  A    between atoms: C11_26  and  C12_28 
REMARK    6  A    between atoms: C13_31  and  C14_32 
REMARK    7  A    between atoms: C15_35  and  N9_36 
REMARK    8  A    between atoms: C16_41  and  N11_42 
REMARK    9  A    between atoms: N11_42  and  C17_44 
REMARK   10  A    between atoms: C17_44  and  C18_45 
REMARK   11  A    between atoms: C18_45  and  C19_46 
REMARK   12  A    between atoms: C19_46  and  S1_47 
REMARK   13  A    between atoms: S1_47  and  C20_48 
REMARK   14  A    between atoms: C21_51  and  C22_52 
REMARK   15  A    between atoms: C22_52  and  O4_53 
REMARK   16  A    between atoms: C22_52  and  C23_55 
REMARK   17  A    between atoms: C23_55  and  O5_56 
ROOT
HETATM    1  C12 UNL     1       9.068  29.337  18.303  1.00  0.00     0.240 A 
HETATM    2  N7  UNL     1       9.933  29.006  19.248  1.00  0.00    -0.313 N 
ATOM      3  H7  UNL     1      10.945  28.968  19.139  1.00  0.00     0.170 HD
HETATM    4  C13 UNL     1       9.262  28.733  20.363  1.00  0.00     0.163 A 
HETATM    5  N15 UNL     1       7.957  28.902  20.093  1.00  0.00    -0.240 N 
ATOM      6  H15 UNL     1       7.181  28.770  20.741  1.00  0.00     0.196 HD
HETATM    7  O6  UNL     1       7.874  29.263  18.847  1.00  0.00    -0.212 OA
ENDROOT
BRANCH   4   8
HETATM    8  C14 UNL     1       9.832  28.300  21.636  1.00  0.00     0.139 A 
HETATM    9  N8  UNL     1      10.395  27.102  21.839  1.00  0.00    -0.182 N 
HETATM   10  C15 UNL     1      10.951  26.668  22.976  1.00  0.00     0.678 A 
ATOM     11  H8  UNL     1      10.401  26.457  21.049  1.00  0.00     0.185 HD
HETATM   12  N10 UNL     1      11.047  27.351  24.122  1.00  0.00    -0.171 N 
HETATM   13  C16 UNL     1      10.616  28.584  24.357  1.00  0.00     0.161 A 
ATOM     14  H10 UNL     1      11.501  26.872  24.900  1.00  0.00     0.186 HD
HETATM   15  S2  UNL     1       9.858  29.322  22.995  1.00  0.00    -0.032 SA
BRANCH  10  16
HETATM   16  N9  UNL     1      11.433  25.440  22.910  1.00  0.00    -0.234 N 
ATOM     17  H92 UNL     1      12.412  25.298  22.661  1.00  0.00     0.174 HD
ATOM     18  H91 UNL     1      10.754  24.711  23.127  1.00  0.00     0.174 HD
ENDBRANCH  10  16
BRANCH  13  19
HETATM   19  N11 UNL     1      10.726  29.271  25.413  1.00  0.00    -0.370 N 
ATOM     20  H11 UNL     1      10.905  28.732  26.260  1.00  0.00     0.161 HD
BRANCH  19  21
HETATM   21  C17 UNL     1      10.640  30.678  25.603  1.00  0.00     0.122 C 
BRANCH  21  22
HETATM   22  C18 UNL     1      12.059  31.211  25.707  1.00  0.00     0.030 C 
BRANCH  22  23
HETATM   23  C19 UNL     1      12.111  32.616  26.202  1.00  0.00     0.084 C 
BRANCH  23  24
HETATM   24  S1  UNL     1      12.689  32.846  27.874  1.00  0.00    -0.092 SA
BRANCH  24  25
HETATM   25  C20 UNL     1      11.628  32.129  29.101  1.00  0.00     0.160 A 
HETATM   26  N12 UNL     1      10.347  32.369  29.387  1.00  0.00    -0.322 N 
HETATM   27  C21 UNL     1       9.968  31.579  30.381  1.00  0.00     0.129 A 
ATOM     28  H12 UNL     1       9.753  33.051  28.915  1.00  0.00     0.169 HD
HETATM   29  N13 UNL     1      11.021  30.820  30.740  1.00  0.00    -0.285 N 
HETATM   30  N14 UNL     1      12.037  31.163  29.950  1.00  0.00    -0.278 N 
ATOM     31  H13 UNL     1      11.038  30.116  31.477  1.00  0.00     0.188 HD
ATOM     32  H14 UNL     1      12.974  30.761  29.982  1.00  0.00     0.189 HD
BRANCH  27  33
HETATM   33  C22 UNL     1       8.640  31.490  31.023  1.00  0.00     0.210 C 
BRANCH  33  34
HETATM   34  O4  UNL     1       8.048  30.315  30.548  1.00  0.00    -0.386 OA
ATOM     35  H4  UNL     1       7.140  30.525  30.366  1.00  0.00     0.210 HD
ENDBRANCH  33  34
BRANCH  33  36
HETATM   36  C23 UNL     1       8.846  31.301  32.527  1.00  0.00     0.203 C 
BRANCH  36  37
HETATM   37  O5  UNL     1       9.838  32.173  32.970  1.00  0.00    -0.398 OA
ATOM     38  H5  UNL     1      10.592  31.672  33.256  1.00  0.00     0.209 HD
ENDBRANCH  36  37
ENDBRANCH  33  36
ENDBRANCH  27  33
ENDBRANCH  24  25
ENDBRANCH  23  24
ENDBRANCH  22  23
ENDBRANCH  21  22
ENDBRANCH  19  21
ENDBRANCH  13  19
ENDBRANCH   4   8
BRANCH   1  39
HETATM   39  C11 UNL     1       9.363  29.719  16.907  1.00  0.00     0.296 C 
HETATM   40  N6  UNL     1       9.574  28.675  15.965  1.00  0.00    -0.327 N 
ATOM     41  H6  UNL     1       9.513  27.713  16.300  1.00  0.00     0.165 HD
HETATM   42  O3  UNL     1       9.420  30.939  16.608  1.00  0.00    -0.264 OA
BRANCH  40  43
HETATM   43  C10 UNL     1       9.868  28.880  14.566  1.00  0.00     0.231 C 
HETATM   44  C9  UNL     1       8.577  28.847  13.789  1.00  0.00     0.088 C 
HETATM   45  C7  UNL     1       8.194  27.391  13.650  1.00  0.00     0.154 C 
HETATM   46  O1  UNL     1       9.059  26.825  12.696  1.00  0.00    -0.336 OA
HETATM   47  C6  UNL     1      10.322  27.378  12.853  1.00  0.00     0.382 C 
HETATM   48  O7  UNL     1      10.580  27.709  14.184  1.00  0.00    -0.319 OA
BRANCH  45  49
HETATM   49  C8  UNL     1       6.773  27.156  13.255  1.00  0.00     0.196 C 
BRANCH  49  50
HETATM   50  O2  UNL     1       6.577  27.753  11.991  1.00  0.00    -0.398 OA
ATOM     51  H2  UNL     1       6.605  28.695  12.111  1.00  0.00     0.209 HD
ENDBRANCH  49  50
ENDBRANCH  45  49
BRANCH  47  52
HETATM   52  N5  UNL     1      11.308  26.351  12.516  1.00  0.00    -0.277 N 
HETATM   53  C2  UNL     1      12.422  26.421  11.802  1.00  0.00     0.156 A 
HETATM   54  N2  UNL     1      12.988  27.463  11.177  1.00  0.00    -0.174 N 
HETATM   55  C3  UNL     1      13.048  25.197  11.724  1.00  0.00     0.094 A 
HETATM   56  C1  UNL     1      14.136  27.311  10.496  1.00  0.00     0.677 A 
ATOM     57  H2  UNL     1      12.544  28.380  11.220  1.00  0.00     0.186 HD
HETATM   58  N1  UNL     1      14.647  28.356   9.909  1.00  0.00    -0.234 N 
HETATM   59  N3  UNL     1      14.776  26.124  10.399  1.00  0.00    -0.200 N 
ATOM     60  H12 UNL     1      14.163  29.252   9.983  1.00  0.00     0.174 HD
ATOM     61  H11 UNL     1      15.519  28.240   9.392  1.00  0.00     0.174 HD
HETATM   62  C4  UNL     1      14.227  25.073  11.015  1.00  0.00     0.139 A 
ATOM     63  H3  UNL     1      15.645  26.034   9.874  1.00  0.00     0.183 HD
HETATM   64  N4  UNL     1      12.270  24.351  12.429  1.00  0.00    -0.348 N 
HETATM   65  C5  UNL     1      11.216  25.059  12.909  1.00  0.00     0.190 A 
ATOM     66  H4  UNL     1      12.443  23.356  12.575  1.00  0.00     0.167 HD
ENDBRANCH  47  52
ENDBRANCH  40  43
ENDBRANCH   1  39
TORSDOF 17
ENDMDL
MODEL 5
REMARK VINA RESULT: -9.992759402      1.573      2.165
REMARK  17 active torsions:
REMARK  status: ('A' for Active; 'I' for Inactive)
REMARK    1  A    between atoms: N5_15  and  C6_16 
REMARK    2  A    between atoms: C7_18  and  C8_19 
REMARK    3  A    between atoms: C8_19  and  O2_20 
REMARK    4  A    between atoms: C10_23  and  N6_24 
REMARK       I    between atoms: N6_24  and  C11_26 
REMARK    5  A    between atoms: C11_26  and  C12_28 
REMARK    6  A    between atoms: C13_31  and  C14_32 
REMARK    7  A    between atoms: C15_35  and  N9_36 
REMARK    8  A    between atoms: C16_41  and  N11_42 
REMARK    9  A    between atoms: N11_42  and  C17_44 
REMARK   10  A    between atoms: C17_44  and  C18_45 
REMARK   11  A    between atoms: C18_45  and  C19_46 
REMARK   12  A    between atoms: C19_46  and  S1_47 
REMARK   13  A    between atoms: S1_47  and  C20_48 
REMARK   14  A    between atoms: C21_51  and  C22_52 
REMARK   15  A    between atoms: C22_52  and  O4_53 
REMARK   16  A    between atoms: C22_52  and  C23_55 
REMARK   17  A    between atoms: C23_55  and  O5_56 
ROOT
HETATM    1  C12 UNL     1       9.515  29.609  19.876  1.00  0.00     0.240 A 
HETATM    2  N7  UNL     1       9.464  28.890  18.767  1.00  0.00    -0.313 N 
ATOM      3  H7  UNL     1       9.902  27.980  18.629  1.00  0.00     0.170 HD
HETATM    4  C13 UNL     1       8.746  29.551  17.863  1.00  0.00     0.163 A 
HETATM    5  N15 UNL     1       8.350  30.700  18.434  1.00  0.00    -0.240 N 
ATOM      6  H15 UNL     1       7.782  31.429  18.002  1.00  0.00     0.196 HD
HETATM    7  O6  UNL     1       8.829  30.705  19.643  1.00  0.00    -0.212 OA
ENDROOT
BRANCH   4   8
HETATM    8  C14 UNL     1       8.466  29.125  16.495  1.00  0.00     0.139 A 
HETATM    9  N8  UNL     1       7.245  28.820  16.036  1.00  0.00    -0.182 N 
HETATM   10  C15 UNL     1       6.935  28.451  14.789  1.00  0.00     0.678 A 
ATOM     11  H8  UNL     1       6.477  28.876  16.705  1.00  0.00     0.185 HD
HETATM   12  N10 UNL     1       7.788  28.315  13.767  1.00  0.00    -0.171 N 
HETATM   13  C16 UNL     1       9.099  28.522  13.787  1.00  0.00     0.161 A 
ATOM     14  H10 UNL     1       7.387  28.022  12.876  1.00  0.00     0.186 HD
HETATM   15  S2  UNL     1       9.698  29.011  15.328  1.00  0.00    -0.032 SA
BRANCH  10  16
HETATM   16  N9  UNL     1       5.652  28.202  14.600  1.00  0.00    -0.234 N 
ATOM     17  H92 UNL     1       5.046  28.054  15.407  1.00  0.00     0.174 HD
ATOM     18  H91 UNL     1       5.368  28.182  13.621  1.00  0.00     0.174 HD
ENDBRANCH  10  16
BRANCH  13  19
HETATM   19  N11 UNL     1       9.925  28.443  12.832  1.00  0.00    -0.370 N 
ATOM     20  H11 UNL     1       9.517  28.537  11.902  1.00  0.00     0.161 HD
BRANCH  19  21
HETATM   21  C17 UNL     1      11.332  28.244  12.853  1.00  0.00     0.122 C 
BRANCH  21  22
HETATM   22  C18 UNL     1      11.620  26.953  12.107  1.00  0.00     0.030 C 
BRANCH  22  23
HETATM   23  C19 UNL     1      13.040  26.518  12.237  1.00  0.00     0.084 C 
BRANCH  23  24
HETATM   24  S1  UNL     1      13.433  24.894  11.611  1.00  0.00    -0.092 SA
BRANCH  24  25
HETATM   25  C20 UNL     1      13.868  24.878   9.891  1.00  0.00     0.160 A 
HETATM   26  N12 UNL     1      14.658  25.691   9.189  1.00  0.00    -0.322 N 
HETATM   27  C21 UNL     1      14.696  25.281   7.930  1.00  0.00     0.129 A 
ATOM     28  H12 UNL     1      15.155  26.501   9.562  1.00  0.00     0.169 HD
HETATM   29  N13 UNL     1      13.918  24.187   7.821  1.00  0.00    -0.285 N 
HETATM   30  N14 UNL     1      13.412  23.946   9.029  1.00  0.00    -0.278 N 
ATOM     31  H13 UNL     1      13.748  23.646   6.973  1.00  0.00     0.188 HD
ATOM     32  H14 UNL     1      12.782  23.179   9.265  1.00  0.00     0.189 HD
BRANCH  27  33
HETATM   33  C22 UNL     1      15.444  25.868   6.799  1.00  0.00     0.210 C 
BRANCH  33  34
HETATM   34  O4  UNL     1      14.517  26.593   6.043  1.00  0.00    -0.386 OA
ATOM     35  H4  UNL     1      15.020  27.132   5.445  1.00  0.00     0.210 HD
ENDBRANCH  33  34
BRANCH  33  36
HETATM   36  C23 UNL     1      16.442  26.882   7.360  1.00  0.00     0.203 C 
BRANCH  36  37
HETATM   37  O5  UNL     1      15.832  28.131   7.446  1.00  0.00    -0.398 OA
ATOM     38  H5  UNL     1      16.429  28.745   7.856  1.00  0.00     0.209 HD
ENDBRANCH  36  37
ENDBRANCH  33  36
ENDBRANCH  27  33
ENDBRANCH  24  25
ENDBRANCH  23  24
ENDBRANCH  22  23
ENDBRANCH  21  22
ENDBRANCH  19  21
ENDBRANCH  13  19
ENDBRANCH   4   8
BRANCH   1  39
HETATM   39  C11 UNL     1      10.201  29.267  21.139  1.00  0.00     0.296 C 
HETATM   40  N6  UNL     1       9.407  29.149  22.313  1.00  0.00    -0.327 N 
ATOM     41  H6  UNL     1       8.404  29.308  22.225  1.00  0.00     0.165 HD
HETATM   42  O3  UNL     1      11.447  29.100  21.130  1.00  0.00    -0.264 OA
BRANCH  40  43
HETATM   43  C10 UNL     1       9.923  28.820  23.621  1.00  0.00     0.231 C 
HETATM   44  C9  UNL     1       8.787  28.327  24.481  1.00  0.00     0.088 C 
HETATM   45  C7  UNL     1       8.020  29.552  24.925  1.00  0.00     0.154 C 
HETATM   46  O1  UNL     1       8.799  30.193  25.906  1.00  0.00    -0.336 OA
HETATM   47  C6  UNL     1      10.137  30.089  25.556  1.00  0.00     0.382 C 
HETATM   48  O7  UNL     1      10.309  30.074  24.170  1.00  0.00    -0.319 OA
BRANCH  45  49
HETATM   49  C8  UNL     1       6.654  29.271  25.459  1.00  0.00     0.196 C 
BRANCH  49  50
HETATM   50  O2  UNL     1       5.731  29.519  24.421  1.00  0.00    -0.398 OA
ATOM     51  H2  UNL     1       5.367  28.683  24.155  1.00  0.00     0.209 HD
ENDBRANCH  49  50
ENDBRANCH  45  49
BRANCH  47  52
HETATM   52  N5  UNL     1      10.819  31.300  26.013  1.00  0.00    -0.277 N 
HETATM   53  C2  UNL     1      12.078  31.502  26.370  1.00  0.00     0.156 A 
HETATM   54  N2  UNL     1      13.116  30.654  26.410  1.00  0.00    -0.174 N 
HETATM   55  C3  UNL     1      12.290  32.809  26.752  1.00  0.00     0.094 A 
HETATM   56  C1  UNL     1      14.327  31.074  26.812  1.00  0.00     0.677 A 
ATOM     57  H2  UNL     1      12.985  29.682  26.132  1.00  0.00     0.186 HD
HETATM   58  N1  UNL     1      15.303  30.211  26.831  1.00  0.00    -0.234 N 
HETATM   59  N3  UNL     1      14.569  32.348  27.195  1.00  0.00    -0.200 N 
ATOM     60  H12 UNL     1      15.119  29.249  26.542  1.00  0.00     0.174 HD
ATOM     61  H11 UNL     1      16.222  30.530  27.136  1.00  0.00     0.174 HD
HETATM   62  C4  UNL     1      13.547  33.209  27.160  1.00  0.00     0.139 A 
ATOM     63  H3  UNL     1      15.497  32.641  27.498  1.00  0.00     0.183 HD
HETATM   64  N4  UNL     1      11.096  33.420  26.615  1.00  0.00    -0.348 N 
HETATM   65  C5  UNL     1      10.207  32.498  26.164  1.00  0.00     0.190 A 
ATOM     66  H4  UNL     1      10.897  34.400  26.815  1.00  0.00     0.167 HD
ENDBRANCH  47  52
ENDBRANCH  40  43
ENDBRANCH   1  39
TORSDOF 17
ENDMDL
