MODEL 1
REMARK VINA RESULT: -8.317234774      0.000      0.000
REMARK  19 active torsions:
REMARK  status: ('A' for Active; 'I' for Inactive)
REMARK    1  A    between atoms: C3_4  and  O2_5 
REMARK    2  A    between atoms: O2_5  and  N1_6 
REMARK    3  A    between atoms: N1_6  and  C4_7 
REMARK    4  A    between atoms: C4_7  and  C5_8 
REMARK    5  A    between atoms: C5_8  and  C6_9 
REMARK    6  A    between atoms: C7_11  and  O4_12 
REMARK    7  A    between atoms: C8_14  and  C9_15 
REMARK    8  A    between atoms: C9_15  and  N2_16 
REMARK    9  A    between atoms: C9_15  and  O6_19 
REMARK   10  A    between atoms: O6_19  and  C10_20 
REMARK   11  A    between atoms: C11_21  and  O7_22 
REMARK   12  A    between atoms: C12_24  and  O8_25 
REMARK   13  A    between atoms: O8_25  and  S1_26 
REMARK   14  A    between atoms: C14_31  and  O12_32 
REMARK   15  A    between atoms: C18_39  and  O15_40 
REMARK   16  A    between atoms: C20_43  and  O16_44 
REMARK   17  A    between atoms: O16_44  and  C21_45 
REMARK   18  A    between atoms: C21_45  and  C22_47 
REMARK   19  A    between atoms: C23_50  and  O20_51 
ROOT
HETATM    1  N2  UNL     1       6.941  28.962  27.053  1.00  0.00    -0.256 NA
HETATM    2  O5  UNL     1       5.958  29.039  27.802  1.00  0.00    -0.216 OA
ATOM      3  H5  UNL     1       5.135  29.101  28.272  1.00  0.00     0.261 HD
ENDROOT
BRANCH   1   4
HETATM    4  C9  UNL     1       7.957  28.886  26.471  1.00  0.00     0.273 C 
BRANCH   4   5
HETATM    5  C8  UNL     1       9.171  29.672  26.795  1.00  0.00     0.143 A 
HETATM    6  C7  UNL     1      10.262  29.055  27.377  1.00  0.00     0.203 A 
HETATM    7  O3  UNL     1      11.321  29.772  27.651  1.00  0.00    -0.289 OA
HETATM    8  C6  UNL     1      11.391  31.076  27.393  1.00  0.00     0.094 A 
HETATM    9  C18 UNL     1      10.323  31.727  26.812  1.00  0.00     0.147 A 
HETATM   10  C17 UNL     1       9.169  31.006  26.500  1.00  0.00     0.228 A 
HETATM   11  O14 UNL     1       8.200  31.628  25.968  1.00  0.00    -0.284 OA
BRANCH   6  12
HETATM   12  O4  UNL     1      10.185  27.696  27.644  1.00  0.00    -0.340 OA
ATOM     13  H4  UNL     1      10.258  27.033  26.967  1.00  0.00     0.220 HD
ENDBRANCH   6  12
BRANCH   8  14
HETATM   14  C5  UNL     1      12.605  31.856  27.722  1.00  0.00     0.086 C 
BRANCH  14  15
HETATM   15  C4  UNL     1      12.461  32.665  28.992  1.00  0.00     0.149 C 
BRANCH  15  16
HETATM   16  N1  UNL     1      12.002  31.800  30.072  1.00  0.00    -0.098 NA
BRANCH  16  17
HETATM   17  O2  UNL     1      10.904  32.265  30.667  1.00  0.00    -0.254 OA
BRANCH  17  18
HETATM   18  C3  UNL     1      10.200  31.247  31.308  1.00  0.00     0.286 C 
HETATM   19  O1  UNL     1       9.751  31.710  32.496  1.00  0.00    -0.352 OA
HETATM   20  C2  UNL     1       8.570  32.352  32.567  1.00  0.00     0.152 C 
HETATM   21  C1  UNL     1       8.817  33.853  32.511  1.00  0.00     0.042 C 
HETATM   22  C23 UNL     1       7.528  32.013  31.575  1.00  0.00     0.176 C 
HETATM   23  C20 UNL     1       8.159  31.913  30.206  1.00  0.00     0.168 C 
HETATM   24  C19 UNL     1       9.158  30.755  30.350  1.00  0.00     0.098 C 
BRANCH  22  25
HETATM   25  O20 UNL     1       6.972  30.770  31.892  1.00  0.00    -0.390 OA
ATOM     26  H20 UNL     1       7.044  30.192  31.142  1.00  0.00     0.210 HD
ENDBRANCH  22  25
BRANCH  23  27
HETATM   27  O16 UNL     1       7.249  31.705  29.172  1.00  0.00    -0.304 OA
BRANCH  27  28
HETATM   28  C21 UNL     1       6.133  32.515  28.944  1.00  0.00     0.360 C 
HETATM   29  O17 UNL     1       6.339  33.705  28.596  1.00  0.00    -0.252 OA
BRANCH  28  30
HETATM   30  C22 UNL     1       4.775  32.022  29.095  1.00  0.00     0.277 C 
HETATM   31  O18 UNL     1       3.799  32.596  28.577  1.00  0.00    -0.640 OA
HETATM   32  O19 UNL     1       4.549  30.873  29.838  1.00  0.00    -0.640 OA
ENDBRANCH  28  30
ENDBRANCH  27  28
ENDBRANCH  23  27
ENDBRANCH  17  18
ENDBRANCH  16  17
ENDBRANCH  15  16
ENDBRANCH  14  15
ENDBRANCH   8  14
BRANCH   9  33
HETATM   33  O15 UNL     1      10.292  33.065  26.499  1.00  0.00    -0.355 OA
ATOM     34  H15 UNL     1      10.217  33.417  25.619  1.00  0.00     0.218 HD
ENDBRANCH   9  33
ENDBRANCH   4   5
BRANCH   4  35
HETATM   35  O6  UNL     1       8.052  27.978  25.372  1.00  0.00    -0.273 OA
BRANCH  35  36
HETATM   36  C10 UNL     1       8.841  28.291  24.274  1.00  0.00     0.165 C 
HETATM   37  C11 UNL     1       8.354  29.188  23.343  1.00  0.00     0.139 C 
HETATM   38  C12 UNL     1       9.052  29.946  22.399  1.00  0.00     0.130 C 
HETATM   39  C13 UNL     1      10.399  29.963  22.123  1.00  0.00     0.077 C 
HETATM   40  C14 UNL     1      11.350  29.000  22.488  1.00  0.00     0.072 C 
HETATM   41  C15 UNL     1      11.165  27.952  23.397  1.00  0.00     0.094 C 
HETATM   42  C16 UNL     1      10.073  27.673  24.193  1.00  0.00     0.211 C 
HETATM   43  O13 UNL     1      10.231  26.697  24.968  1.00  0.00    -0.285 OA
BRANCH  37  44
HETATM   44  O7  UNL     1       6.981  29.333  23.377  1.00  0.00    -0.355 OA
ATOM     45  H7  UNL     1       6.694  30.216  23.581  1.00  0.00     0.218 HD
ENDBRANCH  37  44
BRANCH  38  46
HETATM   46  O8  UNL     1       8.270  30.794  21.642  1.00  0.00    -0.211 OA
BRANCH  46  47
HETATM   47  S1  UNL     1       7.671  30.209  20.151  1.00  0.00     0.257 S 
HETATM   48  O9  UNL     1       7.893  31.177  19.045  1.00  0.00    -0.572 OA
HETATM   49  O10 UNL     1       6.221  29.893  20.344  1.00  0.00    -0.572 OA
HETATM   50  O11 UNL     1       8.456  28.733  19.846  1.00  0.00    -0.572 OA
ENDBRANCH  46  47
ENDBRANCH  38  46
BRANCH  40  51
HETATM   51  O12 UNL     1      12.601  29.075  21.902  1.00  0.00    -0.360 OA
ATOM     52  H12 UNL     1      12.859  28.373  21.316  1.00  0.00     0.217 HD
ENDBRANCH  40  51
ENDBRANCH  35  36
ENDBRANCH   4  35
ENDBRANCH   1   4
TORSDOF 19
ENDMDL
MODEL 2
REMARK VINA RESULT: -8.196144179      2.818      8.178
REMARK  19 active torsions:
REMARK  status: ('A' for Active; 'I' for Inactive)
REMARK    1  A    between atoms: C3_4  and  O2_5 
REMARK    2  A    between atoms: O2_5  and  N1_6 
REMARK    3  A    between atoms: N1_6  and  C4_7 
REMARK    4  A    between atoms: C4_7  and  C5_8 
REMARK    5  A    between atoms: C5_8  and  C6_9 
REMARK    6  A    between atoms: C7_11  and  O4_12 
REMARK    7  A    between atoms: C8_14  and  C9_15 
REMARK    8  A    between atoms: C9_15  and  N2_16 
REMARK    9  A    between atoms: C9_15  and  O6_19 
REMARK   10  A    between atoms: O6_19  and  C10_20 
REMARK   11  A    between atoms: C11_21  and  O7_22 
REMARK   12  A    between atoms: C12_24  and  O8_25 
REMARK   13  A    between atoms: O8_25  and  S1_26 
REMARK   14  A    between atoms: C14_31  and  O12_32 
REMARK   15  A    between atoms: C18_39  and  O15_40 
REMARK   16  A    between atoms: C20_43  and  O16_44 
REMARK   17  A    between atoms: O16_44  and  C21_45 
REMARK   18  A    between atoms: C21_45  and  C22_47 
REMARK   19  A    between atoms: C23_50  and  O20_51 
ROOT
HETATM    1  N2  UNL     1       9.567  32.034  32.356  1.00  0.00    -0.256 NA
HETATM    2  O5  UNL     1       9.833  32.651  33.396  1.00  0.00    -0.216 OA
ATOM      3  H5  UNL     1       9.932  33.186  34.174  1.00  0.00     0.261 HD
ENDROOT
BRANCH   1   4
HETATM    4  C9  UNL     1       9.446  31.374  31.394  1.00  0.00     0.273 C 
BRANCH   4   5
HETATM    5  C8  UNL     1       9.772  31.824  30.020  1.00  0.00     0.143 A 
HETATM    6  C7  UNL     1      11.087  31.853  29.593  1.00  0.00     0.203 A 
HETATM    7  O3  UNL     1      11.347  32.253  28.375  1.00  0.00    -0.289 OA
HETATM    8  C6  UNL     1      10.394  32.635  27.527  1.00  0.00     0.094 A 
HETATM    9  C18 UNL     1       9.071  32.618  27.915  1.00  0.00     0.147 A 
HETATM   10  C17 UNL     1       8.741  32.200  29.206  1.00  0.00     0.228 A 
HETATM   11  O14 UNL     1       7.518  32.194  29.539  1.00  0.00    -0.284 OA
BRANCH   6  12
HETATM   12  O4  UNL     1      12.076  31.455  30.481  1.00  0.00    -0.340 OA
ATOM     13  H4  UNL     1      12.553  30.638  30.387  1.00  0.00     0.220 HD
ENDBRANCH   6  12
BRANCH   8  14
HETATM   14  C5  UNL     1      10.728  33.086  26.158  1.00  0.00     0.086 C 
BRANCH  14  15
HETATM   15  C4  UNL     1      10.910  31.941  25.187  1.00  0.00     0.149 C 
BRANCH  15  16
HETATM   16  N1  UNL     1       9.628  31.285  24.959  1.00  0.00    -0.098 NA
BRANCH  16  17
HETATM   17  O2  UNL     1       9.485  30.866  23.703  1.00  0.00    -0.254 OA
BRANCH  17  18
HETATM   18  C3  UNL     1      10.388  29.849  23.397  1.00  0.00     0.286 C 
HETATM   19  O1  UNL     1       9.851  28.665  23.769  1.00  0.00    -0.352 OA
HETATM   20  C2  UNL     1       9.053  27.990  22.919  1.00  0.00     0.152 C 
HETATM   21  C1  UNL     1       7.600  28.313  23.243  1.00  0.00     0.042 C 
HETATM   22  C23 UNL     1       9.259  28.174  21.468  1.00  0.00     0.176 C 
HETATM   23  C20 UNL     1       9.464  29.643  21.178  1.00  0.00     0.168 C 
HETATM   24  C19 UNL     1      10.746  29.991  21.950  1.00  0.00     0.098 C 
BRANCH  22  25
HETATM   25  O20 UNL     1      10.410  27.486  21.071  1.00  0.00    -0.390 OA
ATOM     26  H20 UNL     1      11.169  28.043  21.198  1.00  0.00     0.210 HD
ENDBRANCH  22  25
BRANCH  23  27
HETATM   27  O16 UNL     1       9.559  29.949  19.822  1.00  0.00    -0.304 OA
BRANCH  27  28
HETATM   28  C21 UNL     1       8.457  30.067  18.972  1.00  0.00     0.360 C 
HETATM   29  O17 UNL     1       7.661  31.017  19.180  1.00  0.00    -0.252 OA
BRANCH  28  30
HETATM   30  C22 UNL     1       8.219  29.140  17.880  1.00  0.00     0.277 C 
HETATM   31  O18 UNL     1       7.683  28.029  18.056  1.00  0.00    -0.640 OA
HETATM   32  O19 UNL     1       8.597  29.493  16.593  1.00  0.00    -0.640 OA
ENDBRANCH  28  30
ENDBRANCH  27  28
ENDBRANCH  23  27
ENDBRANCH  17  18
ENDBRANCH  16  17
ENDBRANCH  15  16
ENDBRANCH  14  15
ENDBRANCH   8  14
BRANCH   9  33
HETATM   33  O15 UNL     1       8.013  32.985  27.119  1.00  0.00    -0.355 OA
ATOM     34  H15 UNL     1       7.964  32.848  26.180  1.00  0.00     0.218 HD
ENDBRANCH   9  33
ENDBRANCH   4   5
BRANCH   4  35
HETATM   35  O6  UNL     1       8.951  30.040  31.534  1.00  0.00    -0.273 OA
BRANCH  35  36
HETATM   36  C10 UNL     1       9.782  28.958  31.286  1.00  0.00     0.165 C 
HETATM   37  C11 UNL     1       9.823  28.434  30.008  1.00  0.00     0.139 C 
HETATM   38  C12 UNL     1      10.807  27.642  29.410  1.00  0.00     0.130 C 
HETATM   39  C13 UNL     1      11.968  27.142  29.953  1.00  0.00     0.077 C 
HETATM   40  C14 UNL     1      12.287  27.030  31.313  1.00  0.00     0.072 C 
HETATM   41  C15 UNL     1      11.593  27.611  32.380  1.00  0.00     0.094 C 
HETATM   42  C16 UNL     1      10.518  28.477  32.352  1.00  0.00     0.211 C 
HETATM   43  O13 UNL     1      10.153  28.891  33.480  1.00  0.00    -0.285 OA
BRANCH  37  44
HETATM   44  O7  UNL     1       8.722  28.759  29.239  1.00  0.00    -0.355 OA
ATOM     45  H7  UNL     1       8.225  28.004  28.945  1.00  0.00     0.218 HD
ENDBRANCH  37  44
BRANCH  38  46
HETATM   46  O8  UNL     1      10.572  27.321  28.090  1.00  0.00    -0.211 OA
BRANCH  46  47
HETATM   47  S1  UNL     1       9.844  25.810  27.753  1.00  0.00     0.257 S 
HETATM   48  O9  UNL     1      10.722  24.674  28.136  1.00  0.00    -0.572 OA
HETATM   49  O10 UNL     1       9.499  25.794  26.297  1.00  0.00    -0.572 OA
HETATM   50  O11 UNL     1       8.373  25.768  28.603  1.00  0.00    -0.572 OA
ENDBRANCH  46  47
ENDBRANCH  38  46
BRANCH  40  51
HETATM   51  O12 UNL     1      13.393  26.274  31.655  1.00  0.00    -0.360 OA
ATOM     52  H12 UNL     1      13.473  25.407  31.275  1.00  0.00     0.217 HD
ENDBRANCH  40  51
ENDBRANCH  35  36
ENDBRANCH   4  35
ENDBRANCH   1   4
TORSDOF 19
ENDMDL
MODEL 3
REMARK VINA RESULT: -8.137058983      7.085     10.773
REMARK  19 active torsions:
REMARK  status: ('A' for Active; 'I' for Inactive)
REMARK    1  A    between atoms: C3_4  and  O2_5 
REMARK    2  A    between atoms: O2_5  and  N1_6 
REMARK    3  A    between atoms: N1_6  and  C4_7 
REMARK    4  A    between atoms: C4_7  and  C5_8 
REMARK    5  A    between atoms: C5_8  and  C6_9 
REMARK    6  A    between atoms: C7_11  and  O4_12 
REMARK    7  A    between atoms: C8_14  and  C9_15 
REMARK    8  A    between atoms: C9_15  and  N2_16 
REMARK    9  A    between atoms: C9_15  and  O6_19 
REMARK   10  A    between atoms: O6_19  and  C10_20 
REMARK   11  A    between atoms: C11_21  and  O7_22 
REMARK   12  A    between atoms: C12_24  and  O8_25 
REMARK   13  A    between atoms: O8_25  and  S1_26 
REMARK   14  A    between atoms: C14_31  and  O12_32 
REMARK   15  A    between atoms: C18_39  and  O15_40 
REMARK   16  A    between atoms: C20_43  and  O16_44 
REMARK   17  A    between atoms: O16_44  and  C21_45 
REMARK   18  A    between atoms: C21_45  and  C22_47 
REMARK   19  A    between atoms: C23_50  and  O20_51 
ROOT
HETATM    1  N2  UNL     1       8.552  27.768  13.282  1.00  0.00    -0.256 NA
HETATM    2  O5  UNL     1       8.161  27.797  12.108  1.00  0.00    -0.216 OA
ATOM      3  H5  UNL     1       7.746  27.807  11.254  1.00  0.00     0.261 HD
ENDROOT
BRANCH   1   4
HETATM    4  C9  UNL     1       9.064  27.756  14.338  1.00  0.00     0.273 C 
BRANCH   4   5
HETATM    5  C8  UNL     1       8.361  28.022  15.615  1.00  0.00     0.143 A 
HETATM    6  C7  UNL     1       7.502  27.077  16.144  1.00  0.00     0.203 A 
HETATM    7  O3  UNL     1       6.896  27.337  17.274  1.00  0.00    -0.289 OA
HETATM    8  C6  UNL     1       7.072  28.478  17.936  1.00  0.00     0.094 A 
HETATM    9  C18 UNL     1       7.921  29.445  17.441  1.00  0.00     0.147 A 
HETATM   10  C17 UNL     1       8.592  29.216  16.238  1.00  0.00     0.228 A 
HETATM   11  O14 UNL     1       9.367  30.121  15.803  1.00  0.00    -0.284 OA
BRANCH   6  12
HETATM   12  O4  UNL     1       7.323  25.889  15.451  1.00  0.00    -0.340 OA
ATOM     13  H4  UNL     1       7.544  25.041  15.817  1.00  0.00     0.220 HD
ENDBRANCH   6  12
BRANCH   8  14
HETATM   14  C5  UNL     1       6.364  28.739  19.209  1.00  0.00     0.086 C 
BRANCH  14  15
HETATM   15  C4  UNL     1       7.304  28.956  20.374  1.00  0.00     0.149 C 
BRANCH  15  16
HETATM   16  N1  UNL     1       7.843  27.674  20.812  1.00  0.00    -0.098 NA
BRANCH  16  17
HETATM   17  O2  UNL     1       8.299  27.712  22.062  1.00  0.00    -0.254 OA
BRANCH  17  18
HETATM   18  C3  UNL     1       9.460  26.955  22.206  1.00  0.00     0.286 C 
HETATM   19  O1  UNL     1      10.400  27.435  21.360  1.00  0.00    -0.352 OA
HETATM   20  C2  UNL     1      11.203  28.444  21.746  1.00  0.00     0.152 C 
HETATM   21  C1  UNL     1      10.626  29.758  21.238  1.00  0.00     0.042 C 
HETATM   22  C23 UNL     1      11.501  28.591  23.186  1.00  0.00     0.176 C 
HETATM   23  C20 UNL     1      10.229  28.402  23.978  1.00  0.00     0.168 C 
HETATM   24  C19 UNL     1       9.815  26.957  23.662  1.00  0.00     0.098 C 
BRANCH  22  25
HETATM   25  O20 UNL     1      12.410  27.603  23.575  1.00  0.00    -0.390 OA
ATOM     26  H20 UNL     1      12.116  27.207  24.387  1.00  0.00     0.210 HD
ENDBRANCH  22  25
BRANCH  23  27
HETATM   27  O16 UNL     1      10.370  28.628  25.346  1.00  0.00    -0.304 OA
BRANCH  27  28
HETATM   28  C21 UNL     1      10.093  29.849  25.965  1.00  0.00     0.360 C 
HETATM   29  O17 UNL     1       9.359  29.832  26.985  1.00  0.00    -0.252 OA
BRANCH  28  30
HETATM   30  C22 UNL     1      10.624  31.107  25.467  1.00  0.00     0.277 C 
HETATM   31  O18 UNL     1       9.886  32.023  25.058  1.00  0.00    -0.640 OA
HETATM   32  O19 UNL     1      11.996  31.303  25.444  1.00  0.00    -0.640 OA
ENDBRANCH  28  30
ENDBRANCH  27  28
ENDBRANCH  23  27
ENDBRANCH  17  18
ENDBRANCH  16  17
ENDBRANCH  15  16
ENDBRANCH  14  15
ENDBRANCH   8  14
BRANCH   9  33
HETATM   33  O15 UNL     1       8.177  30.653  18.045  1.00  0.00    -0.355 OA
ATOM     34  H15 UNL     1       8.081  31.501  17.628  1.00  0.00     0.218 HD
ENDBRANCH   9  33
ENDBRANCH   4   5
BRANCH   4  35
HETATM   35  O6  UNL     1      10.461  27.465  14.420  1.00  0.00    -0.273 OA
BRANCH  35  36
HETATM   36  C10 UNL     1      11.051  26.607  13.503  1.00  0.00     0.165 C 
HETATM   37  C11 UNL     1      11.671  27.148  12.394  1.00  0.00     0.139 C 
HETATM   38  C12 UNL     1      12.635  26.579  11.556  1.00  0.00     0.130 C 
HETATM   39  C13 UNL     1      13.183  25.319  11.594  1.00  0.00     0.077 C 
HETATM   40  C14 UNL     1      12.680  24.197  12.267  1.00  0.00     0.072 C 
HETATM   41  C15 UNL     1      11.654  24.190  13.219  1.00  0.00     0.094 C 
HETATM   42  C16 UNL     1      10.972  25.255  13.772  1.00  0.00     0.211 C 
HETATM   43  O13 UNL     1      10.147  24.937  14.664  1.00  0.00    -0.285 OA
BRANCH  37  44
HETATM   44  O7  UNL     1      11.260  28.433  12.099  1.00  0.00    -0.355 OA
ATOM     45  H7  UNL     1      11.883  28.924  11.575  1.00  0.00     0.218 HD
ENDBRANCH  37  44
BRANCH  38  46
HETATM   46  O8  UNL     1      13.096  27.408  10.554  1.00  0.00    -0.211 OA
BRANCH  46  47
HETATM   47  S1  UNL     1      14.252  28.598  10.971  1.00  0.00     0.257 S 
HETATM   48  O9  UNL     1      13.661  29.962  10.991  1.00  0.00    -0.572 OA
HETATM   49  O10 UNL     1      15.382  28.484   9.998  1.00  0.00    -0.572 OA
HETATM   50  O11 UNL     1      14.874  28.173  12.494  1.00  0.00    -0.572 OA
ENDBRANCH  46  47
ENDBRANCH  38  46
BRANCH  40  51
HETATM   51  O12 UNL     1      13.240  22.966  11.977  1.00  0.00    -0.360 OA
ATOM     52  H12 UNL     1      14.030  22.717  12.441  1.00  0.00     0.217 HD
ENDBRANCH  40  51
ENDBRANCH  35  36
ENDBRANCH   4  35
ENDBRANCH   1   4
TORSDOF 19
ENDMDL
MODEL 4
REMARK VINA RESULT: -8.114730372      2.465      4.625
REMARK  19 active torsions:
REMARK  status: ('A' for Active; 'I' for Inactive)
REMARK    1  A    between atoms: C3_4  and  O2_5 
REMARK    2  A    between atoms: O2_5  and  N1_6 
REMARK    3  A    between atoms: N1_6  and  C4_7 
REMARK    4  A    between atoms: C4_7  and  C5_8 
REMARK    5  A    between atoms: C5_8  and  C6_9 
REMARK    6  A    between atoms: C7_11  and  O4_12 
REMARK    7  A    between atoms: C8_14  and  C9_15 
REMARK    8  A    between atoms: C9_15  and  N2_16 
REMARK    9  A    between atoms: C9_15  and  O6_19 
REMARK   10  A    between atoms: O6_19  and  C10_20 
REMARK   11  A    between atoms: C11_21  and  O7_22 
REMARK   12  A    between atoms: C12_24  and  O8_25 
REMARK   13  A    between atoms: O8_25  and  S1_26 
REMARK   14  A    between atoms: C14_31  and  O12_32 
REMARK   15  A    between atoms: C18_39  and  O15_40 
REMARK   16  A    between atoms: C20_43  and  O16_44 
REMARK   17  A    between atoms: O16_44  and  C21_45 
REMARK   18  A    between atoms: C21_45  and  C22_47 
REMARK   19  A    between atoms: C23_50  and  O20_51 
ROOT
HETATM    1  N2  UNL     1       5.670  26.751  23.709  1.00  0.00    -0.256 NA
HETATM    2  O5  UNL     1       4.504  26.525  23.361  1.00  0.00    -0.216 OA
ATOM      3  H5  UNL     1       3.658  26.276  23.008  1.00  0.00     0.261 HD
ENDROOT
BRANCH   1   4
HETATM    4  C9  UNL     1       6.715  27.060  24.143  1.00  0.00     0.273 C 
BRANCH   4   5
HETATM    5  C8  UNL     1       6.919  28.089  25.190  1.00  0.00     0.143 A 
HETATM    6  C7  UNL     1       6.916  29.430  24.855  1.00  0.00     0.203 A 
HETATM    7  O3  UNL     1       7.097  30.317  25.798  1.00  0.00    -0.289 OA
HETATM    8  C6  UNL     1       7.283  29.981  27.073  1.00  0.00     0.094 A 
HETATM    9  C18 UNL     1       7.291  28.654  27.448  1.00  0.00     0.147 A 
HETATM   10  C17 UNL     1       7.103  27.667  26.477  1.00  0.00     0.228 A 
HETATM   11  O14 UNL     1       7.116  26.455  26.847  1.00  0.00    -0.284 OA
BRANCH   6  12
HETATM   12  O4  UNL     1       6.721  29.775  23.525  1.00  0.00    -0.340 OA
ATOM     13  H4  UNL     1       7.394  30.189  22.997  1.00  0.00     0.220 HD
ENDBRANCH   6  12
BRANCH   8  14
HETATM   14  C5  UNL     1       7.489  31.014  28.112  1.00  0.00     0.086 C 
BRANCH  14  15
HETATM   15  C4  UNL     1       7.187  32.413  27.623  1.00  0.00     0.149 C 
BRANCH  15  16
HETATM   16  N1  UNL     1       8.250  32.859  26.730  1.00  0.00    -0.098 NA
BRANCH  16  17
HETATM   17  O2  UNL     1       9.462  32.687  27.254  1.00  0.00    -0.254 OA
BRANCH  17  18
HETATM   18  C3  UNL     1      10.429  32.529  26.263  1.00  0.00     0.286 C 
HETATM   19  O1  UNL     1      11.585  33.084  26.691  1.00  0.00    -0.352 OA
HETATM   20  C2  UNL     1      12.451  32.359  27.424  1.00  0.00     0.152 C 
HETATM   21  C1  UNL     1      12.213  32.649  28.900  1.00  0.00     0.042 C 
HETATM   22  C23 UNL     1      12.475  30.894  27.234  1.00  0.00     0.176 C 
HETATM   23  C20 UNL     1      11.056  30.379  27.163  1.00  0.00     0.168 C 
HETATM   24  C19 UNL     1      10.480  31.072  25.918  1.00  0.00     0.098 C 
BRANCH  22  25
HETATM   25  O20 UNL     1      13.111  30.593  26.026  1.00  0.00    -0.390 OA
ATOM     26  H20 UNL     1      12.476  30.625  25.320  1.00  0.00     0.210 HD
ENDBRANCH  22  25
BRANCH  23  27
HETATM   27  O16 UNL     1      10.956  28.992  27.094  1.00  0.00    -0.304 OA
BRANCH  27  28
HETATM   28  C21 UNL     1      10.717  28.173  28.201  1.00  0.00     0.360 C 
HETATM   29  O17 UNL     1      10.328  26.998  27.983  1.00  0.00    -0.252 OA
BRANCH  28  30
HETATM   30  C22 UNL     1      10.904  28.640  29.563  1.00  0.00     0.277 C 
HETATM   31  O18 UNL     1      12.013  28.614  30.128  1.00  0.00    -0.640 OA
HETATM   32  O19 UNL     1       9.816  29.134  30.267  1.00  0.00    -0.640 OA
ENDBRANCH  28  30
ENDBRANCH  27  28
ENDBRANCH  23  27
ENDBRANCH  17  18
ENDBRANCH  16  17
ENDBRANCH  15  16
ENDBRANCH  14  15
ENDBRANCH   8  14
BRANCH   9  33
HETATM   33  O15 UNL     1       7.470  28.200  28.732  1.00  0.00    -0.355 OA
ATOM     34  H15 UNL     1       7.174  27.357  29.057  1.00  0.00     0.218 HD
ENDBRANCH   9  33
ENDBRANCH   4   5
BRANCH   4  35
HETATM   35  O6  UNL     1       7.886  26.409  23.643  1.00  0.00    -0.273 OA
BRANCH  35  36
HETATM   36  C10 UNL     1       8.920  27.157  23.099  1.00  0.00     0.165 C 
HETATM   37  C11 UNL     1       8.740  27.729  21.854  1.00  0.00     0.139 C 
HETATM   38  C12 UNL     1       9.422  28.798  21.267  1.00  0.00     0.130 C 
HETATM   39  C13 UNL     1      10.478  29.529  21.759  1.00  0.00     0.077 C 
HETATM   40  C14 UNL     1      11.333  29.178  22.812  1.00  0.00     0.072 C 
HETATM   41  C15 UNL     1      11.146  28.130  23.721  1.00  0.00     0.094 C 
HETATM   42  C16 UNL     1      10.072  27.274  23.853  1.00  0.00     0.211 C 
HETATM   43  O13 UNL     1      10.160  26.473  24.817  1.00  0.00    -0.285 OA
BRANCH  37  44
HETATM   44  O7  UNL     1       7.736  27.139  21.112  1.00  0.00    -0.355 OA
ATOM     45  H7  UNL     1       6.865  27.288  21.459  1.00  0.00     0.218 HD
ENDBRANCH  37  44
BRANCH  38  46
HETATM   46  O8  UNL     1       8.964  29.165  20.019  1.00  0.00    -0.211 OA
BRANCH  46  47
HETATM   47  S1  UNL     1       7.732  30.350  19.938  1.00  0.00     0.257 S 
HETATM   48  O9  UNL     1       7.821  31.158  18.694  1.00  0.00    -0.572 OA
HETATM   49  O10 UNL     1       7.839  31.192  21.170  1.00  0.00    -0.572 OA
HETATM   50  O11 UNL     1       6.247  29.529  20.035  1.00  0.00    -0.572 OA
ENDBRANCH  46  47
ENDBRANCH  38  46
BRANCH  40  51
HETATM   51  O12 UNL     1      12.482  29.928  22.988  1.00  0.00    -0.360 OA
ATOM     52  H12 UNL     1      13.177  29.832  22.347  1.00  0.00     0.217 HD
ENDBRANCH  40  51
ENDBRANCH  35  36
ENDBRANCH   4  35
ENDBRANCH   1   4
TORSDOF 19
ENDMDL
MODEL 5
REMARK VINA RESULT: -8.105246822      2.858      8.095
REMARK  19 active torsions:
REMARK  status: ('A' for Active; 'I' for Inactive)
REMARK    1  A    between atoms: C3_4  and  O2_5 
REMARK    2  A    between atoms: O2_5  and  N1_6 
REMARK    3  A    between atoms: N1_6  and  C4_7 
REMARK    4  A    between atoms: C4_7  and  C5_8 
REMARK    5  A    between atoms: C5_8  and  C6_9 
REMARK    6  A    between atoms: C7_11  and  O4_12 
REMARK    7  A    between atoms: C8_14  and  C9_15 
REMARK    8  A    between atoms: C9_15  and  N2_16 
REMARK    9  A    between atoms: C9_15  and  O6_19 
REMARK   10  A    between atoms: O6_19  and  C10_20 
REMARK   11  A    between atoms: C11_21  and  O7_22 
REMARK   12  A    between atoms: C12_24  and  O8_25 
REMARK   13  A    between atoms: O8_25  and  S1_26 
REMARK   14  A    between atoms: C14_31  and  O12_32 
REMARK   15  A    between atoms: C18_39  and  O15_40 
REMARK   16  A    between atoms: C20_43  and  O16_44 
REMARK   17  A    between atoms: O16_44  and  C21_45 
REMARK   18  A    between atoms: C21_45  and  C22_47 
REMARK   19  A    between atoms: C23_50  and  O20_51 
ROOT
HETATM    1  N2  UNL     1       9.719  31.975  32.291  1.00  0.00    -0.256 NA
HETATM    2  O5  UNL     1       9.806  32.767  33.239  1.00  0.00    -0.216 OA
ATOM      3  H5  UNL     1       9.959  33.298  34.012  1.00  0.00     0.261 HD
ENDROOT
BRANCH   1   4
HETATM    4  C9  UNL     1       9.531  31.320  31.337  1.00  0.00     0.273 C 
BRANCH   4   5
HETATM    5  C8  UNL     1       9.800  31.762  29.948  1.00  0.00     0.143 A 
HETATM    6  C7  UNL     1      11.097  31.812  29.475  1.00  0.00     0.203 A 
HETATM    7  O3  UNL     1      11.306  32.204  28.245  1.00  0.00    -0.289 OA
HETATM    8  C6  UNL     1      10.317  32.559  27.428  1.00  0.00     0.094 A 
HETATM    9  C18 UNL     1       9.009  32.522  27.862  1.00  0.00     0.147 A 
HETATM   10  C17 UNL     1       8.733  32.110  29.168  1.00  0.00     0.228 A 
HETATM   11  O14 UNL     1       7.523  32.085  29.544  1.00  0.00    -0.284 OA
BRANCH   6  12
HETATM   12  O4  UNL     1      12.125  31.441  30.331  1.00  0.00    -0.340 OA
ATOM     13  H4  UNL     1      12.423  30.543  30.417  1.00  0.00     0.220 HD
ENDBRANCH   6  12
BRANCH   8  14
HETATM   14  C5  UNL     1      10.593  33.003  26.043  1.00  0.00     0.086 C 
BRANCH  14  15
HETATM   15  C4  UNL     1      10.807  31.852  25.086  1.00  0.00     0.149 C 
BRANCH  15  16
HETATM   16  N1  UNL     1       9.524  31.236  24.768  1.00  0.00    -0.098 NA
BRANCH  16  17
HETATM   17  O2  UNL     1       9.595  30.422  23.717  1.00  0.00    -0.254 OA
BRANCH  17  18
HETATM   18  C3  UNL     1       8.575  29.472  23.735  1.00  0.00     0.286 C 
HETATM   19  O1  UNL     1       7.583  29.882  22.914  1.00  0.00    -0.352 OA
HETATM   20  C2  UNL     1       7.623  29.577  21.603  1.00  0.00     0.152 C 
HETATM   21  C1  UNL     1       8.220  30.751  20.838  1.00  0.00     0.042 C 
HETATM   22  C23 UNL     1       8.329  28.345  21.191  1.00  0.00     0.176 C 
HETATM   23  C20 UNL     1       9.634  28.245  21.947  1.00  0.00     0.168 C 
HETATM   24  C19 UNL     1       9.196  28.147  23.417  1.00  0.00     0.098 C 
BRANCH  22  25
HETATM   25  O20 UNL     1       7.549  27.232  21.517  1.00  0.00    -0.390 OA
ATOM     26  H20 UNL     1       7.245  27.312  22.414  1.00  0.00     0.210 HD
ENDBRANCH  22  25
BRANCH  23  27
HETATM   27  O16 UNL     1      10.437  27.175  21.559  1.00  0.00    -0.304 OA
BRANCH  27  28
HETATM   28  C21 UNL     1      10.894  26.187  22.434  1.00  0.00     0.360 C 
HETATM   29  O17 UNL     1      12.024  26.351  22.959  1.00  0.00    -0.252 OA
BRANCH  28  30
HETATM   30  C22 UNL     1      10.109  25.004  22.742  1.00  0.00     0.277 C 
HETATM   31  O18 UNL     1       9.023  24.763  22.183  1.00  0.00    -0.640 OA
HETATM   32  O19 UNL     1      10.578  24.106  23.689  1.00  0.00    -0.640 OA
ENDBRANCH  28  30
ENDBRANCH  27  28
ENDBRANCH  23  27
ENDBRANCH  17  18
ENDBRANCH  16  17
ENDBRANCH  15  16
ENDBRANCH  14  15
ENDBRANCH   8  14
BRANCH   9  33
HETATM   33  O15 UNL     1       7.916  32.861  27.101  1.00  0.00    -0.355 OA
ATOM     34  H15 UNL     1       7.410  33.658  27.201  1.00  0.00     0.218 HD
ENDBRANCH   9  33
ENDBRANCH   4   5
BRANCH   4  35
HETATM   35  O6  UNL     1       9.007  30.000  31.503  1.00  0.00    -0.273 OA
BRANCH  35  36
HETATM   36  C10 UNL     1       9.820  28.895  31.299  1.00  0.00     0.165 C 
HETATM   37  C11 UNL     1       9.869  28.334  30.037  1.00  0.00     0.139 C 
HETATM   38  C12 UNL     1      10.846  27.506  29.477  1.00  0.00     0.130 C 
HETATM   39  C13 UNL     1      11.989  27.001  30.051  1.00  0.00     0.077 C 
HETATM   40  C14 UNL     1      12.287  26.923  31.418  1.00  0.00     0.072 C 
HETATM   41  C15 UNL     1      11.589  27.548  32.458  1.00  0.00     0.094 C 
HETATM   42  C16 UNL     1      10.531  28.432  32.388  1.00  0.00     0.211 C 
HETATM   43  O13 UNL     1      10.159  28.885  33.499  1.00  0.00    -0.285 OA
BRANCH  37  44
HETATM   44  O7  UNL     1       8.786  28.656  29.243  1.00  0.00    -0.355 OA
ATOM     45  H7  UNL     1       8.498  27.946  28.682  1.00  0.00     0.218 HD
ENDBRANCH  37  44
BRANCH  38  46
HETATM   46  O8  UNL     1      10.624  27.151  28.163  1.00  0.00    -0.211 OA
BRANCH  46  47
HETATM   47  S1  UNL     1       9.928  25.619  27.857  1.00  0.00     0.257 S 
HETATM   48  O9  UNL     1      10.874  24.511  28.154  1.00  0.00    -0.572 OA
HETATM   49  O10 UNL     1       9.474  25.610  26.432  1.00  0.00    -0.572 OA
HETATM   50  O11 UNL     1       8.529  25.509  28.815  1.00  0.00    -0.572 OA
ENDBRANCH  46  47
ENDBRANCH  38  46
BRANCH  40  51
HETATM   51  O12 UNL     1      13.374  26.156  31.799  1.00  0.00    -0.360 OA
ATOM     52  H12 UNL     1      13.929  26.488  32.494  1.00  0.00     0.217 HD
ENDBRANCH  40  51
ENDBRANCH  35  36
ENDBRANCH   4  35
ENDBRANCH   1   4
TORSDOF 19
ENDMDL
