MODEL 1
REMARK VINA RESULT: -7.586100994      0.000      0.000
REMARK  12 active torsions:
REMARK  status: ('A' for Active; 'I' for Inactive)
REMARK    1  A    between atoms: C2_2  and  C4_16 
REMARK    2  A    between atoms: N1_3  and  N2_5 
REMARK       I    between atoms: N2_5  and  C3_7 
REMARK       I    between atoms: C3_7  and  N4_11 
REMARK    3  A    between atoms: N4_11  and  N5_13 
REMARK    4  A    between atoms: C4_16  and  N6_17 
REMARK    5  A    between atoms: C4_16  and  O4_28 
REMARK    6  A    between atoms: N6_17  and  N7_19 
REMARK    7  A    between atoms: N7_19  and  O3_20 
REMARK    8  A    between atoms: N7_19  and  C5_22 
REMARK    9  A    between atoms: O4_28  and  C8_29 
REMARK   10  A    between atoms: C8_29  and  C9_31 
REMARK   11  A    between atoms: C9_31  and  N10_35 
REMARK   12  A    between atoms: N10_35  and  N11_37 
ROOT
HETATM    1  C4  UNL     1     -13.240  39.389  36.487  1.00  0.00     0.296 C 
ENDROOT
BRANCH   1   2
HETATM    2  C2  UNL     1     -12.322  40.190  35.645  1.00  0.00     0.050 C 
HETATM    3  C1  UNL     1     -12.721  40.494  34.246  1.00  0.00     0.070 C 
HETATM    4  N1  UNL     1     -11.211  40.605  36.120  1.00  0.00    -0.291 N 
ATOM      5  H1  UNL     1     -10.969  40.376  37.084  1.00  0.00     0.187 HD
BRANCH   4   6
HETATM    6  N2  UNL     1     -10.319  41.361  35.361  1.00  0.00    -0.131 N 
HETATM    7  C3  UNL     1      -9.003  40.861  35.182  1.00  0.00     0.709 C 
HETATM    8  N3  UNL     1      -8.676  39.670  35.520  1.00  0.00    -0.232 N 
HETATM    9  N4  UNL     1      -8.029  41.714  34.610  1.00  0.00    -0.071 N 
ATOM     10  H32 UNL     1      -9.378  39.055  35.932  1.00  0.00     0.174 HD
ATOM     11  H31 UNL     1      -7.731  39.310  35.391  1.00  0.00     0.174 HD
ATOM     12  H4  UNL     1      -7.418  42.255  35.222  1.00  0.00     0.212 HD
ATOM     13  H2  UNL     1     -10.604  42.249  34.947  1.00  0.00     0.205 HD
BRANCH   9  14
HETATM   14  N5  UNL     1      -7.888  41.829  33.236  1.00  0.00    -0.024 N 
HETATM   15  O1  UNL     1      -8.836  41.603  32.432  1.00  0.00    -0.516 OA
HETATM   16  O2  UNL     1      -6.692  42.203  32.635  1.00  0.00    -0.516 OA
ENDBRANCH   9  14
ENDBRANCH   4   6
ENDBRANCH   1   2
BRANCH   1  17
HETATM   17  N6  UNL     1     -12.496  38.797  37.563  1.00  0.00    -0.274 N 
ATOM     18  H6  UNL     1     -11.485  38.924  37.590  1.00  0.00     0.186 HD
BRANCH  17  19
HETATM   19  N7  UNL     1     -13.113  38.045  38.584  1.00  0.00    -0.141 N 
BRANCH  19  20
HETATM   20  O3  UNL     1     -13.881  38.651  39.346  1.00  0.00    -0.266 OA
ATOM     21  H3  UNL     1     -14.803  38.427  39.300  1.00  0.00     0.247 HD
ENDBRANCH  19  20
BRANCH  19  22
HETATM   22  C5  UNL     1     -12.821  36.660  38.673  1.00  0.00     0.185 C 
HETATM   23  N8  UNL     1     -13.219  35.837  39.545  1.00  0.00    -0.367 N 
HETATM   24  C6  UNL     1     -12.829  34.483  39.480  1.00  0.00     0.132 C 
ATOM     25  H8  UNL     1     -13.827  36.154  40.300  1.00  0.00     0.161 HD
HETATM   26  C7  UNL     1     -11.502  34.334  38.763  1.00  0.00     0.102 C 
HETATM   27  S1  UNL     1     -11.777  35.710  37.558  1.00  0.00    -0.089 SA
ENDBRANCH  19  22
ENDBRANCH  17  19
ENDBRANCH   1  17
BRANCH   1  28
HETATM   28  O4  UNL     1     -14.319  40.177  36.949  1.00  0.00    -0.282 OA
BRANCH  28  29
HETATM   29  C8  UNL     1     -14.073  41.396  37.553  1.00  0.00     0.330 C 
HETATM   30  O5  UNL     1     -13.184  41.492  38.432  1.00  0.00    -0.256 OA
BRANCH  29  31
HETATM   31  C9  UNL     1     -14.852  42.566  37.162  1.00  0.00     0.190 C 
HETATM   32  N9  UNL     1     -16.137  42.558  37.165  1.00  0.00    -0.379 N 
ATOM     33  H92 UNL     1     -16.611  41.702  37.453  1.00  0.00     0.158 HD
ATOM     34  H91 UNL     1     -16.682  43.376  36.891  1.00  0.00     0.158 HD
BRANCH  31  35
HETATM   35  N10 UNL     1     -14.189  43.764  36.759  1.00  0.00    -0.287 N 
ATOM     36  H10 UNL     1     -14.667  44.664  36.798  1.00  0.00     0.188 HD
BRANCH  35  37
HETATM   37  N11 UNL     1     -12.872  43.677  36.310  1.00  0.00    -0.343 N 
ATOM     38 2H11 UNL     1     -12.640  43.052  35.538  1.00  0.00     0.176 HD
ATOM     39 1H11 UNL     1     -12.161  44.246  36.770  1.00  0.00     0.176 HD
ENDBRANCH  35  37
ENDBRANCH  31  35
ENDBRANCH  29  31
ENDBRANCH  28  29
ENDBRANCH   1  28
TORSDOF 12
ENDMDL
MODEL 2
REMARK VINA RESULT: -6.965866655      1.266      1.479
REMARK  12 active torsions:
REMARK  status: ('A' for Active; 'I' for Inactive)
REMARK    1  A    between atoms: C2_2  and  C4_16 
REMARK    2  A    between atoms: N1_3  and  N2_5 
REMARK       I    between atoms: N2_5  and  C3_7 
REMARK       I    between atoms: C3_7  and  N4_11 
REMARK    3  A    between atoms: N4_11  and  N5_13 
REMARK    4  A    between atoms: C4_16  and  N6_17 
REMARK    5  A    between atoms: C4_16  and  O4_28 
REMARK    6  A    between atoms: N6_17  and  N7_19 
REMARK    7  A    between atoms: N7_19  and  O3_20 
REMARK    8  A    between atoms: N7_19  and  C5_22 
REMARK    9  A    between atoms: O4_28  and  C8_29 
REMARK   10  A    between atoms: C8_29  and  C9_31 
REMARK   11  A    between atoms: C9_31  and  N10_35 
REMARK   12  A    between atoms: N10_35  and  N11_37 
ROOT
HETATM    1  C4  UNL     1     -13.293  39.670  36.751  1.00  0.00     0.296 C 
ENDROOT
BRANCH   1   2
HETATM    2  C2  UNL     1     -12.337  40.380  35.870  1.00  0.00     0.050 C 
HETATM    3  C1  UNL     1     -12.675  40.538  34.432  1.00  0.00     0.070 C 
HETATM    4  N1  UNL     1     -11.246  40.844  36.347  1.00  0.00    -0.291 N 
ATOM      5  H1  UNL     1     -11.046  40.716  37.339  1.00  0.00     0.187 HD
BRANCH   4   6
HETATM    6  N2  UNL     1     -10.320  41.518  35.553  1.00  0.00    -0.131 N 
HETATM    7  C3  UNL     1      -9.114  40.849  35.219  1.00  0.00     0.709 C 
HETATM    8  N3  UNL     1      -8.941  39.602  35.452  1.00  0.00    -0.232 N 
HETATM    9  N4  UNL     1      -8.077  41.594  34.608  1.00  0.00    -0.071 N 
ATOM     10  H32 UNL     1      -9.688  39.065  35.891  1.00  0.00     0.174 HD
ATOM     11  H31 UNL     1      -8.074  39.121  35.211  1.00  0.00     0.174 HD
ATOM     12  H4  UNL     1      -7.341  41.996  35.190  1.00  0.00     0.212 HD
ATOM     13  H2  UNL     1     -10.504  42.465  35.221  1.00  0.00     0.205 HD
BRANCH   9  14
HETATM   14  N5  UNL     1      -8.039  41.788  33.236  1.00  0.00    -0.024 N 
HETATM   15  O1  UNL     1      -9.026  41.545  32.485  1.00  0.00    -0.516 OA
HETATM   16  O2  UNL     1      -6.912  42.265  32.578  1.00  0.00    -0.516 OA
ENDBRANCH   9  14
ENDBRANCH   4   6
ENDBRANCH   1   2
BRANCH   1  17
HETATM   17  N6  UNL     1     -12.603  39.212  37.924  1.00  0.00    -0.274 N 
ATOM     18  H6  UNL     1     -12.120  39.894  38.508  1.00  0.00     0.186 HD
BRANCH  17  19
HETATM   19  N7  UNL     1     -12.567  37.853  38.297  1.00  0.00    -0.141 N 
BRANCH  19  20
HETATM   20  O3  UNL     1     -12.876  37.581  39.467  1.00  0.00    -0.266 OA
ATOM     21  H3  UNL     1     -13.190  36.700  39.638  1.00  0.00     0.247 HD
ENDBRANCH  19  20
BRANCH  19  22
HETATM   22  C5  UNL     1     -12.187  36.895  37.323  1.00  0.00     0.185 C 
HETATM   23  N8  UNL     1     -11.129  36.868  36.634  1.00  0.00    -0.367 N 
HETATM   24  C6  UNL     1     -10.909  35.831  35.702  1.00  0.00     0.132 C 
ATOM     25  H8  UNL     1     -10.428  37.600  36.751  1.00  0.00     0.161 HD
HETATM   26  C7  UNL     1     -12.223  35.261  35.204  1.00  0.00     0.102 C 
HETATM   27  S1  UNL     1     -13.138  35.461  36.800  1.00  0.00    -0.089 SA
ENDBRANCH  19  22
ENDBRANCH  17  19
ENDBRANCH   1  17
BRANCH   1  28
HETATM   28  O4  UNL     1     -14.399  40.494  37.066  1.00  0.00    -0.282 OA
BRANCH  28  29
HETATM   29  C8  UNL     1     -14.196  41.710  37.690  1.00  0.00     0.330 C 
HETATM   30  O5  UNL     1     -13.365  41.805  38.623  1.00  0.00    -0.256 OA
BRANCH  29  31
HETATM   31  C9  UNL     1     -14.954  42.879  37.256  1.00  0.00     0.190 C 
HETATM   32  N9  UNL     1     -16.234  42.936  37.362  1.00  0.00    -0.379 N 
ATOM     33  H92 UNL     1     -16.718  42.132  37.762  1.00  0.00     0.158 HD
ATOM     34  H91 UNL     1     -16.764  43.753  37.058  1.00  0.00     0.158 HD
BRANCH  31  35
HETATM   35  N10 UNL     1     -14.276  44.003  36.695  1.00  0.00    -0.287 N 
ATOM     36  H10 UNL     1     -14.732  44.914  36.641  1.00  0.00     0.188 HD
BRANCH  35  37
HETATM   37  N11 UNL     1     -12.976  43.827  36.223  1.00  0.00    -0.343 N 
ATOM     38 2H11 UNL     1     -12.423  43.034  36.546  1.00  0.00     0.176 HD
ATOM     39 1H11 UNL     1     -12.604  44.505  35.558  1.00  0.00     0.176 HD
ENDBRANCH  35  37
ENDBRANCH  31  35
ENDBRANCH  29  31
ENDBRANCH  28  29
ENDBRANCH   1  28
TORSDOF 12
ENDMDL
MODEL 3
REMARK VINA RESULT: -6.854309736      1.842      2.230
REMARK  12 active torsions:
REMARK  status: ('A' for Active; 'I' for Inactive)
REMARK    1  A    between atoms: C2_2  and  C4_16 
REMARK    2  A    between atoms: N1_3  and  N2_5 
REMARK       I    between atoms: N2_5  and  C3_7 
REMARK       I    between atoms: C3_7  and  N4_11 
REMARK    3  A    between atoms: N4_11  and  N5_13 
REMARK    4  A    between atoms: C4_16  and  N6_17 
REMARK    5  A    between atoms: C4_16  and  O4_28 
REMARK    6  A    between atoms: N6_17  and  N7_19 
REMARK    7  A    between atoms: N7_19  and  O3_20 
REMARK    8  A    between atoms: N7_19  and  C5_22 
REMARK    9  A    between atoms: O4_28  and  C8_29 
REMARK   10  A    between atoms: C8_29  and  C9_31 
REMARK   11  A    between atoms: C9_31  and  N10_35 
REMARK   12  A    between atoms: N10_35  and  N11_37 
ROOT
HETATM    1  C4  UNL     1     -12.954  39.033  36.263  1.00  0.00     0.296 C 
ENDROOT
BRANCH   1   2
HETATM    2  C2  UNL     1     -11.948  38.930  35.180  1.00  0.00     0.050 C 
HETATM    3  C1  UNL     1     -12.305  39.425  33.826  1.00  0.00     0.070 C 
HETATM    4  N1  UNL     1     -10.799  38.422  35.417  1.00  0.00    -0.291 N 
ATOM      5  H1  UNL     1     -10.589  38.091  36.358  1.00  0.00     0.187 HD
BRANCH   4   6
HETATM    6  N2  UNL     1      -9.825  38.307  34.427  1.00  0.00    -0.131 N 
HETATM    7  C3  UNL     1      -8.752  39.236  34.433  1.00  0.00     0.709 C 
HETATM    8  N3  UNL     1      -8.550  40.035  35.414  1.00  0.00    -0.232 N 
HETATM    9  N4  UNL     1      -7.885  39.273  33.315  1.00  0.00    -0.071 N 
ATOM     10  H32 UNL     1      -9.175  40.008  36.219  1.00  0.00     0.174 HD
ATOM     11  H31 UNL     1      -7.779  40.702  35.418  1.00  0.00     0.174 HD
ATOM     12  H4  UNL     1      -8.065  39.941  32.565  1.00  0.00     0.212 HD
ATOM     13  H2  UNL     1      -9.881  37.575  33.718  1.00  0.00     0.205 HD
BRANCH   9  14
HETATM   14  N5  UNL     1      -6.796  38.421  33.218  1.00  0.00    -0.024 N 
HETATM   15  O1  UNL     1      -6.759  37.294  33.790  1.00  0.00    -0.516 OA
HETATM   16  O2  UNL     1      -5.660  38.738  32.483  1.00  0.00    -0.516 OA
ENDBRANCH   9  14
ENDBRANCH   4   6
ENDBRANCH   1   2
BRANCH   1  17
HETATM   17  N6  UNL     1     -12.311  38.807  37.527  1.00  0.00    -0.274 N 
ATOM     18  H6  UNL     1     -11.448  39.308  37.736  1.00  0.00     0.186 HD
BRANCH  17  19
HETATM   19  N7  UNL     1     -12.829  37.917  38.489  1.00  0.00    -0.141 N 
BRANCH  19  20
HETATM   20  O3  UNL     1     -13.529  38.404  39.390  1.00  0.00    -0.266 OA
ATOM     21  H3  UNL     1     -14.305  37.917  39.646  1.00  0.00     0.247 HD
ENDBRANCH  19  20
BRANCH  19  22
HETATM   22  C5  UNL     1     -12.521  36.538  38.369  1.00  0.00     0.185 C 
HETATM   23  N8  UNL     1     -11.669  35.873  39.023  1.00  0.00    -0.367 N 
HETATM   24  C6  UNL     1     -11.492  34.496  38.771  1.00  0.00     0.132 C 
ATOM     25  H8  UNL     1     -11.106  36.334  39.738  1.00  0.00     0.161 HD
HETATM   26  C7  UNL     1     -11.879  34.149  37.347  1.00  0.00     0.102 C 
HETATM   27  S1  UNL     1     -13.264  35.369  37.221  1.00  0.00    -0.089 SA
ENDBRANCH  19  22
ENDBRANCH  17  19
ENDBRANCH   1  17
BRANCH   1  28
HETATM   28  O4  UNL     1     -13.623  40.278  36.215  1.00  0.00    -0.282 OA
BRANCH  28  29
HETATM   29  C8  UNL     1     -13.331  41.253  37.151  1.00  0.00     0.330 C 
HETATM   30  O5  UNL     1     -13.875  41.221  38.279  1.00  0.00    -0.256 OA
BRANCH  29  31
HETATM   31  C9  UNL     1     -12.388  42.315  36.816  1.00  0.00     0.190 C 
HETATM   32  N9  UNL     1     -11.117  42.143  36.890  1.00  0.00    -0.379 N 
ATOM     33  H92 UNL     1     -10.773  41.232  37.194  1.00  0.00     0.158 HD
ATOM     34  H91 UNL     1     -10.458  42.886  36.656  1.00  0.00     0.158 HD
BRANCH  31  35
HETATM   35  N10 UNL     1     -12.870  43.590  36.392  1.00  0.00    -0.287 N 
ATOM     36  H10 UNL     1     -12.263  44.235  35.885  1.00  0.00     0.188 HD
BRANCH  35  37
HETATM   37  N11 UNL     1     -14.188  43.935  36.685  1.00  0.00    -0.343 N 
ATOM     38 2H11 UNL     1     -14.832  43.224  37.034  1.00  0.00     0.176 HD
ATOM     39 1H11 UNL     1     -14.483  44.901  36.542  1.00  0.00     0.176 HD
ENDBRANCH  35  37
ENDBRANCH  31  35
ENDBRANCH  29  31
ENDBRANCH  28  29
ENDBRANCH   1  28
TORSDOF 12
ENDMDL
MODEL 4
REMARK VINA RESULT: -6.838005991      4.171      6.106
REMARK  12 active torsions:
REMARK  status: ('A' for Active; 'I' for Inactive)
REMARK    1  A    between atoms: C2_2  and  C4_16 
REMARK    2  A    between atoms: N1_3  and  N2_5 
REMARK       I    between atoms: N2_5  and  C3_7 
REMARK       I    between atoms: C3_7  and  N4_11 
REMARK    3  A    between atoms: N4_11  and  N5_13 
REMARK    4  A    between atoms: C4_16  and  N6_17 
REMARK    5  A    between atoms: C4_16  and  O4_28 
REMARK    6  A    between atoms: N6_17  and  N7_19 
REMARK    7  A    between atoms: N7_19  and  O3_20 
REMARK    8  A    between atoms: N7_19  and  C5_22 
REMARK    9  A    between atoms: O4_28  and  C8_29 
REMARK   10  A    between atoms: C8_29  and  C9_31 
REMARK   11  A    between atoms: C9_31  and  N10_35 
REMARK   12  A    between atoms: N10_35  and  N11_37 
ROOT
HETATM    1  C4  UNL     1     -10.082  39.646  33.132  1.00  0.00     0.296 C 
ENDROOT
BRANCH   1   2
HETATM    2  C2  UNL     1      -9.092  38.695  32.576  1.00  0.00     0.050 C 
HETATM    3  C1  UNL     1      -9.577  37.574  31.731  1.00  0.00     0.070 C 
HETATM    4  N1  UNL     1      -7.847  38.844  32.825  1.00  0.00    -0.291 N 
ATOM      5  H1  UNL     1      -7.550  39.625  33.410  1.00  0.00     0.187 HD
BRANCH   4   6
HETATM    6  N2  UNL     1      -6.883  37.973  32.321  1.00  0.00    -0.131 N 
HETATM    7  C3  UNL     1      -5.989  37.362  33.240  1.00  0.00     0.709 C 
HETATM    8  N3  UNL     1      -6.163  37.431  34.506  1.00  0.00    -0.232 N 
HETATM    9  N4  UNL     1      -4.873  36.658  32.728  1.00  0.00    -0.071 N 
ATOM     10  H32 UNL     1      -6.967  37.939  34.875  1.00  0.00     0.174 HD
ATOM     11  H31 UNL     1      -5.521  36.992  35.166  1.00  0.00     0.174 HD
ATOM     12  H4  UNL     1      -3.978  37.139  32.636  1.00  0.00     0.212 HD
ATOM     13  H2  UNL     1      -6.822  37.778  31.322  1.00  0.00     0.205 HD
BRANCH   9  14
HETATM   14  N5  UNL     1      -4.972  35.328  32.348  1.00  0.00    -0.024 N 
HETATM   15  O1  UNL     1      -3.961  34.581  32.214  1.00  0.00    -0.516 OA
HETATM   16  O2  UNL     1      -6.189  34.712  32.084  1.00  0.00    -0.516 OA
ENDBRANCH   9  14
ENDBRANCH   4   6
ENDBRANCH   1   2
BRANCH   1  17
HETATM   17  N6  UNL     1      -9.823  39.832  34.532  1.00  0.00    -0.274 N 
ATOM     18  H6  UNL     1      -9.609  39.016  35.105  1.00  0.00     0.186 HD
BRANCH  17  19
HETATM   19  N7  UNL     1      -9.853  41.101  35.144  1.00  0.00    -0.141 N 
BRANCH  19  20
HETATM   20  O3  UNL     1      -8.952  41.897  34.838  1.00  0.00    -0.266 OA
ATOM     21  H3  UNL     1      -8.846  42.097  33.915  1.00  0.00     0.247 HD
ENDBRANCH  19  20
BRANCH  19  22
HETATM   22  C5  UNL     1     -10.898  41.385  36.060  1.00  0.00     0.185 C 
HETATM   23  N8  UNL     1     -10.905  42.239  36.990  1.00  0.00    -0.367 N 
HETATM   24  C6  UNL     1     -12.040  42.390  37.814  1.00  0.00     0.132 C 
ATOM     25  H8  UNL     1     -10.084  42.824  37.147  1.00  0.00     0.161 HD
HETATM   26  C7  UNL     1     -12.836  41.101  37.884  1.00  0.00     0.102 C 
HETATM   27  S1  UNL     1     -12.501  40.573  36.143  1.00  0.00    -0.089 SA
ENDBRANCH  19  22
ENDBRANCH  17  19
ENDBRANCH   1  17
BRANCH   1  28
HETATM   28  O4  UNL     1     -10.069  40.866  32.416  1.00  0.00    -0.282 OA
BRANCH  28  29
HETATM   29  C8  UNL     1     -11.186  41.257  31.702  1.00  0.00     0.330 C 
HETATM   30  O5  UNL     1     -11.211  41.127  30.456  1.00  0.00    -0.256 OA
BRANCH  29  31
HETATM   31  C9  UNL     1     -12.333  41.819  32.408  1.00  0.00     0.190 C 
HETATM   32  N9  UNL     1     -12.241  42.896  33.103  1.00  0.00    -0.379 N 
ATOM     33  H92 UNL     1     -11.333  43.359  33.153  1.00  0.00     0.158 HD
ATOM     34  H91 UNL     1     -13.043  43.290  33.596  1.00  0.00     0.158 HD
BRANCH  31  35
HETATM   35  N10 UNL     1     -13.603  41.171  32.338  1.00  0.00    -0.287 N 
ATOM     36  H10 UNL     1     -13.723  40.315  31.797  1.00  0.00     0.188 HD
BRANCH  35  37
HETATM   37  N11 UNL     1     -14.676  41.734  33.027  1.00  0.00    -0.343 N 
ATOM     38 2H11 UNL     1     -15.317  41.133  33.545  1.00  0.00     0.176 HD
ATOM     39 1H11 UNL     1     -14.798  42.747  32.995  1.00  0.00     0.176 HD
ENDBRANCH  35  37
ENDBRANCH  31  35
ENDBRANCH  29  31
ENDBRANCH  28  29
ENDBRANCH   1  28
TORSDOF 12
ENDMDL
MODEL 5
REMARK VINA RESULT: -6.777601669      1.663      1.930
REMARK  12 active torsions:
REMARK  status: ('A' for Active; 'I' for Inactive)
REMARK    1  A    between atoms: C2_2  and  C4_16 
REMARK    2  A    between atoms: N1_3  and  N2_5 
REMARK       I    between atoms: N2_5  and  C3_7 
REMARK       I    between atoms: C3_7  and  N4_11 
REMARK    3  A    between atoms: N4_11  and  N5_13 
REMARK    4  A    between atoms: C4_16  and  N6_17 
REMARK    5  A    between atoms: C4_16  and  O4_28 
REMARK    6  A    between atoms: N6_17  and  N7_19 
REMARK    7  A    between atoms: N7_19  and  O3_20 
REMARK    8  A    between atoms: N7_19  and  C5_22 
REMARK    9  A    between atoms: O4_28  and  C8_29 
REMARK   10  A    between atoms: C8_29  and  C9_31 
REMARK   11  A    between atoms: C9_31  and  N10_35 
REMARK   12  A    between atoms: N10_35  and  N11_37 
ROOT
HETATM    1  C4  UNL     1     -13.640  39.774  37.565  1.00  0.00     0.296 C 
ENDROOT
BRANCH   1   2
HETATM    2  C2  UNL     1     -12.818  39.277  36.437  1.00  0.00     0.050 C 
HETATM    3  C1  UNL     1     -13.453  38.388  35.430  1.00  0.00     0.070 C 
HETATM    4  N1  UNL     1     -11.589  39.612  36.341  1.00  0.00    -0.291 N 
ATOM      5  H1  UNL     1     -11.186  40.223  37.051  1.00  0.00     0.187 HD
BRANCH   4   6
HETATM    6  N2  UNL     1     -10.782  39.167  35.295  1.00  0.00    -0.131 N 
HETATM    7  C3  UNL     1      -9.691  39.984  34.899  1.00  0.00     0.709 C 
HETATM    8  N3  UNL     1      -9.315  40.997  35.586  1.00  0.00    -0.232 N 
HETATM    9  N4  UNL     1      -9.004  39.660  33.704  1.00  0.00    -0.071 N 
ATOM     10  H32 UNL     1      -9.809  41.231  36.447  1.00  0.00     0.174 HD
ATOM     11  H31 UNL     1      -8.531  41.584  35.302  1.00  0.00     0.174 HD
ATOM     12  H4  UNL     1      -9.275  40.117  32.833  1.00  0.00     0.212 HD
ATOM     13  H2  UNL     1     -10.969  38.280  34.828  1.00  0.00     0.205 HD
BRANCH   9  14
HETATM   14  N5  UNL     1      -7.971  38.735  33.694  1.00  0.00    -0.024 N 
HETATM   15  O1  UNL     1      -7.865  37.822  34.561  1.00  0.00    -0.516 OA
HETATM   16  O2  UNL     1      -6.972  38.740  32.728  1.00  0.00    -0.516 OA
ENDBRANCH   9  14
ENDBRANCH   4   6
ENDBRANCH   1   2
BRANCH   1  17
HETATM   17  N6  UNL     1     -13.918  38.686  38.461  1.00  0.00    -0.274 N 
ATOM     18  H6  UNL     1     -14.884  38.386  38.584  1.00  0.00     0.186 HD
BRANCH  17  19
HETATM   19  N7  UNL     1     -12.903  38.017  39.175  1.00  0.00    -0.141 N 
BRANCH  19  20
HETATM   20  O3  UNL     1     -12.225  38.696  39.961  1.00  0.00    -0.266 OA
ATOM     21  H3  UNL     1     -11.899  38.259  40.740  1.00  0.00     0.247 HD
ENDBRANCH  19  20
BRANCH  19  22
HETATM   22  C5  UNL     1     -12.725  36.628  38.953  1.00  0.00     0.185 C 
HETATM   23  N8  UNL     1     -13.276  35.668  39.562  1.00  0.00    -0.367 N 
HETATM   24  C6  UNL     1     -12.981  34.334  39.208  1.00  0.00     0.132 C 
ATOM     25  H8  UNL     1     -13.939  35.857  40.314  1.00  0.00     0.161 HD
HETATM   26  C7  UNL     1     -11.597  34.227  38.598  1.00  0.00     0.102 C 
HETATM   27  S1  UNL     1     -11.637  35.866  37.741  1.00  0.00    -0.089 SA
ENDBRANCH  19  22
ENDBRANCH  17  19
ENDBRANCH   1  17
BRANCH   1  28
HETATM   28  O4  UNL     1     -13.004  40.856  38.215  1.00  0.00    -0.282 OA
BRANCH  28  29
HETATM   29  C8  UNL     1     -12.706  42.005  37.507  1.00  0.00     0.330 C 
HETATM   30  O5  UNL     1     -11.561  42.510  37.586  1.00  0.00    -0.256 OA
BRANCH  29  31
HETATM   31  C9  UNL     1     -13.729  42.624  36.671  1.00  0.00     0.190 C 
HETATM   32  N9  UNL     1     -14.674  43.336  37.170  1.00  0.00    -0.379 N 
ATOM     33  H92 UNL     1     -14.696  43.464  38.182  1.00  0.00     0.158 HD
ATOM     34  H91 UNL     1     -15.390  43.769  36.585  1.00  0.00     0.158 HD
BRANCH  31  35
HETATM   35  N10 UNL     1     -13.698  42.444  35.255  1.00  0.00    -0.287 N 
ATOM     36  H10 UNL     1     -14.549  42.219  34.739  1.00  0.00     0.188 HD
BRANCH  35  37
HETATM   37  N11 UNL     1     -12.480  42.584  34.592  1.00  0.00    -0.343 N 
ATOM     38 2H11 UNL     1     -12.000  43.484  34.599  1.00  0.00     0.176 HD
ATOM     39 1H11 UNL     1     -12.091  41.773  34.111  1.00  0.00     0.176 HD
ENDBRANCH  35  37
ENDBRANCH  31  35
ENDBRANCH  29  31
ENDBRANCH  28  29
ENDBRANCH   1  28
TORSDOF 12
ENDMDL
