MODEL 1
REMARK VINA RESULT: -8.374961455      0.000      0.000
REMARK  8 active torsions:
REMARK  status: ('A' for Active; 'I' for Inactive)
REMARK    1  A    between atoms: C2_2  and  C3_3 
REMARK    2  A    between atoms: C2_2  and  N7_24 
REMARK    3  A    between atoms: C3_3  and  C4_4 
REMARK    4  A    between atoms: C4_4  and  C5_5 
REMARK    5  A    between atoms: C5_5  and  N1_6 
REMARK    6  A    between atoms: C8_11  and  N3_12 
REMARK    7  A    between atoms: C9_17  and  N5_18 
REMARK       I    between atoms: N12_34  and  C13_35 
REMARK    8  A    between atoms: C14_38  and  N14_39 
ROOT
HETATM    1  C3  UNL     1     -10.267  37.581  32.634  1.00  0.00     0.028 C 
ENDROOT
BRANCH   1   2
HETATM    2  C2  UNL     1      -9.116  36.753  33.108  1.00  0.00     0.107 C 
HETATM    3  C1  UNL     1      -9.370  35.265  32.939  1.00  0.00     0.034 C 
BRANCH   2   4
HETATM    4  N7  UNL     1      -7.885  37.142  32.425  1.00  0.00    -0.256 N 
HETATM    5  N8  UNL     1      -7.618  36.699  31.205  1.00  0.00    -0.237 N 
HETATM    6  N9  UNL     1      -6.538  36.996  30.516  1.00  0.00    -0.267 N 
ATOM      7  H8  UNL     1      -8.302  36.082  30.767  1.00  0.00     0.208 HD
HETATM    8  C11 UNL     1      -5.593  37.801  31.022  1.00  0.00     0.177 A 
ATOM      9  H9  UNL     1      -6.418  36.608  29.581  1.00  0.00     0.190 HD
HETATM   10  C12 UNL     1      -5.816  38.290  32.286  1.00  0.00     0.138 A 
HETATM   11  N12 UNL     1      -4.410  38.272  30.562  1.00  0.00    -0.172 N 
HETATM   12  N10 UNL     1      -4.747  39.057  32.567  1.00  0.00    -0.276 N 
HETATM   13  C14 UNL     1      -6.983  37.953  32.998  1.00  0.00     0.149 A 
HETATM   14  N11 UNL     1      -3.909  39.036  31.519  1.00  0.00    -0.009 NA
ATOM     15  H10 UNL     1      -4.597  39.572  33.436  1.00  0.00     0.184 HD
HETATM   16  C13 UNL     1      -3.819  37.990  29.278  1.00  0.00     0.354 C 
HETATM   17  N13 UNL     1      -2.577  38.562  28.957  1.00  0.00    -0.038 NA
HETATM   18  O1  UNL     1      -4.445  37.234  28.490  1.00  0.00    -0.249 OA
BRANCH  13  19
HETATM   19  N14 UNL     1      -7.127  38.438  34.161  1.00  0.00    -0.382 N 
ATOM     20 2H14 UNL     1      -6.285  38.691  34.678  1.00  0.00     0.157 HD
ATOM     21 1H14 UNL     1      -8.039  38.585  34.595  1.00  0.00     0.157 HD
ENDBRANCH  13  19
ENDBRANCH   2   4
ENDBRANCH   1   2
BRANCH   1  22
HETATM   22  C4  UNL     1     -10.974  38.310  33.726  1.00  0.00     0.022 C 
BRANCH  22  23
HETATM   23  C5  UNL     1     -10.333  39.637  34.030  1.00  0.00     0.131 C 
BRANCH  23  24
HETATM   24  N1  UNL     1     -11.239  40.672  34.430  1.00  0.00    -0.327 N 
HETATM   25  C6  UNL     1     -11.626  41.769  33.716  1.00  0.00     0.185 A 
HETATM   26  N2  UNL     1     -12.471  42.531  34.419  1.00  0.00    -0.346 N 
HETATM   27  C7  UNL     1     -12.655  41.949  35.611  1.00  0.00     0.123 A 
ATOM     28  H2  UNL     1     -12.898  43.402  34.103  1.00  0.00     0.167 HD
HETATM   29  C8  UNL     1     -13.435  42.336  36.685  1.00  0.00     0.145 A 
HETATM   30  C10 UNL     1     -11.883  40.790  35.608  1.00  0.00     0.155 A 
HETATM   31  N4  UNL     1     -13.424  41.530  37.760  1.00  0.00    -0.175 N 
HETATM   32  C9  UNL     1     -12.674  40.394  37.769  1.00  0.00     0.679 A 
ATOM     33  H4  UNL     1     -13.984  41.771  38.577  1.00  0.00     0.186 HD
HETATM   34  N6  UNL     1     -11.919  40.024  36.721  1.00  0.00    -0.174 N 
ATOM     35  H6  UNL     1     -11.371  39.165  36.766  1.00  0.00     0.186 HD
BRANCH  29  36
HETATM   36  N3  UNL     1     -14.144  43.414  36.670  1.00  0.00    -0.383 N 
ATOM     37  H32 UNL     1     -13.708  44.330  36.771  1.00  0.00     0.157 HD
ATOM     38  H31 UNL     1     -15.157  43.397  36.558  1.00  0.00     0.157 HD
ENDBRANCH  29  36
BRANCH  32  39
HETATM   39  N5  UNL     1     -12.661  39.605  38.814  1.00  0.00    -0.234 N 
ATOM     40  H52 UNL     1     -13.473  39.645  39.430  1.00  0.00     0.174 HD
ATOM     41  H51 UNL     1     -11.871  38.986  38.993  1.00  0.00     0.174 HD
ENDBRANCH  32  39
ENDBRANCH  23  24
ENDBRANCH  22  23
ENDBRANCH   1  22
TORSDOF 8
ENDMDL
MODEL 2
REMARK VINA RESULT: -8.238231041      1.401      1.949
REMARK  8 active torsions:
REMARK  status: ('A' for Active; 'I' for Inactive)
REMARK    1  A    between atoms: C2_2  and  C3_3 
REMARK    2  A    between atoms: C2_2  and  N7_24 
REMARK    3  A    between atoms: C3_3  and  C4_4 
REMARK    4  A    between atoms: C4_4  and  C5_5 
REMARK    5  A    between atoms: C5_5  and  N1_6 
REMARK    6  A    between atoms: C8_11  and  N3_12 
REMARK    7  A    between atoms: C9_17  and  N5_18 
REMARK       I    between atoms: N12_34  and  C13_35 
REMARK    8  A    between atoms: C14_38  and  N14_39 
ROOT
HETATM    1  C3  UNL     1      -9.546  37.065  32.107  1.00  0.00     0.028 C 
ENDROOT
BRANCH   1   2
HETATM    2  C2  UNL     1      -8.346  36.303  32.569  1.00  0.00     0.107 C 
HETATM    3  C1  UNL     1      -8.453  34.820  32.256  1.00  0.00     0.034 C 
BRANCH   2   4
HETATM    4  N7  UNL     1      -7.126  36.860  31.990  1.00  0.00    -0.256 N 
HETATM    5  N8  UNL     1      -6.768  36.562  30.750  1.00  0.00    -0.237 N 
HETATM    6  N9  UNL     1      -5.690  37.016  30.148  1.00  0.00    -0.267 N 
ATOM      7  H8  UNL     1      -7.373  35.933  30.222  1.00  0.00     0.208 HD
HETATM    8  C11 UNL     1      -4.845  37.847  30.774  1.00  0.00     0.177 A 
ATOM      9  H9  UNL     1      -5.494  36.731  29.189  1.00  0.00     0.190 HD
HETATM   10  C12 UNL     1      -5.167  38.191  32.065  1.00  0.00     0.138 A 
HETATM   11  N12 UNL     1      -3.690  38.460  30.422  1.00  0.00    -0.172 N 
HETATM   12  N10 UNL     1      -4.185  39.017  32.471  1.00  0.00    -0.276 N 
HETATM   13  C14 UNL     1      -6.329  37.687  32.681  1.00  0.00     0.149 A 
HETATM   14  N11 UNL     1      -3.304  39.169  31.470  1.00  0.00    -0.009 NA
ATOM     15  H10 UNL     1      -4.121  39.457  33.389  1.00  0.00     0.184 HD
HETATM   16  C13 UNL     1      -3.020  38.355  29.150  1.00  0.00     0.354 C 
HETATM   17  N13 UNL     1      -1.823  39.061  28.949  1.00  0.00    -0.038 NA
HETATM   18  O1  UNL     1      -3.540  37.627  28.264  1.00  0.00    -0.249 OA
BRANCH  13  19
HETATM   19  N14 UNL     1      -6.567  38.045  33.874  1.00  0.00    -0.382 N 
ATOM     20 2H14 UNL     1      -5.893  37.780  34.593  1.00  0.00     0.157 HD
ATOM     21 1H14 UNL     1      -7.394  38.578  34.142  1.00  0.00     0.157 HD
ENDBRANCH  13  19
ENDBRANCH   2   4
ENDBRANCH   1   2
BRANCH   1  22
HETATM   22  C4  UNL     1     -10.149  37.934  33.159  1.00  0.00     0.022 C 
BRANCH  22  23
HETATM   23  C5  UNL     1      -9.792  39.383  32.972  1.00  0.00     0.131 C 
BRANCH  23  24
HETATM   24  N1  UNL     1     -10.088  40.230  34.088  1.00  0.00    -0.327 N 
HETATM   25  C6  UNL     1      -9.250  40.610  35.098  1.00  0.00     0.185 A 
HETATM   26  N2  UNL     1      -9.880  41.391  35.981  1.00  0.00    -0.346 N 
HETATM   27  C7  UNL     1     -11.147  41.541  35.570  1.00  0.00     0.123 A 
ATOM     28  H2  UNL     1      -9.469  41.801  36.820  1.00  0.00     0.167 HD
HETATM   29  C8  UNL     1     -12.190  42.255  36.128  1.00  0.00     0.145 A 
HETATM   30  C10 UNL     1     -11.265  40.814  34.388  1.00  0.00     0.155 A 
HETATM   31  N4  UNL     1     -13.362  42.223  35.470  1.00  0.00    -0.175 N 
HETATM   32  C9  UNL     1     -13.491  41.516  34.314  1.00  0.00     0.679 A 
ATOM     33  H4  UNL     1     -14.162  42.734  35.841  1.00  0.00     0.186 HD
HETATM   34  N6  UNL     1     -12.472  40.825  33.778  1.00  0.00    -0.174 N 
ATOM     35  H6  UNL     1     -12.608  40.308  32.909  1.00  0.00     0.186 HD
BRANCH  29  36
HETATM   36  N3  UNL     1     -12.061  42.923  37.223  1.00  0.00    -0.383 N 
ATOM     37  H32 UNL     1     -12.370  42.535  38.115  1.00  0.00     0.157 HD
ATOM     38  H31 UNL     1     -11.651  43.856  37.247  1.00  0.00     0.157 HD
ENDBRANCH  29  36
BRANCH  32  39
HETATM   39  N5  UNL     1     -14.630  41.483  33.670  1.00  0.00    -0.234 N 
ATOM     40  H52 UNL     1     -14.733  40.763  32.954  1.00  0.00     0.174 HD
ATOM     41  H51 UNL     1     -15.372  42.150  33.882  1.00  0.00     0.174 HD
ENDBRANCH  32  39
ENDBRANCH  23  24
ENDBRANCH  22  23
ENDBRANCH   1  22
TORSDOF 8
ENDMDL
MODEL 3
REMARK VINA RESULT: -8.187994807      3.118      9.328
REMARK  8 active torsions:
REMARK  status: ('A' for Active; 'I' for Inactive)
REMARK    1  A    between atoms: C2_2  and  C3_3 
REMARK    2  A    between atoms: C2_2  and  N7_24 
REMARK    3  A    between atoms: C3_3  and  C4_4 
REMARK    4  A    between atoms: C4_4  and  C5_5 
REMARK    5  A    between atoms: C5_5  and  N1_6 
REMARK    6  A    between atoms: C8_11  and  N3_12 
REMARK    7  A    between atoms: C9_17  and  N5_18 
REMARK       I    between atoms: N12_34  and  C13_35 
REMARK    8  A    between atoms: C14_38  and  N14_39 
ROOT
HETATM    1  C3  UNL     1      -8.328  37.485  34.705  1.00  0.00     0.028 C 
ENDROOT
BRANCH   1   2
HETATM    2  C2  UNL     1      -8.682  38.816  34.125  1.00  0.00     0.107 C 
HETATM    3  C1  UNL     1      -9.118  38.712  32.674  1.00  0.00     0.034 C 
BRANCH   2   4
HETATM    4  N7  UNL     1      -9.716  39.469  34.924  1.00  0.00    -0.256 N 
HETATM    5  N8  UNL     1     -10.855  38.849  35.195  1.00  0.00    -0.237 N 
HETATM    6  N9  UNL     1     -11.839  39.357  35.903  1.00  0.00    -0.267 N 
ATOM      7  H8  UNL     1     -10.978  37.906  34.825  1.00  0.00     0.208 HD
HETATM    8  C11 UNL     1     -11.753  40.590  36.424  1.00  0.00     0.177 A 
ATOM      9  H9  UNL     1     -12.681  38.804  36.060  1.00  0.00     0.190 HD
HETATM   10  C12 UNL     1     -10.592  41.281  36.174  1.00  0.00     0.138 A 
HETATM   11  N12 UNL     1     -12.579  41.357  37.173  1.00  0.00    -0.172 N 
HETATM   12  N10 UNL     1     -10.744  42.468  36.789  1.00  0.00    -0.276 N 
HETATM   13  C14 UNL     1      -9.557  40.708  35.411  1.00  0.00     0.149 A 
HETATM   14  N11 UNL     1     -11.946  42.498  37.386  1.00  0.00    -0.009 NA
ATOM     15  H10 UNL     1     -10.058  43.223  36.800  1.00  0.00     0.184 HD
HETATM   16  C13 UNL     1     -13.892  40.991  37.645  1.00  0.00     0.354 C 
HETATM   17  N13 UNL     1     -14.621  41.910  38.417  1.00  0.00    -0.038 NA
HETATM   18  O1  UNL     1     -14.335  39.852  37.341  1.00  0.00    -0.249 OA
BRANCH  13  19
HETATM   19  N14 UNL     1      -8.512  41.400  35.219  1.00  0.00    -0.382 N 
ATOM     20 2H14 UNL     1      -7.613  40.976  35.446  1.00  0.00     0.157 HD
ATOM     21 1H14 UNL     1      -8.533  42.352  34.851  1.00  0.00     0.157 HD
ENDBRANCH  13  19
ENDBRANCH   2   4
ENDBRANCH   1   2
BRANCH   1  22
HETATM   22  C4  UNL     1      -6.859  37.246  34.814  1.00  0.00     0.022 C 
BRANCH  22  23
HETATM   23  C5  UNL     1      -6.351  36.332  33.732  1.00  0.00     0.131 C 
BRANCH  23  24
HETATM   24  N1  UNL     1      -5.786  36.995  32.594  1.00  0.00    -0.327 N 
HETATM   25  C6  UNL     1      -5.189  38.222  32.549  1.00  0.00     0.185 A 
HETATM   26  N2  UNL     1      -4.799  38.524  31.306  1.00  0.00    -0.346 N 
HETATM   27  C7  UNL     1      -5.132  37.500  30.508  1.00  0.00     0.123 A 
ATOM     28  H2  UNL     1      -4.330  39.383  31.017  1.00  0.00     0.167 HD
HETATM   29  C8  UNL     1      -4.942  37.325  29.151  1.00  0.00     0.145 A 
HETATM   30  C10 UNL     1      -5.747  36.552  31.321  1.00  0.00     0.155 A 
HETATM   31  N4  UNL     1      -5.383  36.170  28.624  1.00  0.00    -0.175 N 
HETATM   32  C9  UNL     1      -5.985  35.234  29.408  1.00  0.00     0.679 A 
ATOM     33  H4  UNL     1      -5.265  35.993  27.627  1.00  0.00     0.186 HD
HETATM   34  N6  UNL     1      -6.166  35.412  30.728  1.00  0.00    -0.174 N 
ATOM     35  H6  UNL     1      -6.621  34.686  31.282  1.00  0.00     0.186 HD
BRANCH  29  36
HETATM   36  N3  UNL     1      -4.370  38.216  28.414  1.00  0.00    -0.383 N 
ATOM     37  H32 UNL     1      -4.619  39.201  28.492  1.00  0.00     0.157 HD
ATOM     38  H31 UNL     1      -3.653  37.978  27.729  1.00  0.00     0.157 HD
ENDBRANCH  29  36
BRANCH  32  39
HETATM   39  N5  UNL     1      -6.416  34.107  28.900  1.00  0.00    -0.234 N 
ATOM     40  H52 UNL     1      -5.990  33.806  28.023  1.00  0.00     0.174 HD
ATOM     41  H51 UNL     1      -7.143  33.566  29.367  1.00  0.00     0.174 HD
ENDBRANCH  32  39
ENDBRANCH  23  24
ENDBRANCH  22  23
ENDBRANCH   1  22
TORSDOF 8
ENDMDL
MODEL 4
REMARK VINA RESULT: -8.186128955      3.642      8.515
REMARK  8 active torsions:
REMARK  status: ('A' for Active; 'I' for Inactive)
REMARK    1  A    between atoms: C2_2  and  C3_3 
REMARK    2  A    between atoms: C2_2  and  N7_24 
REMARK    3  A    between atoms: C3_3  and  C4_4 
REMARK    4  A    between atoms: C4_4  and  C5_5 
REMARK    5  A    between atoms: C5_5  and  N1_6 
REMARK    6  A    between atoms: C8_11  and  N3_12 
REMARK    7  A    between atoms: C9_17  and  N5_18 
REMARK       I    between atoms: N12_34  and  C13_35 
REMARK    8  A    between atoms: C14_38  and  N14_39 
ROOT
HETATM    1  C3  UNL     1      -5.477  36.863  32.992  1.00  0.00     0.028 C 
ENDROOT
BRANCH   1   2
HETATM    2  C2  UNL     1      -6.669  36.730  33.884  1.00  0.00     0.107 C 
HETATM    3  C1  UNL     1      -6.343  37.059  35.330  1.00  0.00     0.034 C 
BRANCH   2   4
HETATM    4  N7  UNL     1      -7.768  37.566  33.405  1.00  0.00    -0.256 N 
HETATM    5  N8  UNL     1      -7.624  38.879  33.302  1.00  0.00    -0.237 N 
HETATM    6  N9  UNL     1      -8.556  39.707  32.882  1.00  0.00    -0.267 N 
ATOM      7  H8  UNL     1      -6.724  39.278  33.568  1.00  0.00     0.208 HD
HETATM    8  C11 UNL     1      -9.765  39.260  32.514  1.00  0.00     0.177 A 
ATOM      9  H9  UNL     1      -8.355  40.706  32.836  1.00  0.00     0.190 HD
HETATM   10  C12 UNL     1      -9.971  37.905  32.601  1.00  0.00     0.138 A 
HETATM   11  N12 UNL     1     -10.890  39.855  32.054  1.00  0.00    -0.172 N 
HETATM   12  N10 UNL     1     -11.235  37.707  32.185  1.00  0.00    -0.276 N 
HETATM   13  C14 UNL     1      -8.952  37.045  33.055  1.00  0.00     0.149 A 
HETATM   14  N11 UNL     1     -11.775  38.892  31.859  1.00  0.00    -0.009 NA
ATOM     15  H10 UNL     1     -11.707  36.804  32.127  1.00  0.00     0.184 HD
HETATM   16  C13 UNL     1     -11.078  41.267  31.824  1.00  0.00     0.354 C 
HETATM   17  N13 UNL     1     -12.317  41.721  31.341  1.00  0.00    -0.038 NA
HETATM   18  O1  UNL     1     -10.116  42.041  32.068  1.00  0.00    -0.249 OA
BRANCH  13  19
HETATM   19  N14 UNL     1      -9.208  35.804  33.111  1.00  0.00    -0.382 N 
ATOM     20 2H14 UNL     1      -8.882  35.288  33.929  1.00  0.00     0.157 HD
ATOM     21 1H14 UNL     1      -9.720  35.306  32.382  1.00  0.00     0.157 HD
ENDBRANCH  13  19
ENDBRANCH   2   4
ENDBRANCH   1   2
BRANCH   1  22
HETATM   22  C4  UNL     1      -4.569  35.680  33.019  1.00  0.00     0.022 C 
BRANCH  22  23
HETATM   23  C5  UNL     1      -4.848  34.725  31.890  1.00  0.00     0.131 C 
BRANCH  23  24
HETATM   24  N1  UNL     1      -5.589  35.279  30.796  1.00  0.00    -0.327 N 
HETATM   25  C6  UNL     1      -6.850  34.952  30.387  1.00  0.00     0.185 A 
HETATM   26  N2  UNL     1      -7.210  35.663  29.313  1.00  0.00    -0.346 N 
HETATM   27  C7  UNL     1      -6.192  36.473  28.995  1.00  0.00     0.123 A 
ATOM     28  H2  UNL     1      -8.103  35.599  28.823  1.00  0.00     0.167 HD
HETATM   29  C8  UNL     1      -6.071  37.401  27.978  1.00  0.00     0.145 A 
HETATM   30  C10 UNL     1      -5.186  36.226  29.926  1.00  0.00     0.155 A 
HETATM   31  N4  UNL     1      -4.913  38.081  27.916  1.00  0.00    -0.175 N 
HETATM   32  C9  UNL     1      -3.922  37.849  28.821  1.00  0.00     0.679 A 
ATOM     33  H4  UNL     1      -4.775  38.777  27.184  1.00  0.00     0.186 HD
HETATM   34  N6  UNL     1      -4.047  36.945  29.807  1.00  0.00    -0.174 N 
ATOM     35  H6  UNL     1      -3.282  36.801  30.466  1.00  0.00     0.186 HD
BRANCH  29  36
HETATM   36  N3  UNL     1      -7.014  37.616  27.125  1.00  0.00    -0.383 N 
ATOM     37  H32 UNL     1      -7.664  38.393  27.244  1.00  0.00     0.157 HD
ATOM     38  H31 UNL     1      -7.150  37.026  26.304  1.00  0.00     0.157 HD
ENDBRANCH  29  36
BRANCH  32  39
HETATM   39  N5  UNL     1      -2.793  38.509  28.765  1.00  0.00    -0.234 N 
ATOM     40  H52 UNL     1      -1.937  37.968  28.891  1.00  0.00     0.174 HD
ATOM     41  H51 UNL     1      -2.782  39.516  28.603  1.00  0.00     0.174 HD
ENDBRANCH  32  39
ENDBRANCH  23  24
ENDBRANCH  22  23
ENDBRANCH   1  22
TORSDOF 8
ENDMDL
MODEL 5
REMARK VINA RESULT: -8.127432362      1.903      2.886
REMARK  8 active torsions:
REMARK  status: ('A' for Active; 'I' for Inactive)
REMARK    1  A    between atoms: C2_2  and  C3_3 
REMARK    2  A    between atoms: C2_2  and  N7_24 
REMARK    3  A    between atoms: C3_3  and  C4_4 
REMARK    4  A    between atoms: C4_4  and  C5_5 
REMARK    5  A    between atoms: C5_5  and  N1_6 
REMARK    6  A    between atoms: C8_11  and  N3_12 
REMARK    7  A    between atoms: C9_17  and  N5_18 
REMARK       I    between atoms: N12_34  and  C13_35 
REMARK    8  A    between atoms: C14_38  and  N14_39 
ROOT
HETATM    1  C3  UNL     1      -9.520  36.576  31.812  1.00  0.00     0.028 C 
ENDROOT
BRANCH   1   2
HETATM    2  C2  UNL     1      -8.289  35.896  32.317  1.00  0.00     0.107 C 
HETATM    3  C1  UNL     1      -8.277  34.413  31.989  1.00  0.00     0.034 C 
BRANCH   2   4
HETATM    4  N7  UNL     1      -7.089  36.545  31.793  1.00  0.00    -0.256 N 
HETATM    5  N8  UNL     1      -6.654  36.278  30.570  1.00  0.00    -0.237 N 
HETATM    6  N9  UNL     1      -5.587  36.813  30.018  1.00  0.00    -0.267 N 
ATOM      7  H8  UNL     1      -7.186  35.608  30.016  1.00  0.00     0.208 HD
HETATM    8  C11 UNL     1      -4.835  37.703  30.681  1.00  0.00     0.177 A 
ATOM      9  H9  UNL     1      -5.327  36.546  29.068  1.00  0.00     0.190 HD
HETATM   10  C12 UNL     1      -5.240  38.018  31.956  1.00  0.00     0.138 A 
HETATM   11  N12 UNL     1      -3.715  38.401  30.381  1.00  0.00    -0.172 N 
HETATM   12  N10 UNL     1      -4.342  38.913  32.405  1.00  0.00    -0.276 N 
HETATM   13  C14 UNL     1      -6.387  37.427  32.519  1.00  0.00     0.149 A 
HETATM   14  N11 UNL     1      -3.430  39.133  31.445  1.00  0.00    -0.009 NA
ATOM     15  H10 UNL     1      -4.352  39.354  33.326  1.00  0.00     0.184 HD
HETATM   16  C13 UNL     1      -2.983  38.350  29.140  1.00  0.00     0.354 C 
HETATM   17  N13 UNL     1      -1.833  39.144  28.993  1.00  0.00    -0.038 NA
HETATM   18  O1  UNL     1      -3.407  37.588  28.232  1.00  0.00    -0.249 OA
BRANCH  13  19
HETATM   19  N14 UNL     1      -6.705  37.762  33.700  1.00  0.00    -0.382 N 
ATOM     20 2H14 UNL     1      -7.317  38.570  33.817  1.00  0.00     0.157 HD
ATOM     21 1H14 UNL     1      -6.378  37.264  34.529  1.00  0.00     0.157 HD
ENDBRANCH  13  19
ENDBRANCH   2   4
ENDBRANCH   1   2
BRANCH   1  22
HETATM   22  C4  UNL     1     -10.622  36.650  32.815  1.00  0.00     0.022 C 
BRANCH  22  23
HETATM   23  C5  UNL     1     -11.425  37.916  32.683  1.00  0.00     0.131 C 
BRANCH  23  24
HETATM   24  N1  UNL     1     -11.322  38.818  33.791  1.00  0.00    -0.327 N 
HETATM   25  C6  UNL     1     -12.194  38.974  34.830  1.00  0.00     0.185 A 
HETATM   26  N2  UNL     1     -11.781  39.929  35.670  1.00  0.00    -0.346 N 
HETATM   27  C7  UNL     1     -10.626  40.420  35.200  1.00  0.00     0.123 A 
ATOM     28  H2  UNL     1     -12.260  40.230  36.519  1.00  0.00     0.167 HD
HETATM   29  C8  UNL     1      -9.804  41.410  35.703  1.00  0.00     0.145 A 
HETATM   30  C10 UNL     1     -10.349  39.721  34.028  1.00  0.00     0.155 A 
HETATM   31  N4  UNL     1      -8.690  41.683  35.003  1.00  0.00    -0.175 N 
HETATM   32  C9  UNL     1      -8.407  41.006  33.856  1.00  0.00     0.679 A 
ATOM     33  H4  UNL     1      -8.050  42.404  35.334  1.00  0.00     0.186 HD
HETATM   34  N6  UNL     1      -9.211  40.045  33.373  1.00  0.00    -0.174 N 
ATOM     35  H6  UNL     1      -8.964  39.559  32.511  1.00  0.00     0.186 HD
BRANCH  29  36
HETATM   36  N3  UNL     1     -10.078  42.047  36.790  1.00  0.00    -0.383 N 
ATOM     37  H32 UNL     1      -9.435  42.037  37.582  1.00  0.00     0.157 HD
ATOM     38  H31 UNL     1     -10.938  42.582  36.906  1.00  0.00     0.157 HD
ENDBRANCH  29  36
BRANCH  32  39
HETATM   39  N5  UNL     1      -7.322  41.268  33.171  1.00  0.00    -0.234 N 
ATOM     40  H52 UNL     1      -6.435  40.980  33.585  1.00  0.00     0.174 HD
ATOM     41  H51 UNL     1      -7.374  41.738  32.267  1.00  0.00     0.174 HD
ENDBRANCH  32  39
ENDBRANCH  23  24
ENDBRANCH  22  23
ENDBRANCH   1  22
TORSDOF 8
ENDMDL
