MODEL 1
REMARK VINA RESULT: -8.649570630      0.000      0.000
REMARK  8 active torsions:
REMARK  status: ('A' for Active; 'I' for Inactive)
REMARK    1  A    between atoms: N4_11  and  C5_12 
REMARK    2  A    between atoms: C5_12  and  N5_13 
REMARK    3  A    between atoms: N5_13  and  C6_16 
REMARK    4  A    between atoms: C6_16  and  O1_17 
REMARK    5  A    between atoms: C6_16  and  C7_19 
REMARK    6  A    between atoms: C7_19  and  N6_20 
REMARK    7  A    between atoms: C8_27  and  N10_28 
REMARK       I    between atoms: N10_28  and  C9_30 
REMARK    8  A    between atoms: C13_39  and  N14_40 
ROOT
HETATM    1  C1  UNL     1      -9.443  31.764  31.617  1.00  0.00     0.090 C 
HETATM    2  C2  UNL     1      -8.272  32.649  31.486  1.00  0.00     0.093 A 
HETATM    3  N1  UNL     1      -7.086  32.359  30.969  1.00  0.00    -0.288 N 
ATOM      4  H1  UNL     1      -6.809  31.460  30.577  1.00  0.00     0.188 HD
HETATM    5  N2  UNL     1      -6.311  33.456  31.050  1.00  0.00    -0.282 N 
ATOM      6  H2  UNL     1      -5.346  33.513  30.725  1.00  0.00     0.188 HD
HETATM    7  C3  UNL     1      -6.984  34.457  31.615  1.00  0.00     0.152 A 
HETATM    8  C4  UNL     1      -6.637  35.819  31.934  1.00  0.00     0.121 A 
HETATM    9  N3  UNL     1      -7.553  36.644  32.530  1.00  0.00    -0.292 N 
ATOM     10  H3  UNL     1      -8.471  36.247  32.730  1.00  0.00     0.187 HD
HETATM   11  N4  UNL     1      -7.362  37.872  32.861  1.00  0.00    -0.276 N 
HETATM   12  C10 UNL     1      -6.189  38.461  32.633  1.00  0.00     0.137 A 
HETATM   13  C11 UNL     1      -5.196  37.721  32.036  1.00  0.00     0.090 A 
HETATM   14  C12 UNL     1      -3.909  38.298  31.765  1.00  0.00     0.103 C 
HETATM   15  N13 UNL     1      -2.864  38.766  31.537  1.00  0.00    -0.191 NA
HETATM   16  C13 UNL     1      -5.411  36.369  31.674  1.00  0.00     0.080 A 
HETATM   17  N15 UNL     1      -8.212  33.925  31.881  1.00  0.00    -0.328 N 
ATOM     18  H15 UNL     1      -8.980  34.432  32.320  1.00  0.00     0.169 HD
ENDROOT
BRANCH  16  19
HETATM   19  N14 UNL     1      -4.493  35.755  31.146  1.00  0.00    -0.396 N 
ATOM     20 2H14 UNL     1      -3.637  35.607  31.681  1.00  0.00     0.156 HD
ATOM     21 1H14 UNL     1      -4.538  35.383  30.198  1.00  0.00     0.156 HD
ENDBRANCH  16  19
BRANCH  11  22
HETATM   22  C5  UNL     1      -8.458  38.604  33.493  1.00  0.00     0.382 C 
BRANCH  22  23
HETATM   23  N5  UNL     1      -7.958  39.937  33.767  1.00  0.00    -0.030 N 
ATOM     24  H52 UNL     1      -7.306  39.928  34.551  1.00  0.00     0.282 HD
ATOM     25  H51 UNL     1      -7.326  40.248  33.030  1.00  0.00     0.282 HD
BRANCH  23  26
HETATM   26  C6  UNL     1      -9.016  40.900  33.984  1.00  0.00     0.341 C 
BRANCH  26  27
HETATM   27  O1  UNL     1      -8.547  41.929  34.818  1.00  0.00    -0.368 OA
ATOM     28  H1  UNL     1      -9.179  42.637  34.831  1.00  0.00     0.212 HD
ENDBRANCH  26  27
BRANCH  26  29
HETATM   29  C7  UNL     1     -10.190  40.286  34.706  1.00  0.00     0.230 C 
BRANCH  29  30
HETATM   30  N6  UNL     1     -11.196  41.318  34.851  1.00  0.00    -0.102 N 
HETATM   31  N7  UNL     1     -11.619  42.076  33.861  1.00  0.00    -0.211 N 
HETATM   32  N8  UNL     1     -12.518  42.878  34.374  1.00  0.00    -0.213 N 
ATOM     33  H7  UNL     1     -11.308  42.045  32.889  1.00  0.00     0.210 HD
HETATM   34  N9  UNL     1     -12.674  42.645  35.668  1.00  0.00    -0.115 N 
ATOM     35  H8  UNL     1     -13.029  43.587  33.849  1.00  0.00     0.210 HD
HETATM   36  C8  UNL     1     -11.824  41.636  35.989  1.00  0.00     0.718 A 
ATOM     37  H9  UNL     1     -13.310  43.129  36.301  1.00  0.00     0.207 HD
BRANCH  36  38
HETATM   38  N10 UNL     1     -11.645  41.090  37.140  1.00  0.00    -0.161 N 
HETATM   39  C9  UNL     1     -12.727  40.705  37.954  1.00  0.00     0.200 C 
HETATM   40  N11 UNL     1     -12.581  39.658  38.718  1.00  0.00    -0.373 N 
HETATM   41  N12 UNL     1     -13.953  41.417  37.964  1.00  0.00    -0.063 NA
ATOM     42 2H11 UNL     1     -11.699  39.146  38.712  1.00  0.00     0.158 HD
ATOM     43 1H11 UNL     1     -13.365  39.379  39.308  1.00  0.00     0.158 HD
ATOM     44  H10 UNL     1     -10.694  40.932  37.473  1.00  0.00     0.187 HD
ENDBRANCH  36  38
ENDBRANCH  29  30
ENDBRANCH  26  29
ENDBRANCH  23  26
ENDBRANCH  22  23
ENDBRANCH  11  22
TORSDOF 8
ENDMDL
MODEL 2
REMARK VINA RESULT: -8.570688469      2.204      4.295
REMARK  8 active torsions:
REMARK  status: ('A' for Active; 'I' for Inactive)
REMARK    1  A    between atoms: N4_11  and  C5_12 
REMARK    2  A    between atoms: C5_12  and  N5_13 
REMARK    3  A    between atoms: N5_13  and  C6_16 
REMARK    4  A    between atoms: C6_16  and  O1_17 
REMARK    5  A    between atoms: C6_16  and  C7_19 
REMARK    6  A    between atoms: C7_19  and  N6_20 
REMARK    7  A    between atoms: C8_27  and  N10_28 
REMARK       I    between atoms: N10_28  and  C9_30 
REMARK    8  A    between atoms: C13_39  and  N14_40 
ROOT
HETATM    1  C1  UNL     1      -2.656  39.109  31.020  1.00  0.00     0.090 C 
HETATM    2  C2  UNL     1      -3.784  38.277  31.475  1.00  0.00     0.093 A 
HETATM    3  N1  UNL     1      -3.905  36.959  31.402  1.00  0.00    -0.288 N 
ATOM      4  H1  UNL     1      -3.217  36.316  31.010  1.00  0.00     0.188 HD
HETATM    5  N2  UNL     1      -5.093  36.614  31.933  1.00  0.00    -0.282 N 
ATOM      6  H2  UNL     1      -5.444  35.659  32.005  1.00  0.00     0.188 HD
HETATM    7  C3  UNL     1      -5.744  37.697  32.352  1.00  0.00     0.152 A 
HETATM    8  C4  UNL     1      -7.025  37.892  32.982  1.00  0.00     0.121 A 
HETATM    9  N3  UNL     1      -7.449  39.152  33.310  1.00  0.00    -0.292 N 
ATOM     10  H3  UNL     1      -6.822  39.924  33.086  1.00  0.00     0.187 HD
HETATM   11  N4  UNL     1      -8.567  39.451  33.873  1.00  0.00    -0.276 N 
HETATM   12  C10 UNL     1      -9.440  38.499  34.195  1.00  0.00     0.137 A 
HETATM   13  C11 UNL     1      -9.112  37.194  33.911  1.00  0.00     0.090 A 
HETATM   14  C12 UNL     1     -10.011  36.121  34.232  1.00  0.00     0.103 C 
HETATM   15  N13 UNL     1     -10.737  35.246  34.499  1.00  0.00    -0.191 NA
HETATM   16  C13 UNL     1      -7.882  36.870  33.291  1.00  0.00     0.080 A 
HETATM   17  N15 UNL     1      -4.902  38.729  32.053  1.00  0.00    -0.328 N 
ATOM     18  H15 UNL     1      -5.099  39.711  32.244  1.00  0.00     0.169 HD
ENDROOT
BRANCH  16  19
HETATM   19  N14 UNL     1      -7.639  35.693  33.059  1.00  0.00    -0.396 N 
ATOM     20 2H14 UNL     1      -8.410  35.082  32.787  1.00  0.00     0.156 HD
ATOM     21 1H14 UNL     1      -6.706  35.287  33.123  1.00  0.00     0.156 HD
ENDBRANCH  16  19
BRANCH  11  22
HETATM   22  C5  UNL     1      -8.856  40.858  34.148  1.00  0.00     0.382 C 
BRANCH  22  23
HETATM   23  N5  UNL     1      -9.183  40.942  35.558  1.00  0.00    -0.030 N 
ATOM     24  H52 UNL     1      -9.227  40.013  35.978  1.00  0.00     0.282 HD
ATOM     25  H51 UNL     1      -8.404  41.328  36.091  1.00  0.00     0.282 HD
BRANCH  23  26
HETATM   26  C6  UNL     1     -10.401  41.683  35.808  1.00  0.00     0.341 C 
BRANCH  26  27
HETATM   27  O1  UNL     1     -10.326  42.290  37.072  1.00  0.00    -0.368 OA
ATOM     28  H1  UNL     1     -11.002  42.953  37.145  1.00  0.00     0.212 HD
ENDBRANCH  26  27
BRANCH  26  29
HETATM   29  C7  UNL     1     -11.606  40.777  35.856  1.00  0.00     0.230 C 
BRANCH  29  30
HETATM   30  N6  UNL     1     -12.592  41.414  36.703  1.00  0.00    -0.102 N 
HETATM   31  N7  UNL     1     -13.347  42.423  36.321  1.00  0.00    -0.211 N 
HETATM   32  N8  UNL     1     -14.104  42.721  37.348  1.00  0.00    -0.213 N 
ATOM     33  H7  UNL     1     -13.342  42.882  35.410  1.00  0.00     0.210 HD
HETATM   34  N9  UNL     1     -13.846  41.922  38.371  1.00  0.00    -0.115 N 
ATOM     35  H8  UNL     1     -14.799  43.467  37.358  1.00  0.00     0.210 HD
HETATM   36  C8  UNL     1     -12.869  41.070  37.966  1.00  0.00     0.718 A 
ATOM     37  H9  UNL     1     -14.295  41.942  39.287  1.00  0.00     0.207 HD
BRANCH  36  38
HETATM   38  N10 UNL     1     -12.313  40.127  38.643  1.00  0.00    -0.161 N 
HETATM   39  C9  UNL     1     -12.943  38.884  38.837  1.00  0.00     0.200 C 
HETATM   40  N11 UNL     1     -12.192  37.820  38.922  1.00  0.00    -0.373 N 
HETATM   41  N12 UNL     1     -14.351  38.760  38.941  1.00  0.00    -0.063 NA
ATOM     42 2H11 UNL     1     -11.179  37.909  38.848  1.00  0.00     0.158 HD
ATOM     43 1H11 UNL     1     -12.649  36.919  39.063  1.00  0.00     0.158 HD
ATOM     44  H10 UNL     1     -11.391  40.285  39.050  1.00  0.00     0.187 HD
ENDBRANCH  36  38
ENDBRANCH  29  30
ENDBRANCH  26  29
ENDBRANCH  23  26
ENDBRANCH  22  23
ENDBRANCH  11  22
TORSDOF 8
ENDMDL
MODEL 3
REMARK VINA RESULT: -8.537343096      2.830      8.755
REMARK  8 active torsions:
REMARK  status: ('A' for Active; 'I' for Inactive)
REMARK    1  A    between atoms: N4_11  and  C5_12 
REMARK    2  A    between atoms: C5_12  and  N5_13 
REMARK    3  A    between atoms: N5_13  and  C6_16 
REMARK    4  A    between atoms: C6_16  and  O1_17 
REMARK    5  A    between atoms: C6_16  and  C7_19 
REMARK    6  A    between atoms: C7_19  and  N6_20 
REMARK    7  A    between atoms: C8_27  and  N10_28 
REMARK       I    between atoms: N10_28  and  C9_30 
REMARK    8  A    between atoms: C13_39  and  N14_40 
ROOT
HETATM    1  C1  UNL     1     -11.274  35.434  38.367  1.00  0.00     0.090 C 
HETATM    2  C2  UNL     1     -12.036  36.694  38.444  1.00  0.00     0.093 A 
HETATM    3  N1  UNL     1     -12.923  37.054  39.360  1.00  0.00    -0.288 N 
ATOM      4  H1  UNL     1     -13.213  36.497  40.164  1.00  0.00     0.188 HD
HETATM    5  N2  UNL     1     -13.377  38.282  39.048  1.00  0.00    -0.282 N 
ATOM      6  H2  UNL     1     -14.072  38.801  39.586  1.00  0.00     0.188 HD
HETATM    7  C3  UNL     1     -12.791  38.723  37.936  1.00  0.00     0.152 A 
HETATM    8  C4  UNL     1     -12.908  39.944  37.181  1.00  0.00     0.121 A 
HETATM    9  N3  UNL     1     -12.163  40.129  36.047  1.00  0.00    -0.292 N 
ATOM     10  H3  UNL     1     -11.537  39.371  35.776  1.00  0.00     0.187 HD
HETATM   11  N4  UNL     1     -12.181  41.171  35.292  1.00  0.00    -0.276 N 
HETATM   12  C10 UNL     1     -12.972  42.203  35.579  1.00  0.00     0.137 A 
HETATM   13  C11 UNL     1     -13.764  42.122  36.700  1.00  0.00     0.090 A 
HETATM   14  C12 UNL     1     -14.640  43.200  37.063  1.00  0.00     0.103 C 
HETATM   15  N13 UNL     1     -15.348  44.078  37.365  1.00  0.00    -0.191 NA
HETATM   16  C13 UNL     1     -13.742  40.973  37.527  1.00  0.00     0.080 A 
HETATM   17  N15 UNL     1     -11.953  37.708  37.576  1.00  0.00    -0.328 N 
ATOM     18  H15 UNL     1     -11.347  37.720  36.756  1.00  0.00     0.169 HD
ENDROOT
BRANCH  16  19
HETATM   19  N14 UNL     1     -14.467  40.951  38.513  1.00  0.00    -0.396 N 
ATOM     20 2H14 UNL     1     -14.051  40.728  39.417  1.00  0.00     0.156 HD
ATOM     21 1H14 UNL     1     -15.468  41.145  38.480  1.00  0.00     0.156 HD
ENDBRANCH  16  19
BRANCH  11  22
HETATM   22  C5  UNL     1     -11.315  41.195  34.114  1.00  0.00     0.382 C 
BRANCH  22  23
HETATM   23  N5  UNL     1      -9.977  41.478  34.594  1.00  0.00    -0.030 N 
ATOM     24  H52 UNL     1      -9.844  42.479  34.738  1.00  0.00     0.282 HD
ATOM     25  H51 UNL     1      -9.858  41.156  35.555  1.00  0.00     0.282 HD
BRANCH  23  26
HETATM   26  C6  UNL     1      -8.946  40.936  33.735  1.00  0.00     0.341 C 
BRANCH  26  27
HETATM   27  O1  UNL     1      -8.965  41.609  32.502  1.00  0.00    -0.368 OA
ATOM     28  H1  UNL     1      -9.073  40.978  31.800  1.00  0.00     0.212 HD
ENDBRANCH  26  27
BRANCH  26  29
HETATM   29  C7  UNL     1      -9.193  39.482  33.416  1.00  0.00     0.230 C 
BRANCH  29  30
HETATM   30  N6  UNL     1      -8.222  38.705  34.158  1.00  0.00    -0.102 N 
HETATM   31  N7  UNL     1      -8.259  38.538  35.464  1.00  0.00    -0.211 N 
HETATM   32  N8  UNL     1      -7.229  37.785  35.764  1.00  0.00    -0.213 N 
ATOM     33  H7  UNL     1      -8.950  38.917  36.112  1.00  0.00     0.210 HD
HETATM   34  N9  UNL     1      -6.541  37.473  34.677  1.00  0.00    -0.115 N 
ATOM     35  H8  UNL     1      -6.990  37.481  36.707  1.00  0.00     0.210 HD
HETATM   36  C8  UNL     1      -7.174  38.062  33.630  1.00  0.00     0.718 A 
ATOM     37  H9  UNL     1      -5.699  36.900  34.634  1.00  0.00     0.207 HD
BRANCH  36  38
HETATM   38  N10 UNL     1      -6.848  38.023  32.386  1.00  0.00    -0.161 N 
HETATM   39  C9  UNL     1      -5.556  38.369  31.947  1.00  0.00     0.200 C 
HETATM   40  N11 UNL     1      -5.073  37.749  30.906  1.00  0.00    -0.373 N 
HETATM   41  N12 UNL     1      -4.779  39.359  32.599  1.00  0.00    -0.063 NA
ATOM     42 2H11 UNL     1      -5.632  37.036  30.437  1.00  0.00     0.158 HD
ATOM     43 1H11 UNL     1      -4.137  37.999  30.588  1.00  0.00     0.158 HD
ATOM     44  H10 UNL     1      -7.544  37.733  31.699  1.00  0.00     0.187 HD
ENDBRANCH  36  38
ENDBRANCH  29  30
ENDBRANCH  26  29
ENDBRANCH  23  26
ENDBRANCH  22  23
ENDBRANCH  11  22
TORSDOF 8
ENDMDL
MODEL 4
REMARK VINA RESULT: -8.407494416      2.453      9.271
REMARK  8 active torsions:
REMARK  status: ('A' for Active; 'I' for Inactive)
REMARK    1  A    between atoms: N4_11  and  C5_12 
REMARK    2  A    between atoms: C5_12  and  N5_13 
REMARK    3  A    between atoms: N5_13  and  C6_16 
REMARK    4  A    between atoms: C6_16  and  O1_17 
REMARK    5  A    between atoms: C6_16  and  C7_19 
REMARK    6  A    between atoms: C7_19  and  N6_20 
REMARK    7  A    between atoms: C8_27  and  N10_28 
REMARK       I    between atoms: N10_28  and  C9_30 
REMARK    8  A    between atoms: C13_39  and  N14_40 
ROOT
HETATM    1  C1  UNL     1     -11.929  42.151  38.633  1.00  0.00     0.090 C 
HETATM    2  C2  UNL     1     -12.166  42.230  37.181  1.00  0.00     0.093 A 
HETATM    3  N1  UNL     1     -12.944  43.081  36.527  1.00  0.00    -0.288 N 
ATOM      4  H1  UNL     1     -13.503  43.823  36.947  1.00  0.00     0.188 HD
HETATM    5  N2  UNL     1     -12.869  42.798  35.214  1.00  0.00    -0.282 N 
ATOM      6  H2  UNL     1     -13.370  43.300  34.480  1.00  0.00     0.188 HD
HETATM    7  C3  UNL     1     -12.048  41.770  35.008  1.00  0.00     0.152 A 
HETATM    8  C4  UNL     1     -11.620  41.076  33.820  1.00  0.00     0.121 A 
HETATM    9  N3  UNL     1     -10.746  40.026  33.911  1.00  0.00    -0.292 N 
ATOM     10  H3  UNL     1     -10.426  39.770  34.845  1.00  0.00     0.187 HD
HETATM   11  N4  UNL     1     -10.293  39.332  32.926  1.00  0.00    -0.276 N 
HETATM   12  C10 UNL     1     -10.664  39.604  31.677  1.00  0.00     0.137 A 
HETATM   13  C11 UNL     1     -11.541  40.643  31.473  1.00  0.00     0.090 A 
HETATM   14  C12 UNL     1     -11.981  40.986  30.149  1.00  0.00     0.103 C 
HETATM   15  N13 UNL     1     -12.336  41.272  29.074  1.00  0.00    -0.191 NA
HETATM   16  C13 UNL     1     -12.038  41.404  32.558  1.00  0.00     0.080 A 
HETATM   17  N15 UNL     1     -11.620  41.430  36.258  1.00  0.00    -0.328 N 
ATOM     18  H15 UNL     1     -10.971  40.670  36.462  1.00  0.00     0.169 HD
ENDROOT
BRANCH  16  19
HETATM   19  N14 UNL     1     -12.816  42.318  32.321  1.00  0.00    -0.396 N 
ATOM     20 2H14 UNL     1     -13.793  42.207  32.594  1.00  0.00     0.156 HD
ATOM     21 1H14 UNL     1     -12.541  43.187  31.865  1.00  0.00     0.156 HD
ENDBRANCH  16  19
BRANCH  11  22
HETATM   22  C5  UNL     1      -9.364  38.239  33.212  1.00  0.00     0.382 C 
BRANCH  22  23
HETATM   23  N5  UNL     1      -8.130  38.856  33.657  1.00  0.00    -0.030 N 
ATOM     24  H52 UNL     1      -8.043  39.805  33.294  1.00  0.00     0.282 HD
ATOM     25  H51 UNL     1      -8.165  39.064  34.656  1.00  0.00     0.282 HD
BRANCH  23  26
HETATM   26  C6  UNL     1      -6.960  38.067  33.334  1.00  0.00     0.341 C 
BRANCH  26  27
HETATM   27  O1  UNL     1      -5.885  38.925  33.046  1.00  0.00    -0.368 OA
ATOM     28  H1  UNL     1      -5.068  38.448  33.136  1.00  0.00     0.212 HD
ENDBRANCH  26  27
BRANCH  26  29
HETATM   29  C7  UNL     1      -7.171  37.239  32.091  1.00  0.00     0.230 C 
BRANCH  29  30
HETATM   30  N6  UNL     1      -6.075  36.297  32.007  1.00  0.00    -0.102 N 
HETATM   31  N7  UNL     1      -5.727  35.485  32.984  1.00  0.00    -0.211 N 
HETATM   32  N8  UNL     1      -4.706  34.796  32.538  1.00  0.00    -0.213 N 
ATOM     33  H7  UNL     1      -6.165  35.408  33.902  1.00  0.00     0.210 HD
HETATM   34  N9  UNL     1      -4.399  35.154  31.302  1.00  0.00    -0.115 N 
ATOM     35  H8  UNL     1      -4.213  34.080  33.072  1.00  0.00     0.210 HD
HETATM   36  C8  UNL     1      -5.278  36.126  30.946  1.00  0.00     0.718 A 
ATOM     37  H9  UNL     1      -3.647  34.774  30.727  1.00  0.00     0.207 HD
BRANCH  36  38
HETATM   38  N10 UNL     1      -5.345  36.760  29.828  1.00  0.00    -0.161 N 
HETATM   39  C9  UNL     1      -4.573  37.910  29.580  1.00  0.00     0.200 C 
HETATM   40  N11 UNL     1      -4.170  38.130  28.360  1.00  0.00    -0.373 N 
HETATM   41  N12 UNL     1      -4.227  38.821  30.610  1.00  0.00    -0.063 NA
ATOM     42 2H11 UNL     1      -4.418  37.474  27.619  1.00  0.00     0.158 HD
ATOM     43 1H11 UNL     1      -3.610  38.963  28.180  1.00  0.00     0.158 HD
ATOM     44  H10 UNL     1      -5.975  36.420  29.101  1.00  0.00     0.187 HD
ENDBRANCH  36  38
ENDBRANCH  29  30
ENDBRANCH  26  29
ENDBRANCH  23  26
ENDBRANCH  22  23
ENDBRANCH  11  22
TORSDOF 8
ENDMDL
MODEL 5
REMARK VINA RESULT: -8.392499325      2.010      4.154
REMARK  8 active torsions:
REMARK  status: ('A' for Active; 'I' for Inactive)
REMARK    1  A    between atoms: N4_11  and  C5_12 
REMARK    2  A    between atoms: C5_12  and  N5_13 
REMARK    3  A    between atoms: N5_13  and  C6_16 
REMARK    4  A    between atoms: C6_16  and  O1_17 
REMARK    5  A    between atoms: C6_16  and  C7_19 
REMARK    6  A    between atoms: C7_19  and  N6_20 
REMARK    7  A    between atoms: C8_27  and  N10_28 
REMARK       I    between atoms: N10_28  and  C9_30 
REMARK    8  A    between atoms: C13_39  and  N14_40 
ROOT
HETATM    1  C1  UNL     1      -2.954  38.789  30.795  1.00  0.00     0.090 C 
HETATM    2  C2  UNL     1      -4.066  37.898  31.174  1.00  0.00     0.093 A 
HETATM    3  N1  UNL     1      -4.083  36.573  31.179  1.00  0.00    -0.288 N 
ATOM      4  H1  UNL     1      -3.308  35.964  30.914  1.00  0.00     0.188 HD
HETATM    5  N2  UNL     1      -5.297  36.167  31.593  1.00  0.00    -0.282 N 
ATOM      6  H2  UNL     1      -5.585  35.193  31.690  1.00  0.00     0.188 HD
HETATM    7  C3  UNL     1      -6.070  37.219  31.859  1.00  0.00     0.152 A 
HETATM    8  C4  UNL     1      -7.428  37.349  32.323  1.00  0.00     0.121 A 
HETATM    9  N3  UNL     1      -7.977  38.588  32.512  1.00  0.00    -0.292 N 
ATOM     10  H3  UNL     1      -7.384  39.393  32.309  1.00  0.00     0.187 HD
HETATM   11  N4  UNL     1      -9.173  38.831  32.921  1.00  0.00    -0.276 N 
HETATM   12  C10 UNL     1     -10.007  37.834  33.207  1.00  0.00     0.137 A 
HETATM   13  C11 UNL     1      -9.555  36.545  33.052  1.00  0.00     0.090 A 
HETATM   14  C12 UNL     1     -10.407  35.425  33.342  1.00  0.00     0.103 C 
HETATM   15  N13 UNL     1     -11.094  34.513  33.584  1.00  0.00    -0.191 NA
HETATM   16  C13 UNL     1      -8.239  36.282  32.601  1.00  0.00     0.080 A 
HETATM   17  N15 UNL     1      -5.274  38.294  31.588  1.00  0.00    -0.328 N 
ATOM     18  H15 UNL     1      -5.562  39.267  31.687  1.00  0.00     0.169 HD
ENDROOT
BRANCH  16  19
HETATM   19  N14 UNL     1      -7.887  35.116  32.480  1.00  0.00    -0.396 N 
ATOM     20 2H14 UNL     1      -8.561  34.440  32.122  1.00  0.00     0.156 HD
ATOM     21 1H14 UNL     1      -6.953  34.783  32.720  1.00  0.00     0.156 HD
ENDBRANCH  16  19
BRANCH  11  22
HETATM   22  C5  UNL     1      -9.593  40.225  33.064  1.00  0.00     0.382 C 
BRANCH  22  23
HETATM   23  N5  UNL     1      -8.676  40.835  34.006  1.00  0.00    -0.030 N 
ATOM     24  H52 UNL     1      -7.932  40.187  34.264  1.00  0.00     0.282 HD
ATOM     25  H51 UNL     1      -8.115  41.558  33.554  1.00  0.00     0.282 HD
BRANCH  23  26
HETATM   26  C6  UNL     1      -9.342  41.355  35.180  1.00  0.00     0.341 C 
BRANCH  26  27
HETATM   27  O1  UNL     1      -8.631  40.970  36.329  1.00  0.00    -0.368 OA
ATOM     28  H1  UNL     1      -8.970  41.438  37.083  1.00  0.00     0.212 HD
ENDBRANCH  26  27
BRANCH  26  29
HETATM   29  C7  UNL     1     -10.727  40.778  35.339  1.00  0.00     0.230 C 
BRANCH  29  30
HETATM   30  N6  UNL     1     -11.274  41.298  36.574  1.00  0.00    -0.102 N 
HETATM   31  N7  UNL     1     -10.935  42.458  37.097  1.00  0.00    -0.211 N 
HETATM   32  N8  UNL     1     -11.632  42.578  38.200  1.00  0.00    -0.213 N 
ATOM     33  H7  UNL     1     -10.265  43.129  36.720  1.00  0.00     0.210 HD
HETATM   34  N9  UNL     1     -12.404  41.519  38.387  1.00  0.00    -0.115 N 
ATOM     35  H8  UNL     1     -11.586  43.379  38.830  1.00  0.00     0.210 HD
HETATM   36  C8  UNL     1     -12.182  40.683  37.341  1.00  0.00     0.718 A 
ATOM     37  H9  UNL     1     -13.043  41.362  39.166  1.00  0.00     0.207 HD
BRANCH  36  38
HETATM   38  N10 UNL     1     -12.721  39.535  37.118  1.00  0.00    -0.161 N 
HETATM   39  C9  UNL     1     -13.247  38.749  38.160  1.00  0.00     0.200 C 
HETATM   40  N11 UNL     1     -14.280  37.997  37.902  1.00  0.00    -0.373 N 
HETATM   41  N12 UNL     1     -12.689  38.754  39.464  1.00  0.00    -0.063 NA
ATOM     42 2H11 UNL     1     -14.682  37.993  36.965  1.00  0.00     0.158 HD
ATOM     43 1H11 UNL     1     -14.662  37.427  38.657  1.00  0.00     0.158 HD
ATOM     44  H10 UNL     1     -12.768  39.186  36.161  1.00  0.00     0.187 HD
ENDBRANCH  36  38
ENDBRANCH  29  30
ENDBRANCH  26  29
ENDBRANCH  23  26
ENDBRANCH  22  23
ENDBRANCH  11  22
TORSDOF 8
ENDMDL
