MODEL 1
REMARK VINA RESULT: -6.771650648      0.000      0.000
REMARK  10 active torsions:
REMARK  status: ('A' for Active; 'I' for Inactive)
REMARK    1  A    between atoms: C2_2  and  N1_3 
REMARK    2  A    between atoms: N1_3  and  C3_6 
REMARK    3  A    between atoms: C3_6  and  C4_7 
REMARK    4  A    between atoms: C4_7  and  O1_8 
REMARK    5  A    between atoms: O1_8  and  C5_9 
REMARK    6  A    between atoms: C5_9  and  C6_10 
REMARK    7  A    between atoms: C6_10  and  C7_11 
REMARK    8  A    between atoms: C7_11  and  N2_12 
REMARK    9  A    between atoms: N2_12  and  C8_14 
REMARK   10  A    between atoms: C10_20  and  N5_21 
ROOT
HETATM    1  C8  UNL     1      28.973  11.390  24.004  1.00  0.00     0.680 A 
HETATM    2  N3  UNL     1      29.460  12.604  23.628  1.00  0.00    -0.174 N 
ATOM      3  H3  UNL     1      30.376  12.768  23.209  1.00  0.00     0.186 HD
HETATM    4  C9  UNL     1      28.544  13.552  23.894  1.00  0.00     0.167 A 
HETATM    5  N4  UNL     1      28.515  14.902  23.723  1.00  0.00    -0.174 N 
ATOM      6  H4  UNL     1      29.316  15.379  23.312  1.00  0.00     0.186 HD
HETATM    7  C10 UNL     1      27.433  15.610  24.095  1.00  0.00     0.679 A 
HETATM    8  N6  UNL     1      26.372  14.989  24.640  1.00  0.00    -0.175 N 
ATOM      9  H6  UNL     1      25.569  15.556  24.913  1.00  0.00     0.186 HD
HETATM   10  C11 UNL     1      26.313  13.662  24.845  1.00  0.00     0.146 A 
HETATM   11  N7  UNL     1      25.334  13.030  25.354  1.00  0.00    -0.383 N 
ATOM     12  H71 UNL     1      25.289  12.023  25.510  1.00  0.00     0.157 HD
ATOM     13  H72 UNL     1      24.512  13.562  25.639  1.00  0.00     0.157 HD
HETATM   14  C12 UNL     1      27.441  12.931  24.455  1.00  0.00     0.138 A 
HETATM   15  N8  UNL     1      27.745  11.624  24.502  1.00  0.00    -0.184 N 
ATOM     16  H8  UNL     1      27.125  10.902  24.868  1.00  0.00     0.184 HD
ENDROOT
BRANCH   1  17
HETATM   17  N2  UNL     1      29.595  10.267  23.888  1.00  0.00    -0.226 N 
ATOM     18  H2  UNL     1      29.046   9.413  23.794  1.00  0.00     0.177 HD
BRANCH  17  19
HETATM   19  C7  UNL     1      31.014  10.166  23.883  1.00  0.00     0.140 C 
BRANCH  19  20
HETATM   20  C6  UNL     1      31.596   9.639  25.190  1.00  0.00     0.046 C 
BRANCH  20  21
HETATM   21  C5  UNL     1      32.768  10.476  25.599  1.00  0.00     0.169 C 
BRANCH  21  22
HETATM   22  O1  UNL     1      33.585   9.889  26.541  1.00  0.00    -0.389 OA
BRANCH  22  23
HETATM   23  C4  UNL     1      33.879   8.558  26.277  1.00  0.00     0.195 C 
BRANCH  23  24
HETATM   24  C3  UNL     1      34.704   8.064  27.456  1.00  0.00     0.258 C 
BRANCH  24  25
HETATM   25  N1  UNL     1      35.941   7.567  26.937  1.00  0.00    -0.073 N 
ATOM     26  H12 UNL     1      36.695   8.237  27.086  1.00  0.00     0.277 HD
ATOM     27  H11 UNL     1      35.930   7.553  25.917  1.00  0.00     0.277 HD
BRANCH  25  28
HETATM   28  C2  UNL     1      36.296   6.267  27.466  1.00  0.00     0.228 C 
HETATM   29  C1  UNL     1      35.253   5.223  27.246  1.00  0.00     0.034 C 
ENDBRANCH  25  28
ENDBRANCH  24  25
ENDBRANCH  23  24
ENDBRANCH  22  23
ENDBRANCH  21  22
ENDBRANCH  20  21
ENDBRANCH  19  20
ENDBRANCH  17  19
ENDBRANCH   1  17
BRANCH   7  30
HETATM   30  N5  UNL     1      27.411  16.910  23.930  1.00  0.00    -0.234 N 
ATOM     31  H52 UNL     1      27.075  17.302  23.050  1.00  0.00     0.174 HD
ATOM     32  H51 UNL     1      27.726  17.526  24.680  1.00  0.00     0.174 HD
ENDBRANCH   7  30
TORSDOF 10
ENDMDL
MODEL 2
REMARK VINA RESULT: -6.299908554      1.345      2.339
REMARK  10 active torsions:
REMARK  status: ('A' for Active; 'I' for Inactive)
REMARK    1  A    between atoms: C2_2  and  N1_3 
REMARK    2  A    between atoms: N1_3  and  C3_6 
REMARK    3  A    between atoms: C3_6  and  C4_7 
REMARK    4  A    between atoms: C4_7  and  O1_8 
REMARK    5  A    between atoms: O1_8  and  C5_9 
REMARK    6  A    between atoms: C5_9  and  C6_10 
REMARK    7  A    between atoms: C6_10  and  C7_11 
REMARK    8  A    between atoms: C7_11  and  N2_12 
REMARK    9  A    between atoms: N2_12  and  C8_14 
REMARK   10  A    between atoms: C10_20  and  N5_21 
ROOT
HETATM    1  C8  UNL     1      29.360  10.395  25.041  1.00  0.00     0.680 A 
HETATM    2  N3  UNL     1      28.062  10.427  25.451  1.00  0.00    -0.174 N 
ATOM      3  H3  UNL     1      27.579   9.675  25.944  1.00  0.00     0.186 HD
HETATM    4  C9  UNL     1      27.517  11.607  25.103  1.00  0.00     0.167 A 
HETATM    5  N4  UNL     1      26.279  12.152  25.263  1.00  0.00    -0.174 N 
ATOM      6  H4  UNL     1      25.549  11.622  25.738  1.00  0.00     0.186 HD
HETATM    7  C10 UNL     1      26.016  13.386  24.798  1.00  0.00     0.679 A 
HETATM    8  N6  UNL     1      26.972  14.091  24.169  1.00  0.00    -0.175 N 
ATOM      9  H6  UNL     1      26.738  15.023  23.827  1.00  0.00     0.186 HD
HETATM   10  C11 UNL     1      28.220  13.634  23.967  1.00  0.00     0.146 A 
HETATM   11  N7  UNL     1      29.157  14.262  23.381  1.00  0.00    -0.383 N 
ATOM     12  H71 UNL     1      30.104  13.915  23.228  1.00  0.00     0.157 HD
ATOM     13  H72 UNL     1      28.962  15.198  23.026  1.00  0.00     0.157 HD
HETATM   14  C12 UNL     1      28.488  12.349  24.454  1.00  0.00     0.138 A 
HETATM   15  N8  UNL     1      29.586  11.577  24.441  1.00  0.00    -0.184 N 
ATOM     16  H8  UNL     1      30.478  11.851  24.028  1.00  0.00     0.184 HD
ENDROOT
BRANCH   1  17
HETATM   17  N2  UNL     1      30.172   9.410  25.216  1.00  0.00    -0.226 N 
ATOM     18  H2  UNL     1      29.822   8.564  25.665  1.00  0.00     0.177 HD
BRANCH  17  19
HETATM   19  C7  UNL     1      31.535   9.449  24.810  1.00  0.00     0.140 C 
BRANCH  19  20
HETATM   20  C6  UNL     1      32.460  10.108  25.828  1.00  0.00     0.046 C 
BRANCH  20  21
HETATM   21  C5  UNL     1      33.726   9.321  25.949  1.00  0.00     0.169 C 
BRANCH  21  22
HETATM   22  O1  UNL     1      34.090   9.023  27.245  1.00  0.00    -0.389 OA
BRANCH  22  23
HETATM   23  C4  UNL     1      34.843   7.864  27.364  1.00  0.00     0.195 C 
BRANCH  23  24
HETATM   24  C3  UNL     1      33.849   6.713  27.388  1.00  0.00     0.258 C 
BRANCH  24  25
HETATM   25  N1  UNL     1      34.536   5.560  27.884  1.00  0.00    -0.073 N 
ATOM     26  H12 UNL     1      34.033   4.705  27.646  1.00  0.00     0.277 HD
ATOM     27  H11 UNL     1      34.477   5.511  28.902  1.00  0.00     0.277 HD
BRANCH  25  28
HETATM   28  C2  UNL     1      35.913   5.488  27.444  1.00  0.00     0.228 C 
HETATM   29  C1  UNL     1      36.825   4.827  28.422  1.00  0.00     0.034 C 
ENDBRANCH  25  28
ENDBRANCH  24  25
ENDBRANCH  23  24
ENDBRANCH  22  23
ENDBRANCH  21  22
ENDBRANCH  20  21
ENDBRANCH  19  20
ENDBRANCH  17  19
ENDBRANCH   1  17
BRANCH   7  30
HETATM   30  N5  UNL     1      24.821  13.905  24.953  1.00  0.00    -0.234 N 
ATOM     31  H52 UNL     1      24.528  14.683  24.364  1.00  0.00     0.174 HD
ATOM     32  H51 UNL     1      24.189  13.529  25.661  1.00  0.00     0.174 HD
ENDBRANCH   7  30
TORSDOF 10
ENDMDL
MODEL 3
REMARK VINA RESULT: -6.243898526      1.227      1.789
REMARK  10 active torsions:
REMARK  status: ('A' for Active; 'I' for Inactive)
REMARK    1  A    between atoms: C2_2  and  N1_3 
REMARK    2  A    between atoms: N1_3  and  C3_6 
REMARK    3  A    between atoms: C3_6  and  C4_7 
REMARK    4  A    between atoms: C4_7  and  O1_8 
REMARK    5  A    between atoms: O1_8  and  C5_9 
REMARK    6  A    between atoms: C5_9  and  C6_10 
REMARK    7  A    between atoms: C6_10  and  C7_11 
REMARK    8  A    between atoms: C7_11  and  N2_12 
REMARK    9  A    between atoms: N2_12  and  C8_14 
REMARK   10  A    between atoms: C10_20  and  N5_21 
ROOT
HETATM    1  C8  UNL     1      28.269  11.450  24.699  1.00  0.00     0.680 A 
HETATM    2  N3  UNL     1      29.027  12.493  24.263  1.00  0.00    -0.174 N 
ATOM      3  H3  UNL     1      30.015  12.441  24.012  1.00  0.00     0.186 HD
HETATM    4  C9  UNL     1      28.268  13.603  24.213  1.00  0.00     0.167 A 
HETATM    5  N4  UNL     1      28.516  14.893  23.858  1.00  0.00    -0.174 N 
ATOM      6  H4  UNL     1      29.449  15.165  23.550  1.00  0.00     0.186 HD
HETATM    7  C10 UNL     1      27.536  15.812  23.912  1.00  0.00     0.679 A 
HETATM    8  N6  UNL     1      26.302  15.464  24.319  1.00  0.00    -0.175 N 
ATOM      9  H6  UNL     1      25.583  16.186  24.350  1.00  0.00     0.186 HD
HETATM   10  C11 UNL     1      25.967  14.215  24.688  1.00  0.00     0.146 A 
HETATM   11  N7  UNL     1      24.818  13.837  25.077  1.00  0.00    -0.383 N 
ATOM     12  H71 UNL     1      24.564  12.890  25.357  1.00  0.00     0.157 HD
ATOM     13  H72 UNL     1      24.071  14.531  25.121  1.00  0.00     0.157 HD
HETATM   14  C12 UNL     1      26.992  13.263  24.629  1.00  0.00     0.138 A 
HETATM   15  N8  UNL     1      27.039  11.952  24.911  1.00  0.00    -0.184 N 
ATOM     16  H8  UNL     1      26.245  11.406  25.244  1.00  0.00     0.184 HD
ENDROOT
BRANCH   1  17
HETATM   17  N2  UNL     1      28.686  10.241  24.860  1.00  0.00    -0.226 N 
ATOM     18  H2  UNL     1      28.947   9.937  25.798  1.00  0.00     0.177 HD
BRANCH  17  19
HETATM   19  C7  UNL     1      28.799   9.312  23.789  1.00  0.00     0.140 C 
BRANCH  19  20
HETATM   20  C6  UNL     1      30.184   8.686  23.662  1.00  0.00     0.046 C 
BRANCH  20  21
HETATM   21  C5  UNL     1      31.182   9.733  23.275  1.00  0.00     0.169 C 
BRANCH  21  22
HETATM   22  O1  UNL     1      31.701  10.444  24.336  1.00  0.00    -0.389 OA
BRANCH  22  23
HETATM   23  C4  UNL     1      31.943   9.672  25.464  1.00  0.00     0.195 C 
BRANCH  23  24
HETATM   24  C3  UNL     1      33.277  10.143  26.022  1.00  0.00     0.258 C 
BRANCH  24  25
HETATM   25  N1  UNL     1      34.164   9.020  26.024  1.00  0.00    -0.073 N 
ATOM     26  H12 UNL     1      35.057   9.260  25.595  1.00  0.00     0.277 HD
ATOM     27  H11 UNL     1      33.849   8.306  25.367  1.00  0.00     0.277 HD
BRANCH  25  28
HETATM   28  C2  UNL     1      34.360   8.456  27.343  1.00  0.00     0.228 C 
HETATM   29  C1  UNL     1      34.975   7.097  27.331  1.00  0.00     0.034 C 
ENDBRANCH  25  28
ENDBRANCH  24  25
ENDBRANCH  23  24
ENDBRANCH  22  23
ENDBRANCH  21  22
ENDBRANCH  20  21
ENDBRANCH  19  20
ENDBRANCH  17  19
ENDBRANCH   1  17
BRANCH   7  30
HETATM   30  N5  UNL     1      27.780  17.055  23.570  1.00  0.00    -0.234 N 
ATOM     31  H52 UNL     1      27.801  17.312  22.584  1.00  0.00     0.174 HD
ATOM     32  H51 UNL     1      27.946  17.759  24.289  1.00  0.00     0.174 HD
ENDBRANCH   7  30
TORSDOF 10
ENDMDL
MODEL 4
REMARK VINA RESULT: -6.194686618      1.168      2.159
REMARK  10 active torsions:
REMARK  status: ('A' for Active; 'I' for Inactive)
REMARK    1  A    between atoms: C2_2  and  N1_3 
REMARK    2  A    between atoms: N1_3  and  C3_6 
REMARK    3  A    between atoms: C3_6  and  C4_7 
REMARK    4  A    between atoms: C4_7  and  O1_8 
REMARK    5  A    between atoms: O1_8  and  C5_9 
REMARK    6  A    between atoms: C5_9  and  C6_10 
REMARK    7  A    between atoms: C6_10  and  C7_11 
REMARK    8  A    between atoms: C7_11  and  N2_12 
REMARK    9  A    between atoms: N2_12  and  C8_14 
REMARK   10  A    between atoms: C10_20  and  N5_21 
ROOT
HETATM    1  C8  UNL     1      28.723  10.346  25.359  1.00  0.00     0.680 A 
HETATM    2  N3  UNL     1      27.416  10.534  25.693  1.00  0.00    -0.174 N 
ATOM      3  H3  UNL     1      26.830   9.861  26.187  1.00  0.00     0.186 HD
HETATM    4  C9  UNL     1      27.021  11.748  25.269  1.00  0.00     0.167 A 
HETATM    5  N4  UNL     1      25.843  12.427  25.336  1.00  0.00    -0.174 N 
ATOM      6  H4  UNL     1      25.036  12.000  25.789  1.00  0.00     0.186 HD
HETATM    7  C10 UNL     1      25.739  13.660  24.809  1.00  0.00     0.679 A 
HETATM    8  N6  UNL     1      26.798  14.231  24.208  1.00  0.00    -0.175 N 
ATOM      9  H6  UNL     1      26.684  15.166  23.817  1.00  0.00     0.186 HD
HETATM   10  C11 UNL     1      27.998  13.636  24.096  1.00  0.00     0.146 A 
HETATM   11  N7  UNL     1      29.026  14.135  23.540  1.00  0.00    -0.383 N 
ATOM     12  H71 UNL     1      29.937  13.683  23.454  1.00  0.00     0.157 HD
ATOM     13  H72 UNL     1      28.953  15.069  23.137  1.00  0.00     0.157 HD
HETATM   14  C12 UNL     1      28.099  12.354  24.648  1.00  0.00     0.138 A 
HETATM   15  N8  UNL     1      29.107  11.470  24.727  1.00  0.00    -0.184 N 
ATOM     16  H8  UNL     1      30.043  11.629  24.355  1.00  0.00     0.184 HD
ENDROOT
BRANCH   1  17
HETATM   17  N2  UNL     1      29.414   9.290  25.618  1.00  0.00    -0.226 N 
ATOM     18  H2  UNL     1      29.269   8.821  26.513  1.00  0.00     0.177 HD
BRANCH  17  19
HETATM   19  C7  UNL     1      30.368   8.748  24.714  1.00  0.00     0.140 C 
BRANCH  19  20
HETATM   20  C6  UNL     1      31.371   9.772  24.193  1.00  0.00     0.046 C 
BRANCH  20  21
HETATM   21  C5  UNL     1      32.306  10.172  25.291  1.00  0.00     0.169 C 
BRANCH  21  22
HETATM   22  O1  UNL     1      32.777   9.120  26.048  1.00  0.00    -0.389 OA
BRANCH  22  23
HETATM   23  C4  UNL     1      34.105   9.255  26.430  1.00  0.00     0.195 C 
BRANCH  23  24
HETATM   24  C3  UNL     1      34.432   8.029  27.268  1.00  0.00     0.258 C 
BRANCH  24  25
HETATM   25  N1  UNL     1      35.805   7.701  27.034  1.00  0.00    -0.073 N 
ATOM     26  H12 UNL     1      36.423   8.366  27.500  1.00  0.00     0.277 HD
ATOM     27  H11 UNL     1      36.063   7.884  26.065  1.00  0.00     0.277 HD
BRANCH  25  28
HETATM   28  C2  UNL     1      36.134   6.342  27.408  1.00  0.00     0.228 C 
HETATM   29  C1  UNL     1      35.039   5.364  27.147  1.00  0.00     0.034 C 
ENDBRANCH  25  28
ENDBRANCH  24  25
ENDBRANCH  23  24
ENDBRANCH  22  23
ENDBRANCH  21  22
ENDBRANCH  20  21
ENDBRANCH  19  20
ENDBRANCH  17  19
ENDBRANCH   1  17
BRANCH   7  30
HETATM   30  N5  UNL     1      24.601  14.309  24.876  1.00  0.00    -0.234 N 
ATOM     31  H52 UNL     1      24.166  14.655  24.021  1.00  0.00     0.174 HD
ATOM     32  H51 UNL     1      24.154  14.465  25.780  1.00  0.00     0.174 HD
ENDBRANCH   7  30
TORSDOF 10
ENDMDL
MODEL 5
REMARK VINA RESULT: -5.925861396      2.461      9.840
REMARK  10 active torsions:
REMARK  status: ('A' for Active; 'I' for Inactive)
REMARK    1  A    between atoms: C2_2  and  N1_3 
REMARK    2  A    between atoms: N1_3  and  C3_6 
REMARK    3  A    between atoms: C3_6  and  C4_7 
REMARK    4  A    between atoms: C4_7  and  O1_8 
REMARK    5  A    between atoms: O1_8  and  C5_9 
REMARK    6  A    between atoms: C5_9  and  C6_10 
REMARK    7  A    between atoms: C6_10  and  C7_11 
REMARK    8  A    between atoms: C7_11  and  N2_12 
REMARK    9  A    between atoms: N2_12  and  C8_14 
REMARK   10  A    between atoms: C10_20  and  N5_21 
ROOT
HETATM    1  C8  UNL     1      34.406   8.477  26.549  1.00  0.00     0.680 A 
HETATM    2  N3  UNL     1      33.553   7.554  27.074  1.00  0.00    -0.174 N 
ATOM      3  H3  UNL     1      32.535   7.627  27.080  1.00  0.00     0.186 HD
HETATM    4  C9  UNL     1      34.265   6.533  27.585  1.00  0.00     0.167 A 
HETATM    5  N4  UNL     1      33.924   5.376  28.215  1.00  0.00    -0.174 N 
ATOM      6  H4  UNL     1      32.942   5.155  28.375  1.00  0.00     0.186 HD
HETATM    7  C10 UNL     1      34.878   4.522  28.628  1.00  0.00     0.679 A 
HETATM    8  N6  UNL     1      36.176   4.806  28.423  1.00  0.00    -0.175 N 
ATOM      9  H6  UNL     1      36.873   4.138  28.751  1.00  0.00     0.186 HD
HETATM   10  C11 UNL     1      36.604   5.923  27.811  1.00  0.00     0.146 A 
HETATM   11  N7  UNL     1      37.817   6.234  27.593  1.00  0.00    -0.383 N 
ATOM     12  H71 UNL     1      38.141   7.083  27.128  1.00  0.00     0.157 HD
ATOM     13  H72 UNL     1      38.544   5.591  27.905  1.00  0.00     0.157 HD
HETATM   14  C12 UNL     1      35.606   6.807  27.383  1.00  0.00     0.138 A 
HETATM   15  N8  UNL     1      35.644   7.992  26.752  1.00  0.00    -0.184 N 
ATOM     16  H8  UNL     1      36.501   8.464  26.464  1.00  0.00     0.184 HD
ENDROOT
BRANCH   1  17
HETATM   17  N2  UNL     1      34.054   9.578  25.978  1.00  0.00    -0.226 N 
ATOM     18  H2  UNL     1      34.728  10.051  25.377  1.00  0.00     0.177 HD
BRANCH  17  19
HETATM   19  C7  UNL     1      32.768  10.162  26.150  1.00  0.00     0.140 C 
BRANCH  19  20
HETATM   20  C6  UNL     1      31.891  10.090  24.905  1.00  0.00     0.046 C 
BRANCH  20  21
HETATM   21  C5  UNL     1      30.690   9.239  25.178  1.00  0.00     0.169 C 
BRANCH  21  22
HETATM   22  O1  UNL     1      30.206   8.568  24.076  1.00  0.00    -0.389 OA
BRANCH  22  23
HETATM   23  C4  UNL     1      29.688   9.402  23.095  1.00  0.00     0.195 C 
BRANCH  23  24
HETATM   24  C3  UNL     1      28.516  10.132  23.733  1.00  0.00     0.258 C 
BRANCH  24  25
HETATM   25  N1  UNL     1      28.575  11.497  23.308  1.00  0.00    -0.073 N 
ATOM     26  H12 UNL     1      27.727  11.760  22.807  1.00  0.00     0.277 HD
ATOM     27  H11 UNL     1      29.256  11.616  22.558  1.00  0.00     0.277 HD
BRANCH  25  28
HETATM   28  C2  UNL     1      28.839  12.417  24.394  1.00  0.00     0.228 C 
HETATM   29  C1  UNL     1      27.620  12.813  25.157  1.00  0.00     0.034 C 
ENDBRANCH  25  28
ENDBRANCH  24  25
ENDBRANCH  23  24
ENDBRANCH  22  23
ENDBRANCH  21  22
ENDBRANCH  20  21
ENDBRANCH  19  20
ENDBRANCH  17  19
ENDBRANCH   1  17
BRANCH   7  30
HETATM   30  N5  UNL     1      34.544   3.409  29.236  1.00  0.00    -0.234 N 
ATOM     31  H52 UNL     1      33.563   3.221  29.444  1.00  0.00     0.174 HD
ATOM     32  H51 UNL     1      35.263   2.734  29.498  1.00  0.00     0.174 HD
ENDBRANCH   7  30
TORSDOF 10
ENDMDL
