MODEL 1
REMARK VINA RESULT: -6.675759897      0.000      0.000
REMARK  13 active torsions:
REMARK  status: ('A' for Active; 'I' for Inactive)
REMARK    1  A    between atoms: N1_2  and  C2_4 
REMARK    2  A    between atoms: C2_4  and  O1_8 
REMARK    3  A    between atoms: O1_8  and  C3_9 
REMARK    4  A    between atoms: C3_9  and  C4_10 
REMARK    5  A    between atoms: C4_10  and  C5_11 
REMARK    6  A    between atoms: C5_11  and  C6_12 
REMARK    7  A    between atoms: C6_12  and  C7_13 
REMARK    8  A    between atoms: C7_13  and  C8_14 
REMARK    9  A    between atoms: C8_14  and  C9_15 
REMARK   10  A    between atoms: C9_15  and  N3_16 
REMARK   11  A    between atoms: N3_16  and  C10_18 
REMARK   12  A    between atoms: C11_21  and  N5_22 
REMARK   13  A    between atoms: C12_27  and  N7_28 
ROOT
HETATM    1  N3  UNL     1      33.443   8.861  26.903  1.00  0.00    -0.225 N 
ATOM      2  H3  UNL     1      32.608   8.847  27.490  1.00  0.00     0.177 HD
ENDROOT
BRANCH   1   3
HETATM    3  C9  UNL     1      33.598   9.888  25.876  1.00  0.00     0.138 C 
BRANCH   3   4
HETATM    4  C8  UNL     1      32.254  10.490  25.640  1.00  0.00     0.020 C 
BRANCH   4   5
HETATM    5  C7  UNL     1      31.423   9.622  24.739  1.00  0.00     0.002 C 
BRANCH   5   6
HETATM    6  C6  UNL     1      29.996   9.624  25.220  1.00  0.00     0.000 C 
BRANCH   6   7
HETATM    7  C5  UNL     1      29.076  10.387  24.278  1.00  0.00     0.002 C 
BRANCH   7   8
HETATM    8  C4  UNL     1      28.194  11.300  25.070  1.00  0.00     0.027 C 
BRANCH   8   9
HETATM    9  C3  UNL     1      28.417  12.753  24.653  1.00  0.00     0.178 C 
BRANCH   9  10
HETATM   10  O1  UNL     1      27.600  13.528  25.539  1.00  0.00    -0.323 OA
BRANCH  10  11
HETATM   11  C2  UNL     1      26.470  14.202  25.096  1.00  0.00     0.212 C 
HETATM   12  N2  UNL     1      25.416  13.471  24.863  1.00  0.00    -0.366 N 
ATOM     13  H22 UNL     1      24.585  13.966  24.538  1.00  0.00     0.159 HD
ATOM     14  H21 UNL     1      25.451  12.461  25.005  1.00  0.00     0.159 HD
BRANCH  11  15
HETATM   15  N1  UNL     1      26.421  15.591  24.900  1.00  0.00    -0.361 N 
HETATM   16  C1  UNL     1      27.331  16.245  23.992  1.00  0.00     0.150 C 
ATOM     17  H1  UNL     1      25.732  16.146  25.408  1.00  0.00     0.162 HD
ENDBRANCH  11  15
ENDBRANCH  10  11
ENDBRANCH   9  10
ENDBRANCH   8   9
ENDBRANCH   7   8
ENDBRANCH   6   7
ENDBRANCH   5   6
ENDBRANCH   4   5
ENDBRANCH   3   4
ENDBRANCH   1   3
BRANCH   1  18
HETATM   18  C10 UNL     1      34.352   7.981  27.066  1.00  0.00     0.707 A 
HETATM   19  N4  UNL     1      35.646   8.168  26.781  1.00  0.00    -0.022 N 
HETATM   20  C11 UNL     1      36.575   7.197  26.974  1.00  0.00     0.705 A 
ATOM     21  H4  UNL     1      35.944   9.068  26.406  1.00  0.00     0.203 HD
HETATM   22  N6  UNL     1      36.176   6.013  27.468  1.00  0.00    -0.022 N 
HETATM   23  C12 UNL     1      34.891   5.785  27.769  1.00  0.00     0.705 A 
ATOM     24  H6  UNL     1      36.864   5.275  27.616  1.00  0.00     0.203 HD
HETATM   25  N8  UNL     1      33.995   6.762  27.567  1.00  0.00    -0.022 N 
ATOM     26  H8  UNL     1      33.016   6.589  27.795  1.00  0.00     0.203 HD
BRANCH  20  27
HETATM   27  N5  UNL     1      37.817   7.386  26.694  1.00  0.00    -0.234 N 
ATOM     28  H52 UNL     1      38.142   8.317  26.438  1.00  0.00     0.174 HD
ATOM     29  H51 UNL     1      38.493   6.623  26.724  1.00  0.00     0.174 HD
ENDBRANCH  20  27
BRANCH  23  30
HETATM   30  N7  UNL     1      34.556   4.642  28.237  1.00  0.00    -0.234 N 
ATOM     31  H72 UNL     1      35.164   3.826  28.159  1.00  0.00     0.174 HD
ATOM     32  H71 UNL     1      33.655   4.543  28.704  1.00  0.00     0.174 HD
ENDBRANCH  23  30
ENDBRANCH   1  18
TORSDOF 13
ENDMDL
MODEL 2
REMARK VINA RESULT: -6.643852246      2.358      9.851
REMARK  13 active torsions:
REMARK  status: ('A' for Active; 'I' for Inactive)
REMARK    1  A    between atoms: N1_2  and  C2_4 
REMARK    2  A    between atoms: C2_4  and  O1_8 
REMARK    3  A    between atoms: O1_8  and  C3_9 
REMARK    4  A    between atoms: C3_9  and  C4_10 
REMARK    5  A    between atoms: C4_10  and  C5_11 
REMARK    6  A    between atoms: C5_11  and  C6_12 
REMARK    7  A    between atoms: C6_12  and  C7_13 
REMARK    8  A    between atoms: C7_13  and  C8_14 
REMARK    9  A    between atoms: C8_14  and  C9_15 
REMARK   10  A    between atoms: C9_15  and  N3_16 
REMARK   11  A    between atoms: N3_16  and  C10_18 
REMARK   12  A    between atoms: C11_21  and  N5_22 
REMARK   13  A    between atoms: C12_27  and  N7_28 
ROOT
HETATM    1  N3  UNL     1      29.319  12.657  23.701  1.00  0.00    -0.225 N 
ATOM      2  H3  UNL     1      30.272  12.995  23.834  1.00  0.00     0.177 HD
ENDROOT
BRANCH   1   3
HETATM    3  C9  UNL     1      29.085  11.318  23.166  1.00  0.00     0.138 C 
BRANCH   3   4
HETATM    4  C8  UNL     1      30.167  11.036  22.181  1.00  0.00     0.020 C 
BRANCH   4   5
HETATM    5  C7  UNL     1      30.830   9.718  22.467  1.00  0.00     0.002 C 
BRANCH   5   6
HETATM    6  C6  UNL     1      30.786   9.447  23.947  1.00  0.00     0.000 C 
BRANCH   6   7
HETATM    7  C5  UNL     1      31.872  10.204  24.699  1.00  0.00     0.002 C 
BRANCH   7   8
HETATM    8  C4  UNL     1      32.363   9.373  25.842  1.00  0.00     0.027 C 
BRANCH   8   9
HETATM    9  C3  UNL     1      33.769   9.805  26.252  1.00  0.00     0.178 C 
BRANCH   9  10
HETATM   10  O1  UNL     1      34.090   9.007  27.397  1.00  0.00    -0.323 OA
BRANCH  10  11
HETATM   11  C2  UNL     1      34.714   7.771  27.283  1.00  0.00     0.212 C 
HETATM   12  N2  UNL     1      35.930   7.780  26.812  1.00  0.00    -0.366 N 
ATOM     13  H22 UNL     1      36.388   6.873  26.727  1.00  0.00     0.159 HD
ATOM     14  H21 UNL     1      36.371   8.662  26.550  1.00  0.00     0.159 HD
BRANCH  11  15
HETATM   15  N1  UNL     1      34.106   6.559  27.643  1.00  0.00    -0.361 N 
HETATM   16  C1  UNL     1      34.696   5.295  27.275  1.00  0.00     0.150 C 
ATOM     17  H1  UNL     1      33.234   6.572  28.172  1.00  0.00     0.162 HD
ENDBRANCH  11  15
ENDBRANCH  10  11
ENDBRANCH   9  10
ENDBRANCH   8   9
ENDBRANCH   7   8
ENDBRANCH   6   7
ENDBRANCH   5   6
ENDBRANCH   4   5
ENDBRANCH   3   4
ENDBRANCH   1   3
BRANCH   1  18
HETATM   18  C10 UNL     1      28.330  13.405  24.001  1.00  0.00     0.707 A 
HETATM   19  N4  UNL     1      27.171  12.963  24.504  1.00  0.00    -0.022 N 
HETATM   20  C11 UNL     1      26.149  13.802  24.807  1.00  0.00     0.705 A 
ATOM     21  H4  UNL     1      27.053  11.962  24.664  1.00  0.00     0.203 HD
HETATM   22  N6  UNL     1      26.311  15.118  24.594  1.00  0.00    -0.022 N 
HETATM   23  C12 UNL     1      27.455  15.604  24.094  1.00  0.00     0.705 A 
ATOM     24  H6  UNL     1      25.550  15.759  24.817  1.00  0.00     0.203 HD
HETATM   25  N8  UNL     1      28.448  14.752  23.803  1.00  0.00    -0.022 N 
ATOM     26  H8  UNL     1      29.319  15.120  23.422  1.00  0.00     0.203 HD
BRANCH  20  27
HETATM   27  N5  UNL     1      25.037  13.366  25.289  1.00  0.00    -0.234 N 
ATOM     28  H52 UNL     1      24.652  12.483  24.954  1.00  0.00     0.174 HD
ATOM     29  H51 UNL     1      24.525  13.883  26.003  1.00  0.00     0.174 HD
ENDBRANCH  20  27
BRANCH  23  30
HETATM   30  N7  UNL     1      27.565  16.865  23.907  1.00  0.00    -0.234 N 
ATOM     31  H72 UNL     1      26.871  17.397  23.383  1.00  0.00     0.174 HD
ATOM     32  H71 UNL     1      28.371  17.354  24.296  1.00  0.00     0.174 HD
ENDBRANCH  23  30
ENDBRANCH   1  18
TORSDOF 13
ENDMDL
MODEL 3
REMARK VINA RESULT: -6.640827583      0.399      1.789
REMARK  13 active torsions:
REMARK  status: ('A' for Active; 'I' for Inactive)
REMARK    1  A    between atoms: N1_2  and  C2_4 
REMARK    2  A    between atoms: C2_4  and  O1_8 
REMARK    3  A    between atoms: O1_8  and  C3_9 
REMARK    4  A    between atoms: C3_9  and  C4_10 
REMARK    5  A    between atoms: C4_10  and  C5_11 
REMARK    6  A    between atoms: C5_11  and  C6_12 
REMARK    7  A    between atoms: C6_12  and  C7_13 
REMARK    8  A    between atoms: C7_13  and  C8_14 
REMARK    9  A    between atoms: C8_14  and  C9_15 
REMARK   10  A    between atoms: C9_15  and  N3_16 
REMARK   11  A    between atoms: N3_16  and  C10_18 
REMARK   12  A    between atoms: C11_21  and  N5_22 
REMARK   13  A    between atoms: C12_27  and  N7_28 
ROOT
HETATM    1  N3  UNL     1      33.426   8.696  26.878  1.00  0.00    -0.225 N 
ATOM      2  H3  UNL     1      32.549   8.682  27.399  1.00  0.00     0.177 HD
ENDROOT
BRANCH   1   3
HETATM    3  C9  UNL     1      33.667   9.736  25.880  1.00  0.00     0.138 C 
BRANCH   3   4
HETATM    4  C8  UNL     1      32.381  10.460  25.671  1.00  0.00     0.020 C 
BRANCH   4   5
HETATM    5  C7  UNL     1      31.522   9.756  24.658  1.00  0.00     0.002 C 
BRANCH   5   6
HETATM    6  C6  UNL     1      30.077  10.100  24.904  1.00  0.00     0.000 C 
BRANCH   6   7
HETATM    7  C5  UNL     1      29.490  10.938  23.777  1.00  0.00     0.002 C 
BRANCH   7   8
HETATM    8  C4  UNL     1      29.108  12.287  24.300  1.00  0.00     0.027 C 
BRANCH   8   9
HETATM    9  C3  UNL     1      27.764  12.220  25.022  1.00  0.00     0.178 C 
BRANCH   9  10
HETATM   10  O1  UNL     1      27.535  13.545  25.515  1.00  0.00    -0.323 OA
BRANCH  10  11
HETATM   11  C2  UNL     1      26.468  14.319  25.079  1.00  0.00     0.212 C 
HETATM   12  N2  UNL     1      25.361  13.681  24.817  1.00  0.00    -0.366 N 
ATOM     13  H22 UNL     1      24.577  14.249  24.497  1.00  0.00     0.159 HD
ATOM     14  H21 UNL     1      25.314  12.669  24.933  1.00  0.00     0.159 HD
BRANCH  11  15
HETATM   15  N1  UNL     1      26.533  15.712  24.918  1.00  0.00    -0.361 N 
HETATM   16  C1  UNL     1      27.354  16.303  23.890  1.00  0.00     0.150 C 
ATOM     17  H1  UNL     1      25.992  16.315  25.538  1.00  0.00     0.162 HD
ENDBRANCH  11  15
ENDBRANCH  10  11
ENDBRANCH   9  10
ENDBRANCH   8   9
ENDBRANCH   7   8
ENDBRANCH   6   7
ENDBRANCH   5   6
ENDBRANCH   4   5
ENDBRANCH   3   4
ENDBRANCH   1   3
BRANCH   1  18
HETATM   18  C10 UNL     1      34.313   7.806  27.097  1.00  0.00     0.707 A 
HETATM   19  N4  UNL     1      34.063   6.601  27.622  1.00  0.00    -0.022 N 
HETATM   20  C11 UNL     1      35.045   5.688  27.834  1.00  0.00     0.705 A 
ATOM     21  H4  UNL     1      33.104   6.360  27.870  1.00  0.00     0.203 HD
HETATM   22  N6  UNL     1      36.306   6.011  27.503  1.00  0.00    -0.022 N 
HETATM   23  C12 UNL     1      36.601   7.205  26.974  1.00  0.00     0.705 A 
ATOM     24  H6  UNL     1      37.053   5.334  27.659  1.00  0.00     0.203 HD
HETATM   25  N8  UNL     1      35.611   8.088  26.776  1.00  0.00    -0.022 N 
ATOM     26  H8  UNL     1      35.834   8.998  26.373  1.00  0.00     0.203 HD
BRANCH  20  27
HETATM   27  N5  UNL     1      34.794   4.532  28.341  1.00  0.00    -0.234 N 
ATOM     28  H52 UNL     1      34.826   4.406  29.353  1.00  0.00     0.174 HD
ATOM     29  H51 UNL     1      34.561   3.730  27.756  1.00  0.00     0.174 HD
ENDBRANCH  20  27
BRANCH  23  30
HETATM   30  N7  UNL     1      37.817   7.469  26.675  1.00  0.00    -0.234 N 
ATOM     31  H72 UNL     1      38.562   6.780  26.779  1.00  0.00     0.174 HD
ATOM     32  H71 UNL     1      38.048   8.396  26.319  1.00  0.00     0.174 HD
ENDBRANCH  23  30
ENDBRANCH   1  18
TORSDOF 13
ENDMDL
MODEL 4
REMARK VINA RESULT: -6.620756746      2.253      9.596
REMARK  13 active torsions:
REMARK  status: ('A' for Active; 'I' for Inactive)
REMARK    1  A    between atoms: N1_2  and  C2_4 
REMARK    2  A    between atoms: C2_4  and  O1_8 
REMARK    3  A    between atoms: O1_8  and  C3_9 
REMARK    4  A    between atoms: C3_9  and  C4_10 
REMARK    5  A    between atoms: C4_10  and  C5_11 
REMARK    6  A    between atoms: C5_11  and  C6_12 
REMARK    7  A    between atoms: C6_12  and  C7_13 
REMARK    8  A    between atoms: C7_13  and  C8_14 
REMARK    9  A    between atoms: C8_14  and  C9_15 
REMARK   10  A    between atoms: C9_15  and  N3_16 
REMARK   11  A    between atoms: N3_16  and  C10_18 
REMARK   12  A    between atoms: C11_21  and  N5_22 
REMARK   13  A    between atoms: C12_27  and  N7_28 
ROOT
HETATM    1  N3  UNL     1      29.315  12.603  23.804  1.00  0.00    -0.225 N 
ATOM      2  H3  UNL     1      30.287  12.822  24.026  1.00  0.00     0.177 HD
ENDROOT
BRANCH   1   3
HETATM    3  C9  UNL     1      28.969  11.296  23.252  1.00  0.00     0.138 C 
BRANCH   3   4
HETATM    4  C8  UNL     1      30.043  10.918  22.290  1.00  0.00     0.020 C 
BRANCH   4   5
HETATM    5  C7  UNL     1      30.978   9.908  22.891  1.00  0.00     0.002 C 
BRANCH   5   6
HETATM    6  C6  UNL     1      30.290   9.206  24.031  1.00  0.00     0.000 C 
BRANCH   6   7
HETATM    7  C5  UNL     1      31.145   9.186  25.290  1.00  0.00     0.002 C 
BRANCH   7   8
HETATM    8  C4  UNL     1      32.218  10.224  25.185  1.00  0.00     0.027 C 
BRANCH   8   9
HETATM    9  C3  UNL     1      33.374   9.896  26.126  1.00  0.00     0.178 C 
BRANCH   9  10
HETATM   10  O1  UNL     1      33.322   8.476  26.306  1.00  0.00    -0.323 OA
BRANCH  10  11
HETATM   11  C2  UNL     1      34.293   7.788  27.022  1.00  0.00     0.212 C 
HETATM   12  N2  UNL     1      35.504   8.267  26.959  1.00  0.00    -0.366 N 
ATOM     13  H22 UNL     1      36.217   7.762  27.485  1.00  0.00     0.159 HD
ATOM     14  H21 UNL     1      35.697   9.102  26.406  1.00  0.00     0.159 HD
BRANCH  11  15
HETATM   15  N1  UNL     1      34.028   6.639  27.783  1.00  0.00    -0.361 N 
HETATM   16  C1  UNL     1      34.516   5.346  27.371  1.00  0.00     0.150 C 
ATOM     17  H1  UNL     1      33.482   6.720  28.641  1.00  0.00     0.162 HD
ENDBRANCH  11  15
ENDBRANCH  10  11
ENDBRANCH   9  10
ENDBRANCH   8   9
ENDBRANCH   7   8
ENDBRANCH   6   7
ENDBRANCH   5   6
ENDBRANCH   4   5
ENDBRANCH   3   4
ENDBRANCH   1   3
BRANCH   1  18
HETATM   18  C10 UNL     1      28.403  13.470  24.008  1.00  0.00     0.707 A 
HETATM   19  N4  UNL     1      28.540  14.782  23.781  1.00  0.00    -0.022 N 
HETATM   20  C11 UNL     1      27.535  15.664  24.015  1.00  0.00     0.705 A 
ATOM     21  H4  UNL     1      29.428  15.130  23.419  1.00  0.00     0.203 HD
HETATM   22  N6  UNL     1      26.368  15.199  24.490  1.00  0.00    -0.022 N 
HETATM   23  C12 UNL     1      26.187  13.894  24.730  1.00  0.00     0.705 A 
ATOM     24  H6  UNL     1      25.606  15.852  24.671  1.00  0.00     0.203 HD
HETATM   25  N8  UNL     1      27.197  13.046  24.490  1.00  0.00    -0.022 N 
ATOM     26  H8  UNL     1      27.061  12.052  24.673  1.00  0.00     0.203 HD
BRANCH  20  27
HETATM   27  N5  UNL     1      27.678  16.924  23.794  1.00  0.00    -0.234 N 
ATOM     28  H52 UNL     1      27.206  17.355  22.999  1.00  0.00     0.174 HD
ATOM     29  H51 UNL     1      28.253  17.511  24.398  1.00  0.00     0.174 HD
ENDBRANCH  20  27
BRANCH  23  30
HETATM   30  N7  UNL     1      25.058  13.496  25.183  1.00  0.00    -0.234 N 
ATOM     31  H72 UNL     1      24.962  13.086  26.112  1.00  0.00     0.174 HD
ATOM     32  H71 UNL     1      24.228  13.594  24.598  1.00  0.00     0.174 HD
ENDBRANCH  23  30
ENDBRANCH   1  18
TORSDOF 13
ENDMDL
MODEL 5
REMARK VINA RESULT: -6.608028510      2.229      9.689
REMARK  13 active torsions:
REMARK  status: ('A' for Active; 'I' for Inactive)
REMARK    1  A    between atoms: N1_2  and  C2_4 
REMARK    2  A    between atoms: C2_4  and  O1_8 
REMARK    3  A    between atoms: O1_8  and  C3_9 
REMARK    4  A    between atoms: C3_9  and  C4_10 
REMARK    5  A    between atoms: C4_10  and  C5_11 
REMARK    6  A    between atoms: C5_11  and  C6_12 
REMARK    7  A    between atoms: C6_12  and  C7_13 
REMARK    8  A    between atoms: C7_13  and  C8_14 
REMARK    9  A    between atoms: C8_14  and  C9_15 
REMARK   10  A    between atoms: C9_15  and  N3_16 
REMARK   11  A    between atoms: N3_16  and  C10_18 
REMARK   12  A    between atoms: C11_21  and  N5_22 
REMARK   13  A    between atoms: C12_27  and  N7_28 
ROOT
HETATM    1  N3  UNL     1      28.850  12.103  24.597  1.00  0.00    -0.225 N 
ATOM      2  H3  UNL     1      29.747  12.241  25.063  1.00  0.00     0.177 HD
ENDROOT
BRANCH   1   3
HETATM    3  C9  UNL     1      28.459  10.771  24.142  1.00  0.00     0.138 C 
BRANCH   3   4
HETATM    4  C8  UNL     1      28.805   9.810  25.228  1.00  0.00     0.020 C 
BRANCH   4   5
HETATM    5  C7  UNL     1      29.805   8.793  24.753  1.00  0.00     0.002 C 
BRANCH   5   6
HETATM    6  C6  UNL     1      30.804   9.460  23.847  1.00  0.00     0.000 C 
BRANCH   6   7
HETATM    7  C5  UNL     1      31.867  10.220  24.629  1.00  0.00     0.002 C 
BRANCH   7   8
HETATM    8  C4  UNL     1      32.332   9.387  25.783  1.00  0.00     0.027 C 
BRANCH   8   9
HETATM    9  C3  UNL     1      33.746   9.788  26.195  1.00  0.00     0.178 C 
BRANCH   9  10
HETATM   10  O1  UNL     1      34.028   9.018  27.370  1.00  0.00    -0.323 OA
BRANCH  10  11
HETATM   11  C2  UNL     1      34.700   7.804  27.312  1.00  0.00     0.212 C 
HETATM   12  N2  UNL     1      35.896   7.831  26.792  1.00  0.00    -0.366 N 
ATOM     13  H22 UNL     1      36.389   6.940  26.749  1.00  0.00     0.159 HD
ATOM     14  H21 UNL     1      36.288   8.710  26.454  1.00  0.00     0.159 HD
BRANCH  11  15
HETATM   15  N1  UNL     1      34.160   6.595  27.776  1.00  0.00    -0.361 N 
HETATM   16  C1  UNL     1      34.612   5.330  27.252  1.00  0.00     0.150 C 
ATOM     17  H1  UNL     1      33.437   6.612  28.496  1.00  0.00     0.162 HD
ENDBRANCH  11  15
ENDBRANCH  10  11
ENDBRANCH   9  10
ENDBRANCH   8   9
ENDBRANCH   7   8
ENDBRANCH   6   7
ENDBRANCH   5   6
ENDBRANCH   4   5
ENDBRANCH   3   4
ENDBRANCH   1   3
BRANCH   1  18
HETATM   18  C10 UNL     1      28.069  13.094  24.411  1.00  0.00     0.707 A 
HETATM   19  N4  UNL     1      28.441  14.261  23.873  1.00  0.00    -0.022 N 
HETATM   20  C11 UNL     1      27.568  15.286  23.696  1.00  0.00     0.705 A 
ATOM     21  H4  UNL     1      29.412  14.385  23.585  1.00  0.00     0.203 HD
HETATM   22  N6  UNL     1      26.291  15.116  24.076  1.00  0.00    -0.022 N 
HETATM   23  C12 UNL     1      25.876  13.964  24.617  1.00  0.00     0.705 A 
ATOM     24  H6  UNL     1      25.626  15.879  23.950  1.00  0.00     0.203 HD
HETATM   25  N8  UNL     1      26.760  12.969  24.781  1.00  0.00    -0.022 N 
ATOM     26  H8  UNL     1      26.444  12.092  25.193  1.00  0.00     0.203 HD
BRANCH  20  27
HETATM   27  N5  UNL     1      27.937  16.405  23.179  1.00  0.00    -0.234 N 
ATOM     28  H52 UNL     1      28.905  16.713  23.275  1.00  0.00     0.174 HD
ATOM     29  H51 UNL     1      27.284  16.999  22.669  1.00  0.00     0.174 HD
ENDBRANCH  20  27
BRANCH  23  30
HETATM   30  N7  UNL     1      24.650  13.847  24.964  1.00  0.00    -0.234 N 
ATOM     31  H72 UNL     1      24.378  13.602  25.917  1.00  0.00     0.174 HD
ATOM     32  H71 UNL     1      23.921  14.006  24.269  1.00  0.00     0.174 HD
ENDBRANCH  23  30
ENDBRANCH   1  18
TORSDOF 13
ENDMDL
