MODEL 1
REMARK VINA RESULT: -7.811738498      0.000      0.000
REMARK  6 active torsions:
REMARK  status: ('A' for Active; 'I' for Inactive)
REMARK    1  A    between atoms: C2_2  and  C3_3 
REMARK    2  A    between atoms: C3_3  and  C4_4 
REMARK    3  A    between atoms: C4_4  and  C5_5 
REMARK       I    between atoms: C5_5  and  N1_7 
REMARK    4  A    between atoms: N1_7  and  C6_9 
REMARK    5  A    between atoms: C6_9  and  C7_10 
REMARK    6  A    between atoms: C7_10  and  N2_11 
REMARK       I    between atoms: N2_11  and  C8_13 
REMARK       I    between atoms: C8_13  and  N3_15 
ROOT
HETATM    1  C7  UNL     1      26.588  56.295  91.359  1.00  0.00     0.144 C 
ENDROOT
BRANCH   1   2
HETATM    2  C6  UNL     1      27.875  56.302  90.602  1.00  0.00     0.142 C 
BRANCH   2   3
HETATM    3  N1  UNL     1      28.208  57.601  90.070  1.00  0.00    -0.360 N 
HETATM    4  C5  UNL     1      27.841  57.963  88.734  1.00  0.00     0.217 C 
HETATM    5  O1  UNL     1      27.224  57.105  88.061  1.00  0.00    -0.274 OA
ATOM      6  H1  UNL     1      28.712  58.270  90.653  1.00  0.00     0.162 HD
BRANCH   4   7
HETATM    7  C4  UNL     1      28.224  59.302  88.290  1.00  0.00     0.103 C 
BRANCH   7   8
HETATM    8  C3  UNL     1      28.709  59.431  86.896  1.00  0.00     0.009 C 
BRANCH   8   9
HETATM    9  C2  UNL     1      27.901  60.308  85.998  1.00  0.00    -0.004 C 
HETATM   10  C1  UNL     1      26.779  59.516  85.312  1.00  0.00     0.005 C 
ENDBRANCH   8   9
ENDBRANCH   7   8
ENDBRANCH   4   7
ENDBRANCH   2   3
ENDBRANCH   1   2
BRANCH   1  11
HETATM   11  N2  UNL     1      25.453  56.153  90.494  1.00  0.00    -0.341 N 
HETATM   12  C8  UNL     1      24.304  55.404  90.855  1.00  0.00     0.318 C 
HETATM   13  O2  UNL     1      24.325  54.851  92.008  1.00  0.00    -0.247 OA
HETATM   14  N3  UNL     1      23.189  55.277  89.981  1.00  0.00    -0.334 N 
HETATM   15  C9  UNL     1      22.066  54.489  90.449  1.00  0.00     0.127 C 
HETATM   16  C13 UNL     1      23.240  55.924  88.710  1.00  0.00     0.127 C 
HETATM   17  C10 UNL     1      21.374  53.928  89.225  1.00  0.00     0.020 C 
HETATM   18  C11 UNL     1      20.878  55.085  88.418  1.00  0.00     0.003 C 
HETATM   19  C12 UNL     1      21.946  56.026  87.984  1.00  0.00     0.020 C 
ATOM     20  H2  UNL     1      25.473  56.609  89.582  1.00  0.00     0.164 HD
ENDBRANCH   1  11
TORSDOF 6
ENDMDL
MODEL 2
REMARK VINA RESULT: -7.642401160      3.289      5.853
REMARK  6 active torsions:
REMARK  status: ('A' for Active; 'I' for Inactive)
REMARK    1  A    between atoms: C2_2  and  C3_3 
REMARK    2  A    between atoms: C3_3  and  C4_4 
REMARK    3  A    between atoms: C4_4  and  C5_5 
REMARK       I    between atoms: C5_5  and  N1_7 
REMARK    4  A    between atoms: N1_7  and  C6_9 
REMARK    5  A    between atoms: C6_9  and  C7_10 
REMARK    6  A    between atoms: C7_10  and  N2_11 
REMARK       I    between atoms: N2_11  and  C8_13 
REMARK       I    between atoms: C8_13  and  N3_15 
ROOT
HETATM    1  C7  UNL     1      25.663  56.225  90.436  1.00  0.00     0.144 C 
ENDROOT
BRANCH   1   2
HETATM    2  C6  UNL     1      26.837  55.922  91.309  1.00  0.00     0.142 C 
BRANCH   2   3
HETATM    3  N1  UNL     1      26.715  56.483  92.632  1.00  0.00    -0.360 N 
HETATM    4  C5  UNL     1      26.118  55.733  93.695  1.00  0.00     0.217 C 
HETATM    5  O1  UNL     1      25.712  54.578  93.420  1.00  0.00    -0.274 OA
ATOM      6  H1  UNL     1      27.058  57.427  92.813  1.00  0.00     0.162 HD
BRANCH   4   7
HETATM    7  C4  UNL     1      26.041  56.390  94.998  1.00  0.00     0.103 C 
BRANCH   7   8
HETATM    8  C3  UNL     1      25.432  55.614  96.104  1.00  0.00     0.009 C 
BRANCH   8   9
HETATM    9  C2  UNL     1      24.097  56.084  96.578  1.00  0.00    -0.004 C 
HETATM   10  C1  UNL     1      24.144  57.563  96.988  1.00  0.00     0.005 C 
ENDBRANCH   8   9
ENDBRANCH   7   8
ENDBRANCH   4   7
ENDBRANCH   2   3
ENDBRANCH   1   2
BRANCH   1  11
HETATM   11  N2  UNL     1      24.493  55.496  90.833  1.00  0.00    -0.341 N 
HETATM   12  C8  UNL     1      23.596  54.922  89.897  1.00  0.00     0.318 C 
HETATM   13  O2  UNL     1      23.881  55.084  88.661  1.00  0.00    -0.247 OA
HETATM   14  N3  UNL     1      22.441  54.203  90.313  1.00  0.00    -0.334 N 
HETATM   15  C9  UNL     1      21.590  53.657  89.274  1.00  0.00     0.127 C 
HETATM   16  C13 UNL     1      22.189  54.063  91.711  1.00  0.00     0.127 C 
HETATM   17  C10 UNL     1      20.188  53.575  89.842  1.00  0.00     0.020 C 
HETATM   18  C11 UNL     1      20.229  52.638  91.007  1.00  0.00     0.003 C 
HETATM   19  C12 UNL     1      21.168  53.050  92.086  1.00  0.00     0.020 C 
ATOM     20  H2  UNL     1      24.298  55.387  91.828  1.00  0.00     0.164 HD
ENDBRANCH   1  11
TORSDOF 6
ENDMDL
MODEL 3
REMARK VINA RESULT: -7.642036539      1.920      2.420
REMARK  6 active torsions:
REMARK  status: ('A' for Active; 'I' for Inactive)
REMARK    1  A    between atoms: C2_2  and  C3_3 
REMARK    2  A    between atoms: C3_3  and  C4_4 
REMARK    3  A    between atoms: C4_4  and  C5_5 
REMARK       I    between atoms: C5_5  and  N1_7 
REMARK    4  A    between atoms: N1_7  and  C6_9 
REMARK    5  A    between atoms: C6_9  and  C7_10 
REMARK    6  A    between atoms: C7_10  and  N2_11 
REMARK       I    between atoms: N2_11  and  C8_13 
REMARK       I    between atoms: C8_13  and  N3_15 
ROOT
HETATM    1  C7  UNL     1      27.202  57.011  89.076  1.00  0.00     0.144 C 
ENDROOT
BRANCH   1   2
HETATM    2  C6  UNL     1      28.010  57.387  87.878  1.00  0.00     0.142 C 
BRANCH   2   3
HETATM    3  N1  UNL     1      27.295  58.244  86.963  1.00  0.00    -0.360 N 
HETATM    4  C5  UNL     1      27.985  59.239  86.199  1.00  0.00     0.217 C 
HETATM    5  O1  UNL     1      29.225  59.326  86.364  1.00  0.00    -0.274 OA
ATOM      6  H1  UNL     1      26.286  58.140  86.860  1.00  0.00     0.162 HD
BRANCH   4   7
HETATM    7  C4  UNL     1      27.171  60.056  85.301  1.00  0.00     0.103 C 
BRANCH   7   8
HETATM    8  C3  UNL     1      27.727  61.372  84.905  1.00  0.00     0.009 C 
BRANCH   8   9
HETATM    9  C2  UNL     1      27.175  61.967  83.653  1.00  0.00    -0.004 C 
HETATM   10  C1  UNL     1      27.740  63.374  83.412  1.00  0.00     0.005 C 
ENDBRANCH   8   9
ENDBRANCH   7   8
ENDBRANCH   4   7
ENDBRANCH   2   3
ENDBRANCH   1   2
BRANCH   1  11
HETATM   11  N2  UNL     1      25.849  56.680  88.733  1.00  0.00    -0.341 N 
HETATM   12  C8  UNL     1      25.013  55.907  89.579  1.00  0.00     0.318 C 
HETATM   13  O2  UNL     1      25.527  55.512  90.681  1.00  0.00    -0.247 OA
HETATM   14  N3  UNL     1      23.673  55.591  89.218  1.00  0.00    -0.334 N 
HETATM   15  C9  UNL     1      22.905  54.795  90.155  1.00  0.00     0.127 C 
HETATM   16  C13 UNL     1      23.170  56.069  87.971  1.00  0.00     0.127 C 
HETATM   17  C10 UNL     1      21.872  54.033  89.352  1.00  0.00     0.020 C 
HETATM   18  C11 UNL     1      20.982  55.039  88.693  1.00  0.00     0.003 C 
HETATM   19  C12 UNL     1      21.696  55.986  87.795  1.00  0.00     0.020 C 
ATOM     20  H2  UNL     1      25.473  57.014  87.846  1.00  0.00     0.164 HD
ENDBRANCH   1  11
TORSDOF 6
ENDMDL
MODEL 4
REMARK VINA RESULT: -7.633101098      1.782      2.048
REMARK  6 active torsions:
REMARK  status: ('A' for Active; 'I' for Inactive)
REMARK    1  A    between atoms: C2_2  and  C3_3 
REMARK    2  A    between atoms: C3_3  and  C4_4 
REMARK    3  A    between atoms: C4_4  and  C5_5 
REMARK       I    between atoms: C5_5  and  N1_7 
REMARK    4  A    between atoms: N1_7  and  C6_9 
REMARK    5  A    between atoms: C6_9  and  C7_10 
REMARK    6  A    between atoms: C7_10  and  N2_11 
REMARK       I    between atoms: N2_11  and  C8_13 
REMARK       I    between atoms: C8_13  and  N3_15 
ROOT
HETATM    1  C7  UNL     1      25.667  55.152  92.682  1.00  0.00     0.144 C 
ENDROOT
BRANCH   1   2
HETATM    2  C6  UNL     1      26.717  56.214  92.688  1.00  0.00     0.142 C 
BRANCH   2   3
HETATM    3  N1  UNL     1      26.798  56.932  91.439  1.00  0.00    -0.360 N 
HETATM    4  C5  UNL     1      27.718  56.529  90.419  1.00  0.00     0.217 C 
HETATM    5  O1  UNL     1      28.440  55.533  90.665  1.00  0.00    -0.274 OA
ATOM      6  H1  UNL     1      26.193  57.738  91.281  1.00  0.00     0.162 HD
BRANCH   4   7
HETATM    7  C4  UNL     1      27.724  57.321  89.191  1.00  0.00     0.103 C 
BRANCH   7   8
HETATM    8  C3  UNL     1      26.434  57.450  88.473  1.00  0.00     0.009 C 
BRANCH   8   9
HETATM    9  C2  UNL     1      26.515  57.510  86.984  1.00  0.00    -0.004 C 
HETATM   10  C1  UNL     1      25.270  56.888  86.335  1.00  0.00     0.005 C 
ENDBRANCH   8   9
ENDBRANCH   7   8
ENDBRANCH   4   7
ENDBRANCH   2   3
ENDBRANCH   1   2
BRANCH   1  11
HETATM   11  N2  UNL     1      24.793  55.263  91.550  1.00  0.00    -0.341 N 
HETATM   12  C8  UNL     1      23.499  54.682  91.523  1.00  0.00     0.318 C 
HETATM   13  O2  UNL     1      23.139  54.044  92.571  1.00  0.00    -0.247 OA
HETATM   14  N3  UNL     1      22.649  54.805  90.389  1.00  0.00    -0.334 N 
HETATM   15  C9  UNL     1      21.347  54.173  90.465  1.00  0.00     0.127 C 
HETATM   16  C13 UNL     1      23.121  55.533  89.255  1.00  0.00     0.127 C 
HETATM   17  C10 UNL     1      20.934  53.828  89.050  1.00  0.00     0.020 C 
HETATM   18  C11 UNL     1      20.830  55.110  88.286  1.00  0.00     0.003 C 
HETATM   19  C12 UNL     1      22.091  55.898  88.247  1.00  0.00     0.020 C 
ATOM     20  H2  UNL     1      25.114  55.780  90.732  1.00  0.00     0.164 HD
ENDBRANCH   1  11
TORSDOF 6
ENDMDL
MODEL 5
REMARK VINA RESULT: -7.570829676      2.591      3.819
REMARK  6 active torsions:
REMARK  status: ('A' for Active; 'I' for Inactive)
REMARK    1  A    between atoms: C2_2  and  C3_3 
REMARK    2  A    between atoms: C3_3  and  C4_4 
REMARK    3  A    between atoms: C4_4  and  C5_5 
REMARK       I    between atoms: C5_5  and  N1_7 
REMARK    4  A    between atoms: N1_7  and  C6_9 
REMARK    5  A    between atoms: C6_9  and  C7_10 
REMARK    6  A    between atoms: C7_10  and  N2_11 
REMARK       I    between atoms: N2_11  and  C8_13 
REMARK       I    between atoms: C8_13  and  N3_15 
ROOT
HETATM    1  C7  UNL     1      25.642  57.147  86.626  1.00  0.00     0.144 C 
ENDROOT
BRANCH   1   2
HETATM    2  C6  UNL     1      26.954  57.845  86.475  1.00  0.00     0.142 C 
BRANCH   2   3
HETATM    3  N1  UNL     1      26.842  59.115  85.801  1.00  0.00    -0.360 N 
HETATM    4  C5  UNL     1      27.983  59.968  85.649  1.00  0.00     0.217 C 
HETATM    5  O1  UNL     1      29.068  59.558  86.125  1.00  0.00    -0.274 OA
ATOM      6  H1  UNL     1      25.940  59.410  85.428  1.00  0.00     0.162 HD
BRANCH   4   7
HETATM    7  C4  UNL     1      27.765  61.233  84.951  1.00  0.00     0.103 C 
BRANCH   7   8
HETATM    8  C3  UNL     1      26.792  61.222  83.833  1.00  0.00     0.009 C 
BRANCH   8   9
HETATM    9  C2  UNL     1      26.812  62.414  82.934  1.00  0.00    -0.004 C 
HETATM   10  C1  UNL     1      27.843  63.448  83.407  1.00  0.00     0.005 C 
ENDBRANCH   8   9
ENDBRANCH   7   8
ENDBRANCH   4   7
ENDBRANCH   2   3
ENDBRANCH   1   2
BRANCH   1  11
HETATM   11  N2  UNL     1      25.433  56.673  87.964  1.00  0.00    -0.341 N 
HETATM   12  C8  UNL     1      24.432  55.724  88.292  1.00  0.00     0.318 C 
HETATM   13  O2  UNL     1      23.710  55.301  87.324  1.00  0.00    -0.247 OA
HETATM   14  N3  UNL     1      24.243  55.268  89.626  1.00  0.00    -0.334 N 
HETATM   15  C9  UNL     1      23.190  54.296  89.851  1.00  0.00     0.127 C 
HETATM   16  C13 UNL     1      25.088  55.786  90.652  1.00  0.00     0.127 C 
HETATM   17  C10 UNL     1      22.718  54.473  91.279  1.00  0.00     0.020 C 
HETATM   18  C11 UNL     1      23.878  54.179  92.176  1.00  0.00     0.003 C 
HETATM   19  C12 UNL     1      25.061  55.050  91.944  1.00  0.00     0.020 C 
ATOM     20  H2  UNL     1      26.029  57.033  88.710  1.00  0.00     0.164 HD
ENDBRANCH   1  11
TORSDOF 6
ENDMDL
