MODEL 1
REMARK VINA RESULT: -7.420126067      0.000      0.000
REMARK  7 active torsions:
REMARK  status: ('A' for Active; 'I' for Inactive)
REMARK    1  A    between atoms: C1_2  and  N2_4 
REMARK    2  A    between atoms: N2_4  and  C2_6 
REMARK    3  A    between atoms: C2_6  and  C3_7 
REMARK    4  A    between atoms: C3_7  and  C4_8 
REMARK    5  A    between atoms: C4_8  and  C5_9 
REMARK    6  A    between atoms: C5_9  and  C6_10 
REMARK    7  A    between atoms: C6_10  and  C7_11 
REMARK       I    between atoms: C7_11  and  N3_13 
ROOT
HETATM    1  C5  UNL     1      26.425  57.065  88.795  1.00  0.00     0.009 C 
ENDROOT
BRANCH   1   2
HETATM    2  C4  UNL     1      26.795  57.711  87.505  1.00  0.00     0.002 C 
BRANCH   2   3
HETATM    3  C3  UNL     1      28.291  57.613  87.289  1.00  0.00     0.020 C 
BRANCH   3   4
HETATM    4  C2  UNL     1      28.995  58.921  87.259  1.00  0.00     0.121 C 
BRANCH   4   5
HETATM    5  N2  UNL     1      28.966  59.471  85.928  1.00  0.00    -0.369 N 
ATOM      6  H2  UNL     1      29.586  59.060  85.230  1.00  0.00     0.161 HD
BRANCH   5   7
HETATM    7  C1  UNL     1      28.141  60.535  85.524  1.00  0.00     0.180 C 
HETATM    8  N1  UNL     1      28.447  61.867  85.948  1.00  0.00    -0.070 NA
HETATM    9  S1  UNL     1      26.812  60.289  84.602  1.00  0.00    -0.044 SA
ENDBRANCH   5   7
ENDBRANCH   4   5
ENDBRANCH   3   4
ENDBRANCH   2   3
ENDBRANCH   1   2
BRANCH   1  10
HETATM   10  C6  UNL     1      24.963  56.680  88.766  1.00  0.00     0.103 C 
BRANCH  10  11
HETATM   11  C7  UNL     1      24.671  55.613  89.781  1.00  0.00     0.219 C 
HETATM   12  O1  UNL     1      25.549  55.246  90.607  1.00  0.00    -0.273 OA
HETATM   13  N3  UNL     1      23.380  55.035  89.779  1.00  0.00    -0.352 N 
HETATM   14  C8  UNL     1      22.412  55.490  88.824  1.00  0.00     0.125 C 
HETATM   15  C12 UNL     1      23.121  53.998  90.762  1.00  0.00     0.125 C 
HETATM   16  C9  UNL     1      21.151  54.742  88.730  1.00  0.00     0.020 C 
HETATM   17  C10 UNL     1      20.866  53.790  89.848  1.00  0.00     0.003 C 
HETATM   18  C11 UNL     1      21.652  54.081  91.099  1.00  0.00     0.020 C 
ENDBRANCH  10  11
ENDBRANCH   1  10
TORSDOF 7
ENDMDL
MODEL 2
REMARK VINA RESULT: -7.358465625      1.248      1.774
REMARK  7 active torsions:
REMARK  status: ('A' for Active; 'I' for Inactive)
REMARK    1  A    between atoms: C1_2  and  N2_4 
REMARK    2  A    between atoms: N2_4  and  C2_6 
REMARK    3  A    between atoms: C2_6  and  C3_7 
REMARK    4  A    between atoms: C3_7  and  C4_8 
REMARK    5  A    between atoms: C4_8  and  C5_9 
REMARK    6  A    between atoms: C5_9  and  C6_10 
REMARK    7  A    between atoms: C6_10  and  C7_11 
REMARK       I    between atoms: C7_11  and  N3_13 
ROOT
HETATM    1  C5  UNL     1      25.571  56.750  87.720  1.00  0.00     0.009 C 
ENDROOT
BRANCH   1   2
HETATM    2  C4  UNL     1      26.771  57.495  88.192  1.00  0.00     0.002 C 
BRANCH   2   3
HETATM    3  C3  UNL     1      27.769  57.634  87.061  1.00  0.00     0.020 C 
BRANCH   3   4
HETATM    4  C2  UNL     1      28.745  58.742  87.235  1.00  0.00     0.121 C 
BRANCH   4   5
HETATM    5  N2  UNL     1      28.931  59.442  85.991  1.00  0.00    -0.369 N 
ATOM      6  H2  UNL     1      29.675  59.121  85.372  1.00  0.00     0.161 HD
BRANCH   5   7
HETATM    7  C1  UNL     1      28.157  60.538  85.571  1.00  0.00     0.180 C 
HETATM    8  N1  UNL     1      28.458  61.846  86.065  1.00  0.00    -0.070 NA
HETATM    9  S1  UNL     1      26.892  60.354  84.551  1.00  0.00    -0.044 SA
ENDBRANCH   5   7
ENDBRANCH   4   5
ENDBRANCH   3   4
ENDBRANCH   2   3
ENDBRANCH   1   2
BRANCH   1  10
HETATM   10  C6  UNL     1      24.699  56.396  88.904  1.00  0.00     0.103 C 
BRANCH  10  11
HETATM   11  C7  UNL     1      23.303  56.069  88.461  1.00  0.00     0.219 C 
HETATM   12  O1  UNL     1      22.846  56.513  87.373  1.00  0.00    -0.273 OA
HETATM   13  N3  UNL     1      22.518  55.246  89.302  1.00  0.00    -0.352 N 
HETATM   14  C8  UNL     1      23.082  54.759  90.527  1.00  0.00     0.125 C 
HETATM   15  C12 UNL     1      21.167  54.948  88.859  1.00  0.00     0.125 C 
HETATM   16  C9  UNL     1      22.182  54.066  91.458  1.00  0.00     0.020 C 
HETATM   17  C10 UNL     1      20.854  53.653  90.906  1.00  0.00     0.003 C 
HETATM   18  C11 UNL     1      20.827  53.582  89.402  1.00  0.00     0.020 C 
ENDBRANCH  10  11
ENDBRANCH   1  10
TORSDOF 7
ENDMDL
MODEL 3
REMARK VINA RESULT: -7.313324028      1.853      2.329
REMARK  7 active torsions:
REMARK  status: ('A' for Active; 'I' for Inactive)
REMARK    1  A    between atoms: C1_2  and  N2_4 
REMARK    2  A    between atoms: N2_4  and  C2_6 
REMARK    3  A    between atoms: C2_6  and  C3_7 
REMARK    4  A    between atoms: C3_7  and  C4_8 
REMARK    5  A    between atoms: C4_8  and  C5_9 
REMARK    6  A    between atoms: C5_9  and  C6_10 
REMARK    7  A    between atoms: C6_10  and  C7_11 
REMARK       I    between atoms: C7_11  and  N3_13 
ROOT
HETATM    1  C5  UNL     1      27.259  56.982  89.388  1.00  0.00     0.009 C 
ENDROOT
BRANCH   1   2
HETATM    2  C4  UNL     1      26.963  57.775  88.162  1.00  0.00     0.002 C 
BRANCH   2   3
HETATM    3  C3  UNL     1      28.129  57.691  87.199  1.00  0.00     0.020 C 
BRANCH   3   4
HETATM    4  C2  UNL     1      28.998  58.896  87.179  1.00  0.00     0.121 C 
BRANCH   4   5
HETATM    5  N2  UNL     1      28.991  59.493  85.868  1.00  0.00    -0.369 N 
ATOM      6  H2  UNL     1      29.659  59.143  85.183  1.00  0.00     0.161 HD
BRANCH   5   7
HETATM    7  C1  UNL     1      28.124  60.526  85.470  1.00  0.00     0.180 C 
HETATM    8  N1  UNL     1      28.418  61.877  85.837  1.00  0.00    -0.070 NA
HETATM    9  S1  UNL     1      26.761  60.222  84.618  1.00  0.00    -0.044 SA
ENDBRANCH   5   7
ENDBRANCH   4   5
ENDBRANCH   3   4
ENDBRANCH   2   3
ENDBRANCH   1   2
BRANCH   1  10
HETATM   10  C6  UNL     1      25.963  56.602  90.068  1.00  0.00     0.103 C 
BRANCH  10  11
HETATM   11  C7  UNL     1      26.224  56.022  91.428  1.00  0.00     0.219 C 
HETATM   12  O1  UNL     1      27.321  56.216  92.017  1.00  0.00    -0.273 OA
HETATM   13  N3  UNL     1      25.198  55.254  92.027  1.00  0.00    -0.352 N 
HETATM   14  C8  UNL     1      23.964  55.066  91.321  1.00  0.00     0.125 C 
HETATM   15  C12 UNL     1      25.473  54.694  93.338  1.00  0.00     0.125 C 
HETATM   16  C9  UNL     1      23.000  54.114  91.888  1.00  0.00     0.020 C 
HETATM   17  C10 UNL     1      23.252  53.680  93.297  1.00  0.00     0.003 C 
HETATM   18  C11 UNL     1      24.151  54.617  94.061  1.00  0.00     0.020 C 
ENDBRANCH  10  11
ENDBRANCH   1  10
TORSDOF 7
ENDMDL
MODEL 4
REMARK VINA RESULT: -7.277647829      1.540      2.067
REMARK  7 active torsions:
REMARK  status: ('A' for Active; 'I' for Inactive)
REMARK    1  A    between atoms: C1_2  and  N2_4 
REMARK    2  A    between atoms: N2_4  and  C2_6 
REMARK    3  A    between atoms: C2_6  and  C3_7 
REMARK    4  A    between atoms: C3_7  and  C4_8 
REMARK    5  A    between atoms: C4_8  and  C5_9 
REMARK    6  A    between atoms: C5_9  and  C6_10 
REMARK    7  A    between atoms: C6_10  and  C7_11 
REMARK       I    between atoms: C7_11  and  N3_13 
ROOT
HETATM    1  C5  UNL     1      25.658  57.084  86.172  1.00  0.00     0.009 C 
ENDROOT
BRANCH   1   2
HETATM    2  C4  UNL     1      27.136  57.274  86.171  1.00  0.00     0.002 C 
BRANCH   2   3
HETATM    3  C3  UNL     1      27.532  58.242  87.267  1.00  0.00     0.020 C 
BRANCH   3   4
HETATM    4  C2  UNL     1      28.857  58.885  87.068  1.00  0.00     0.121 C 
BRANCH   4   5
HETATM    5  N2  UNL     1      28.912  59.523  85.778  1.00  0.00    -0.369 N 
ATOM      6  H2  UNL     1      29.513  59.106  85.067  1.00  0.00     0.161 HD
BRANCH   5   7
HETATM    7  C1  UNL     1      28.194  60.681  85.433  1.00  0.00     0.180 C 
HETATM    8  N1  UNL     1      28.494  61.920  86.083  1.00  0.00    -0.070 NA
HETATM    9  S1  UNL     1      26.994  60.647  84.321  1.00  0.00    -0.044 SA
ENDBRANCH   5   7
ENDBRANCH   4   5
ENDBRANCH   3   4
ENDBRANCH   2   3
ENDBRANCH   1   2
BRANCH   1  10
HETATM   10  C6  UNL     1      25.201  56.692  87.559  1.00  0.00     0.103 C 
BRANCH  10  11
HETATM   11  C7  UNL     1      23.760  56.271  87.547  1.00  0.00     0.219 C 
HETATM   12  O1  UNL     1      23.023  56.506  86.551  1.00  0.00    -0.273 OA
HETATM   13  N3  UNL     1      23.257  55.602  88.687  1.00  0.00    -0.352 N 
HETATM   14  C8  UNL     1      24.135  55.350  89.793  1.00  0.00     0.125 C 
HETATM   15  C12 UNL     1      21.859  55.211  88.659  1.00  0.00     0.125 C 
HETATM   16  C9  UNL     1      23.535  54.824  91.026  1.00  0.00     0.020 C 
HETATM   17  C10 UNL     1      22.139  54.300  90.908  1.00  0.00     0.003 C 
HETATM   18  C11 UNL     1      21.744  53.960  89.495  1.00  0.00     0.020 C 
ENDBRANCH  10  11
ENDBRANCH   1  10
TORSDOF 7
ENDMDL
MODEL 5
REMARK VINA RESULT: -7.267325921      1.728      2.422
REMARK  7 active torsions:
REMARK  status: ('A' for Active; 'I' for Inactive)
REMARK    1  A    between atoms: C1_2  and  N2_4 
REMARK    2  A    between atoms: N2_4  and  C2_6 
REMARK    3  A    between atoms: C2_6  and  C3_7 
REMARK    4  A    between atoms: C3_7  and  C4_8 
REMARK    5  A    between atoms: C4_8  and  C5_9 
REMARK    6  A    between atoms: C5_9  and  C6_10 
REMARK    7  A    between atoms: C6_10  and  C7_11 
REMARK       I    between atoms: C7_11  and  N3_13 
ROOT
HETATM    1  C5  UNL     1      25.266  56.653  88.519  1.00  0.00     0.009 C 
ENDROOT
BRANCH   1   2
HETATM    2  C4  UNL     1      26.284  57.450  89.259  1.00  0.00     0.002 C 
BRANCH   2   3
HETATM    3  C3  UNL     1      27.661  56.854  89.046  1.00  0.00     0.020 C 
BRANCH   3   4
HETATM    4  C2  UNL     1      28.156  56.937  87.647  1.00  0.00     0.121 C 
BRANCH   4   5
HETATM    5  N2  UNL     1      29.163  57.960  87.536  1.00  0.00    -0.369 N 
ATOM      6  H2  UNL     1      30.126  57.705  87.755  1.00  0.00     0.161 HD
BRANCH   5   7
HETATM    7  C1  UNL     1      28.909  59.287  87.146  1.00  0.00     0.180 C 
HETATM    8  N1  UNL     1      28.941  59.634  85.758  1.00  0.00    -0.070 NA
HETATM    9  S1  UNL     1      28.604  60.460  88.243  1.00  0.00    -0.044 SA
ENDBRANCH   5   7
ENDBRANCH   4   5
ENDBRANCH   3   4
ENDBRANCH   2   3
ENDBRANCH   1   2
BRANCH   1  10
HETATM   10  C6  UNL     1      24.456  55.835  89.500  1.00  0.00     0.103 C 
BRANCH  10  11
HETATM   11  C7  UNL     1      23.080  55.565  88.962  1.00  0.00     0.219 C 
HETATM   12  O1  UNL     1      22.724  56.011  87.838  1.00  0.00    -0.273 OA
HETATM   13  N3  UNL     1      22.200  54.794  89.756  1.00  0.00    -0.352 N 
HETATM   14  C8  UNL     1      22.652  54.303  91.025  1.00  0.00     0.125 C 
HETATM   15  C12 UNL     1      20.871  54.552  89.222  1.00  0.00     0.125 C 
HETATM   16  C9  UNL     1      21.656  53.669  91.899  1.00  0.00     0.020 C 
HETATM   17  C10 UNL     1      20.353  53.308  91.259  1.00  0.00     0.003 C 
HETATM   18  C11 UNL     1      20.428  53.213  89.757  1.00  0.00     0.020 C 
ENDBRANCH  10  11
ENDBRANCH   1  10
TORSDOF 7
ENDMDL
