MODEL 1
REMARK VINA RESULT: -5.411145532      0.000      0.000
REMARK  3 active torsions:
REMARK  status: ('A' for Active; 'I' for Inactive)
REMARK    1  A    between atoms: C3_3  and  S1_4 
REMARK    2  A    between atoms: S1_4  and  C4_5 
REMARK    3  A    between atoms: C4_5  and  C5_6 
ROOT
HETATM    1  C1  UNL     1       0.373  26.252  14.930  1.00  0.00     0.168 C 
HETATM    2  C2  UNL     1      -1.046  26.737  15.151  1.00  0.00     0.043 C 
HETATM    3  C3  UNL     1      -1.796  25.684  14.326  1.00  0.00     0.073 C 
HETATM    4  C8  UNL     1      -0.818  25.533  13.177  1.00  0.00     0.182 C 
HETATM    5  O1  UNL     1       0.443  25.720  13.671  1.00  0.00    -0.390 OA
ENDROOT
BRANCH   3   6
HETATM    6  S1  UNL     1      -3.400  26.313  13.776  1.00  0.00    -0.162 SA
BRANCH   6   7
HETATM    7  C4  UNL     1      -3.452  28.084  14.127  1.00  0.00     0.079 C 
BRANCH   7   8
HETATM    8  C5  UNL     1      -3.203  28.925  12.911  1.00  0.00    -0.005 A 
HETATM    9  C6  UNL     1      -2.814  28.311  11.642  1.00  0.00     0.006 A 
HETATM   10  C7  UNL     1      -1.793  29.137  12.431  1.00  0.00     0.006 A 
ENDBRANCH   7   8
ENDBRANCH   6   7
ENDBRANCH   3   6
TORSDOF 3
ENDMDL
MODEL 2
REMARK VINA RESULT: -5.304981456      1.459      1.693
REMARK  3 active torsions:
REMARK  status: ('A' for Active; 'I' for Inactive)
REMARK    1  A    between atoms: C3_3  and  S1_4 
REMARK    2  A    between atoms: S1_4  and  C4_5 
REMARK    3  A    between atoms: C4_5  and  C5_6 
ROOT
HETATM    1  C1  UNL     1       0.300  26.899  15.635  1.00  0.00     0.168 C 
HETATM    2  C2  UNL     1      -0.910  26.221  15.021  1.00  0.00     0.043 C 
HETATM    3  C3  UNL     1      -0.381  26.020  13.596  1.00  0.00     0.073 C 
HETATM    4  C8  UNL     1       0.391  27.316  13.438  1.00  0.00     0.182 C 
HETATM    5  O1  UNL     1       0.892  27.658  14.663  1.00  0.00    -0.390 OA
ENDROOT
BRANCH   3   6
HETATM    6  S1  UNL     1      -1.742  25.891  12.413  1.00  0.00    -0.162 SA
BRANCH   6   7
HETATM    7  C4  UNL     1      -3.276  26.274  13.286  1.00  0.00     0.079 C 
BRANCH   7   8
HETATM    8  C5  UNL     1      -3.799  27.643  12.970  1.00  0.00    -0.005 A 
HETATM    9  C6  UNL     1      -2.983  28.603  12.227  1.00  0.00     0.006 A 
HETATM   10  C7  UNL     1      -3.260  28.833  13.716  1.00  0.00     0.006 A 
ENDBRANCH   7   8
ENDBRANCH   6   7
ENDBRANCH   3   6
TORSDOF 3
ENDMDL
MODEL 3
REMARK VINA RESULT: -5.300362846      3.405      4.850
REMARK  3 active torsions:
REMARK  status: ('A' for Active; 'I' for Inactive)
REMARK    1  A    between atoms: C3_3  and  S1_4 
REMARK    2  A    between atoms: S1_4  and  C4_5 
REMARK    3  A    between atoms: C4_5  and  C5_6 
ROOT
HETATM    1  C1  UNL     1       1.646  24.383   9.404  1.00  0.00     0.168 C 
HETATM    2  C2  UNL     1       1.654  25.684  10.184  1.00  0.00     0.043 C 
HETATM    3  C3  UNL     1       2.457  25.228  11.409  1.00  0.00     0.073 C 
HETATM    4  C8  UNL     1       1.903  23.824  11.555  1.00  0.00     0.182 C 
HETATM    5  O1  UNL     1       1.614  23.354  10.305  1.00  0.00    -0.390 OA
ENDROOT
BRANCH   3   6
HETATM    6  S1  UNL     1       2.085  26.259  12.847  1.00  0.00    -0.162 SA
BRANCH   6   7
HETATM    7  C4  UNL     1       0.301  26.207  13.122  1.00  0.00     0.079 C 
BRANCH   7   8
HETATM    8  C5  UNL     1      -0.060  25.956  14.555  1.00  0.00    -0.005 A 
HETATM    9  C6  UNL     1      -1.116  26.730  15.208  1.00  0.00     0.006 A 
HETATM   10  C7  UNL     1       0.345  26.952  15.607  1.00  0.00     0.006 A 
ENDBRANCH   7   8
ENDBRANCH   6   7
ENDBRANCH   3   6
TORSDOF 3
ENDMDL
MODEL 4
REMARK VINA RESULT: -5.297549436      1.036      1.216
REMARK  3 active torsions:
REMARK  status: ('A' for Active; 'I' for Inactive)
REMARK    1  A    between atoms: C3_3  and  S1_4 
REMARK    2  A    between atoms: S1_4  and  C4_5 
REMARK    3  A    between atoms: C4_5  and  C5_6 
ROOT
HETATM    1  C1  UNL     1       0.973  26.282  13.885  1.00  0.00     0.168 C 
HETATM    2  C2  UNL     1      -0.186  26.444  14.850  1.00  0.00     0.043 C 
HETATM    3  C3  UNL     1      -1.170  25.452  14.218  1.00  0.00     0.073 C 
HETATM    4  C8  UNL     1      -0.871  25.711  12.754  1.00  0.00     0.182 C 
HETATM    5  O1  UNL     1       0.454  26.028  12.645  1.00  0.00    -0.390 OA
ENDROOT
BRANCH   3   6
HETATM    6  S1  UNL     1      -2.876  25.869  14.648  1.00  0.00    -0.162 SA
BRANCH   6   7
HETATM    7  C4  UNL     1      -3.688  26.489  13.159  1.00  0.00     0.079 C 
BRANCH   7   8
HETATM    8  C5  UNL     1      -3.871  27.977  13.173  1.00  0.00    -0.005 A 
HETATM    9  C6  UNL     1      -2.987  28.847  12.398  1.00  0.00     0.006 A 
HETATM   10  C7  UNL     1      -2.895  28.838  13.926  1.00  0.00     0.006 A 
ENDBRANCH   7   8
ENDBRANCH   6   7
ENDBRANCH   3   6
TORSDOF 3
ENDMDL
MODEL 5
REMARK VINA RESULT: -5.257040077      2.913      3.835
REMARK  3 active torsions:
REMARK  status: ('A' for Active; 'I' for Inactive)
REMARK    1  A    between atoms: C3_3  and  S1_4 
REMARK    2  A    between atoms: S1_4  and  C4_5 
REMARK    3  A    between atoms: C4_5  and  C5_6 
ROOT
HETATM    1  C1  UNL     1       1.608  24.380   9.339  1.00  0.00     0.168 C 
HETATM    2  C2  UNL     1       0.685  25.584   9.331  1.00  0.00     0.043 C 
HETATM    3  C3  UNL     1       0.606  25.841  10.840  1.00  0.00     0.073 C 
HETATM    4  C8  UNL     1       0.590  24.406  11.332  1.00  0.00     0.182 C 
HETATM    5  O1  UNL     1       1.346  23.659  10.472  1.00  0.00    -0.390 OA
ENDROOT
BRANCH   3   6
HETATM    6  S1  UNL     1      -0.913  26.723  11.269  1.00  0.00    -0.162 SA
BRANCH   6   7
HETATM    7  C4  UNL     1      -0.467  28.113  12.332  1.00  0.00     0.079 C 
BRANCH   7   8
HETATM    8  C5  UNL     1      -1.572  29.116  12.473  1.00  0.00    -0.005 A 
HETATM    9  C6  UNL     1      -2.697  28.869  13.375  1.00  0.00     0.006 A 
HETATM   10  C7  UNL     1      -2.916  28.831  11.860  1.00  0.00     0.006 A 
ENDBRANCH   7   8
ENDBRANCH   6   7
ENDBRANCH   3   6
TORSDOF 3
ENDMDL
