MODEL 1
REMARK VINA RESULT: -5.798409514      0.000      0.000
REMARK  3 active torsions:
REMARK  status: ('A' for Active; 'I' for Inactive)
REMARK    1  A    between atoms: C1_2  and  C2_3 
REMARK    2  A    between atoms: C2_3  and  C3_5 
REMARK    3  A    between atoms: C3_5  and  C4_6 
ROOT
HETATM    1  C4  UNL     1       0.533  26.104  13.407  1.00  0.00     0.054 C 
HETATM    2  C5  UNL     1       0.156  26.043  14.861  1.00  0.00     0.015 C 
HETATM    3  C6  UNL     1      -1.224  26.618  15.082  1.00  0.00     0.002 C 
HETATM    4  C7  UNL     1      -2.293  25.813  14.385  1.00  0.00     0.010 C 
HETATM    5  C8  UNL     1      -2.324  26.086  12.897  1.00  0.00     0.074 C 
HETATM    6  S1  UNL     1      -0.785  26.971  12.515  1.00  0.00    -0.164 SA
ENDROOT
BRANCH   1   7
HETATM    7  C3  UNL     1       1.876  26.764  13.194  1.00  0.00     0.101 C 
BRANCH   7   8
HETATM    8  C2  UNL     1       2.722  25.859  12.369  1.00  0.00     0.187 C 
HETATM    9  O2  UNL     1       3.977  25.894  12.445  1.00  0.00    -0.290 OA
BRANCH   8  10
HETATM   10  C1  UNL     1       2.132  24.912  11.457  1.00  0.00     0.308 C 
HETATM   11  O1  UNL     1       2.416  23.703  11.565  1.00  0.00    -0.298 OA
ENDBRANCH   8  10
ENDBRANCH   7   8
ENDBRANCH   1   7
TORSDOF 3
ENDMDL
MODEL 2
REMARK VINA RESULT: -5.749355531      2.500      3.063
REMARK  3 active torsions:
REMARK  status: ('A' for Active; 'I' for Inactive)
REMARK    1  A    between atoms: C1_2  and  C2_3 
REMARK    2  A    between atoms: C2_3  and  C3_5 
REMARK    3  A    between atoms: C3_5  and  C4_6 
ROOT
HETATM    1  C4  UNL     1      -0.892  27.635  12.355  1.00  0.00     0.054 C 
HETATM    2  C5  UNL     1      -1.556  28.977  12.217  1.00  0.00     0.015 C 
HETATM    3  C6  UNL     1      -3.032  28.878  12.524  1.00  0.00     0.002 C 
HETATM    4  C7  UNL     1      -3.290  28.480  13.956  1.00  0.00     0.010 C 
HETATM    5  C8  UNL     1      -3.058  27.002  14.180  1.00  0.00     0.074 C 
HETATM    6  S1  UNL     1      -2.172  26.402  12.711  1.00  0.00    -0.164 SA
ENDROOT
BRANCH   1   7
HETATM    7  C3  UNL     1      -0.092  27.266  11.126  1.00  0.00     0.101 C 
BRANCH   7   8
HETATM    8  C2  UNL     1       1.353  27.280  11.480  1.00  0.00     0.187 C 
HETATM    9  O2  UNL     1       1.731  27.188  12.676  1.00  0.00    -0.290 OA
BRANCH   8  10
HETATM   10  C1  UNL     1       2.368  27.399  10.464  1.00  0.00     0.308 C 
HETATM   11  O1  UNL     1       3.141  28.378  10.487  1.00  0.00    -0.298 OA
ENDBRANCH   8  10
ENDBRANCH   7   8
ENDBRANCH   1   7
TORSDOF 3
ENDMDL
MODEL 3
REMARK VINA RESULT: -5.732967601      1.704      2.069
REMARK  3 active torsions:
REMARK  status: ('A' for Active; 'I' for Inactive)
REMARK    1  A    between atoms: C1_2  and  C2_3 
REMARK    2  A    between atoms: C2_3  and  C3_5 
REMARK    3  A    between atoms: C3_5  and  C4_6 
ROOT
HETATM    1  C4  UNL     1      -0.208  25.058  12.663  1.00  0.00     0.054 C 
HETATM    2  C5  UNL     1      -0.151  25.111  14.164  1.00  0.00     0.015 C 
HETATM    3  C6  UNL     1      -1.113  26.145  14.701  1.00  0.00     0.002 C 
HETATM    4  C7  UNL     1      -2.550  25.797  14.395  1.00  0.00     0.010 C 
HETATM    5  C8  UNL     1      -2.904  26.091  12.953  1.00  0.00     0.074 C 
HETATM    6  S1  UNL     1      -1.329  26.363  12.091  1.00  0.00    -0.164 SA
ENDROOT
BRANCH   1   7
HETATM    7  C3  UNL     1       1.162  25.188  12.036  1.00  0.00     0.101 C 
BRANCH   7   8
HETATM    8  C2  UNL     1       1.373  24.036  11.118  1.00  0.00     0.187 C 
HETATM    9  O2  UNL     1       1.435  22.859  11.555  1.00  0.00    -0.290 OA
BRANCH   8  10
HETATM   10  C1  UNL     1       1.513  24.231   9.697  1.00  0.00     0.308 C 
HETATM   11  O1  UNL     1       0.853  25.129   9.137  1.00  0.00    -0.298 OA
ENDBRANCH   8  10
ENDBRANCH   7   8
ENDBRANCH   1   7
TORSDOF 3
ENDMDL
MODEL 4
REMARK VINA RESULT: -5.656195756      1.216      1.716
REMARK  3 active torsions:
REMARK  status: ('A' for Active; 'I' for Inactive)
REMARK    1  A    between atoms: C1_2  and  C2_3 
REMARK    2  A    between atoms: C2_3  and  C3_5 
REMARK    3  A    between atoms: C3_5  and  C4_6 
ROOT
HETATM    1  C4  UNL     1       0.784  26.293  13.481  1.00  0.00     0.054 C 
HETATM    2  C5  UNL     1       0.367  26.233  14.924  1.00  0.00     0.015 C 
HETATM    3  C6  UNL     1      -1.076  26.654  15.082  1.00  0.00     0.002 C 
HETATM    4  C7  UNL     1      -2.023  25.712  14.380  1.00  0.00     0.010 C 
HETATM    5  C8  UNL     1      -2.033  25.935  12.884  1.00  0.00     0.074 C 
HETATM    6  S1  UNL     1      -0.591  26.978  12.520  1.00  0.00    -0.164 SA
ENDROOT
BRANCH   1   7
HETATM    7  C3  UNL     1       2.051  27.095  13.287  1.00  0.00     0.101 C 
BRANCH   7   8
HETATM    8  C2  UNL     1       2.737  26.607  12.060  1.00  0.00     0.187 C 
HETATM    9  O2  UNL     1       3.382  25.528  12.061  1.00  0.00    -0.290 OA
BRANCH   8  10
HETATM   10  C1  UNL     1       2.685  27.355  10.829  1.00  0.00     0.308 C 
HETATM   11  O1  UNL     1       3.313  28.430  10.742  1.00  0.00    -0.298 OA
ENDBRANCH   8  10
ENDBRANCH   7   8
ENDBRANCH   1   7
TORSDOF 3
ENDMDL
MODEL 5
REMARK VINA RESULT: -5.649222191      1.868      2.316
REMARK  3 active torsions:
REMARK  status: ('A' for Active; 'I' for Inactive)
REMARK    1  A    between atoms: C1_2  and  C2_3 
REMARK    2  A    between atoms: C2_3  and  C3_5 
REMARK    3  A    between atoms: C3_5  and  C4_6 
ROOT
HETATM    1  C4  UNL     1      -0.661  27.460  12.516  1.00  0.00     0.054 C 
HETATM    2  C5  UNL     1      -1.441  28.719  12.258  1.00  0.00     0.015 C 
HETATM    3  C6  UNL     1      -2.884  28.401  11.943  1.00  0.00     0.002 C 
HETATM    4  C7  UNL     1      -3.592  27.756  13.109  1.00  0.00     0.010 C 
HETATM    5  C8  UNL     1      -3.215  26.298  13.260  1.00  0.00     0.074 C 
HETATM    6  S1  UNL     1      -1.752  26.045  12.213  1.00  0.00    -0.164 SA
ENDROOT
BRANCH   1   7
HETATM    7  C3  UNL     1       0.593  27.384  11.675  1.00  0.00     0.101 C 
BRANCH   7   8
HETATM    8  C2  UNL     1       1.429  26.258  12.172  1.00  0.00     0.187 C 
HETATM    9  O2  UNL     1       1.772  26.186  13.380  1.00  0.00    -0.290 OA
BRANCH   8  10
HETATM   10  C1  UNL     1       1.873  25.211  11.286  1.00  0.00     0.308 C 
HETATM   11  O1  UNL     1       2.664  24.346  11.713  1.00  0.00    -0.298 OA
ENDBRANCH   8  10
ENDBRANCH   7   8
ENDBRANCH   1   7
TORSDOF 3
ENDMDL
