MODEL 1
REMARK VINA RESULT: -6.317537140      0.000      0.000
REMARK  3 active torsions:
REMARK  status: ('A' for Active; 'I' for Inactive)
REMARK    1  A    between atoms: C2_2  and  C3_3 
REMARK    2  A    between atoms: C3_3  and  C4_4 
REMARK    3  A    between atoms: C6_7  and  C7_8 
ROOT
HETATM    1  C4  UNL     1      -0.963  26.212  13.008  1.00  0.00     0.187 C 
HETATM    2  C5  UNL     1      -1.277  25.485  11.724  1.00  0.00     0.206 C 
HETATM    3  O1  UNL     1      -0.434  25.960  10.748  1.00  0.00    -0.355 OA
HETATM    4  C6  UNL     1       0.695  26.527  11.299  1.00  0.00     0.300 C 
HETATM    5  O2  UNL     1       0.422  27.625  12.113  1.00  0.00    -0.207 OA
HETATM    6  O3  UNL     1      -0.754  27.542  12.696  1.00  0.00    -0.231 OA
ENDROOT
BRANCH   1   7
HETATM    7  C3  UNL     1      -2.041  26.008  14.045  1.00  0.00     0.063 C 
BRANCH   7   8
HETATM    8  C2  UNL     1      -3.408  26.021  13.483  1.00  0.00    -0.034 C 
HETATM    9  C1  UNL     1      -4.154  27.105  13.520  1.00  0.00     0.007 C 
ENDBRANCH   7   8
ENDBRANCH   1   7
BRANCH   4  10
HETATM   10  C7  UNL     1       1.650  27.010  10.225  1.00  0.00     0.044 A 
HETATM   11  C8  UNL     1       2.814  27.840  10.576  1.00  0.00     0.010 A 
HETATM   12  C9  UNL     1       3.026  26.397  10.276  1.00  0.00     0.010 A 
ENDBRANCH   4  10
TORSDOF 3
ENDMDL
MODEL 2
REMARK VINA RESULT: -6.276554812      1.582      2.196
REMARK  3 active torsions:
REMARK  status: ('A' for Active; 'I' for Inactive)
REMARK    1  A    between atoms: C2_2  and  C3_3 
REMARK    2  A    between atoms: C3_3  and  C4_4 
REMARK    3  A    between atoms: C6_7  and  C7_8 
ROOT
HETATM    1  C4  UNL     1      -2.143  26.194  13.120  1.00  0.00     0.187 C 
HETATM    2  C5  UNL     1      -1.474  25.505  14.284  1.00  0.00     0.206 C 
HETATM    3  O1  UNL     1      -0.184  25.206  13.919  1.00  0.00    -0.355 OA
HETATM    4  C6  UNL     1       0.242  26.016  12.888  1.00  0.00     0.300 C 
HETATM    5  O2  UNL     1      -0.511  25.871  11.724  1.00  0.00    -0.207 OA
HETATM    6  O3  UNL     1      -1.759  25.535  11.967  1.00  0.00    -0.231 OA
ENDROOT
BRANCH   1   7
HETATM    7  C3  UNL     1      -3.640  26.262  13.295  1.00  0.00     0.063 C 
BRANCH   7   8
HETATM    8  C2  UNL     1      -4.152  27.639  13.455  1.00  0.00    -0.034 C 
HETATM    9  C1  UNL     1      -3.436  28.684  13.097  1.00  0.00     0.007 C 
ENDBRANCH   7   8
ENDBRANCH   1   7
BRANCH   4  10
HETATM   10  C7  UNL     1       1.681  25.722  12.514  1.00  0.00     0.044 A 
HETATM   11  C8  UNL     1       2.371  26.533  11.497  1.00  0.00     0.010 A 
HETATM   12  C9  UNL     1       2.675  26.775  12.935  1.00  0.00     0.010 A 
ENDBRANCH   4  10
TORSDOF 3
ENDMDL
MODEL 3
REMARK VINA RESULT: -6.251890967      1.764      4.913
REMARK  3 active torsions:
REMARK  status: ('A' for Active; 'I' for Inactive)
REMARK    1  A    between atoms: C2_2  and  C3_3 
REMARK    2  A    between atoms: C3_3  and  C4_4 
REMARK    3  A    between atoms: C6_7  and  C7_8 
ROOT
HETATM    1  C4  UNL     1       0.037  25.807  12.220  1.00  0.00     0.187 C 
HETATM    2  C5  UNL     1       0.147  27.154  11.550  1.00  0.00     0.206 C 
HETATM    3  O1  UNL     1      -1.102  27.726  11.534  1.00  0.00    -0.355 OA
HETATM    4  C6  UNL     1      -1.911  27.183  12.510  1.00  0.00     0.300 C 
HETATM    5  O2  UNL     1      -2.131  25.816  12.349  1.00  0.00    -0.207 OA
HETATM    6  O3  UNL     1      -1.122  25.206  11.766  1.00  0.00    -0.231 OA
ENDROOT
BRANCH   1   7
HETATM    7  C3  UNL     1       1.270  24.966  11.993  1.00  0.00     0.063 C 
BRANCH   7   8
HETATM    8  C2  UNL     1       1.108  23.962  10.921  1.00  0.00    -0.034 C 
HETATM    9  C1  UNL     1       1.547  24.185   9.700  1.00  0.00     0.007 C 
ENDBRANCH   7   8
ENDBRANCH   1   7
BRANCH   4  10
HETATM   10  C7  UNL     1      -3.275  27.844  12.526  1.00  0.00     0.044 A 
HETATM   11  C8  UNL     1      -4.330  27.361  13.433  1.00  0.00     0.010 A 
HETATM   12  C9  UNL     1      -3.596  28.608  13.786  1.00  0.00     0.010 A 
ENDBRANCH   4  10
TORSDOF 3
ENDMDL
MODEL 4
REMARK VINA RESULT: -6.212680982      1.128      5.049
REMARK  3 active torsions:
REMARK  status: ('A' for Active; 'I' for Inactive)
REMARK    1  A    between atoms: C2_2  and  C3_3 
REMARK    2  A    between atoms: C3_3  and  C4_4 
REMARK    3  A    between atoms: C6_7  and  C7_8 
ROOT
HETATM    1  C4  UNL     1      -0.354  26.775  10.826  1.00  0.00     0.187 C 
HETATM    2  C5  UNL     1      -0.682  25.470  11.510  1.00  0.00     0.206 C 
HETATM    3  O1  UNL     1      -1.466  25.748  12.603  1.00  0.00    -0.355 OA
HETATM    4  C6  UNL     1      -2.098  26.966  12.467  1.00  0.00     0.300 C 
HETATM    5  O2  UNL     1      -1.215  28.039  12.368  1.00  0.00    -0.207 OA
HETATM    6  O3  UNL     1      -0.072  27.704  11.810  1.00  0.00    -0.231 OA
ENDROOT
BRANCH   1   7
HETATM    7  C3  UNL     1       0.762  26.615   9.822  1.00  0.00     0.063 C 
BRANCH   7   8
HETATM    8  C2  UNL     1       2.109  26.767  10.410  1.00  0.00    -0.034 C 
HETATM    9  C1  UNL     1       2.912  27.743  10.043  1.00  0.00     0.007 C 
ENDBRANCH   7   8
ENDBRANCH   1   7
BRANCH   4  10
HETATM   10  C7  UNL     1      -3.001  27.254  13.650  1.00  0.00     0.044 A 
HETATM   11  C8  UNL     1      -3.721  28.534  13.748  1.00  0.00     0.010 A 
HETATM   12  C9  UNL     1      -4.472  27.319  13.325  1.00  0.00     0.010 A 
ENDBRANCH   4  10
TORSDOF 3
ENDMDL
MODEL 5
REMARK VINA RESULT: -6.206819426      1.710      5.085
REMARK  3 active torsions:
REMARK  status: ('A' for Active; 'I' for Inactive)
REMARK    1  A    between atoms: C2_2  and  C3_3 
REMARK    2  A    between atoms: C3_3  and  C4_4 
REMARK    3  A    between atoms: C6_7  and  C7_8 
ROOT
HETATM    1  C4  UNL     1       0.149  26.133  12.450  1.00  0.00     0.187 C 
HETATM    2  C5  UNL     1       0.154  27.449  11.711  1.00  0.00     0.206 C 
HETATM    3  O1  UNL     1      -1.143  27.892  11.621  1.00  0.00    -0.355 OA
HETATM    4  C6  UNL     1      -1.933  27.323  12.597  1.00  0.00     0.300 C 
HETATM    5  O2  UNL     1      -2.013  25.935  12.504  1.00  0.00    -0.207 OA
HETATM    6  O3  UNL     1      -0.927  25.399  11.990  1.00  0.00    -0.231 OA
ENDROOT
BRANCH   1   7
HETATM    7  C3  UNL     1       1.466  25.408  12.311  1.00  0.00     0.063 C 
BRANCH   7   8
HETATM    8  C2  UNL     1       2.636  26.243  12.653  1.00  0.00    -0.034 C 
HETATM    9  C1  UNL     1       3.846  25.931  12.239  1.00  0.00     0.007 C 
ENDBRANCH   7   8
ENDBRANCH   1   7
BRANCH   4  10
HETATM   10  C7  UNL     1      -3.354  27.845  12.530  1.00  0.00     0.044 A 
HETATM   11  C8  UNL     1      -4.377  27.353  13.468  1.00  0.00     0.010 A 
HETATM   12  C9  UNL     1      -3.774  28.695  13.703  1.00  0.00     0.010 A 
ENDBRANCH   4  10
TORSDOF 3
ENDMDL
