MODEL 1
REMARK VINA RESULT: -5.078639624      0.000      0.000
REMARK  3 active torsions:
REMARK  status: ('A' for Active; 'I' for Inactive)
REMARK    1  A    between atoms: S1_3  and  C2_4 
REMARK    2  A    between atoms: C2_4  and  C3_5 
REMARK    3  A    between atoms: C3_5  and  C4_6 
ROOT
HETATM    1  N1  UNL     1      -1.285  29.281  12.498  1.00  0.00    -0.184 NA
HETATM    2  C1  UNL     1      -2.285  28.809  12.876  1.00  0.00     0.133 C 
HETATM    3  S1  UNL     1      -3.784  28.070  13.438  1.00  0.00    -0.051 SA
ENDROOT
BRANCH   3   4
HETATM    4  C2  UNL     1      -3.582  26.294  13.406  1.00  0.00     0.092 C 
BRANCH   4   5
HETATM    5  C3  UNL     1      -2.873  25.749  14.608  1.00  0.00     0.043 C 
BRANCH   5   6
HETATM    6  C4  UNL     1      -1.445  25.361  14.316  1.00  0.00     0.122 C 
HETATM    7  C5  UNL     1      -0.495  26.316  15.006  1.00  0.00     0.034 C 
HETATM    8  C6  UNL     1       0.695  26.389  14.070  1.00  0.00     0.029 C 
HETATM    9  C7  UNL     1       0.271  25.391  13.001  1.00  0.00     0.168 C 
HETATM   10  O1  UNL     1      -1.138  25.487  12.965  1.00  0.00    -0.386 OA
ENDBRANCH   5   6
ENDBRANCH   4   5
ENDBRANCH   3   4
TORSDOF 3
ENDMDL
MODEL 2
REMARK VINA RESULT: -5.020292926      3.340      4.568
REMARK  3 active torsions:
REMARK  status: ('A' for Active; 'I' for Inactive)
REMARK    1  A    between atoms: S1_3  and  C2_4 
REMARK    2  A    between atoms: C2_4  and  C3_5 
REMARK    3  A    between atoms: C3_5  and  C4_6 
ROOT
HETATM    1  N1  UNL     1       3.118  28.147  10.404  1.00  0.00    -0.184 NA
HETATM    2  C1  UNL     1       2.284  27.371  10.144  1.00  0.00     0.133 C 
HETATM    3  S1  UNL     1       1.015  26.202   9.779  1.00  0.00    -0.051 SA
ENDROOT
BRANCH   3   4
HETATM    4  C2  UNL     1      -0.112  26.145  11.166  1.00  0.00     0.092 C 
BRANCH   4   5
HETATM    5  C3  UNL     1      -0.544  27.497  11.644  1.00  0.00     0.043 C 
BRANCH   5   6
HETATM    6  C4  UNL     1      -2.034  27.587  11.867  1.00  0.00     0.122 C 
HETATM    7  C5  UNL     1      -2.424  29.009  12.208  1.00  0.00     0.034 C 
HETATM    8  C6  UNL     1      -3.597  28.849  13.155  1.00  0.00     0.029 C 
HETATM    9  C7  UNL     1      -3.751  27.335  13.157  1.00  0.00     0.168 C 
HETATM   10  O1  UNL     1      -2.439  26.845  12.972  1.00  0.00    -0.386 OA
ENDBRANCH   5   6
ENDBRANCH   4   5
ENDBRANCH   3   4
TORSDOF 3
ENDMDL
MODEL 3
REMARK VINA RESULT: -4.977157998      2.968      4.317
REMARK  3 active torsions:
REMARK  status: ('A' for Active; 'I' for Inactive)
REMARK    1  A    between atoms: S1_3  and  C2_4 
REMARK    2  A    between atoms: C2_4  and  C3_5 
REMARK    3  A    between atoms: C3_5  and  C4_6 
ROOT
HETATM    1  N1  UNL     1       1.888  23.302  11.297  1.00  0.00    -0.184 NA
HETATM    2  C1  UNL     1       0.995  24.041  11.454  1.00  0.00     0.133 C 
HETATM    3  S1  UNL     1      -0.342  25.160  11.718  1.00  0.00    -0.051 SA
ENDROOT
BRANCH   3   4
HETATM    4  C2  UNL     1      -0.117  25.938  13.312  1.00  0.00     0.092 C 
BRANCH   4   5
HETATM    5  C3  UNL     1      -1.070  25.447  14.358  1.00  0.00     0.043 C 
BRANCH   5   6
HETATM    6  C4  UNL     1      -2.203  26.411  14.612  1.00  0.00     0.122 C 
HETATM    7  C5  UNL     1      -3.430  25.987  13.833  1.00  0.00     0.034 C 
HETATM    8  C6  UNL     1      -4.111  27.296  13.485  1.00  0.00     0.029 C 
HETATM    9  C7  UNL     1      -3.195  28.286  14.191  1.00  0.00     0.168 C 
HETATM   10  O1  UNL     1      -1.917  27.686  14.136  1.00  0.00    -0.386 OA
ENDBRANCH   5   6
ENDBRANCH   4   5
ENDBRANCH   3   4
TORSDOF 3
ENDMDL
MODEL 4
REMARK VINA RESULT: -4.960597776      3.092      4.511
REMARK  3 active torsions:
REMARK  status: ('A' for Active; 'I' for Inactive)
REMARK    1  A    between atoms: S1_3  and  C2_4 
REMARK    2  A    between atoms: C2_4  and  C3_5 
REMARK    3  A    between atoms: C3_5  and  C4_6 
ROOT
HETATM    1  N1  UNL     1       3.065  28.165  10.153  1.00  0.00    -0.184 NA
HETATM    2  C1  UNL     1       2.702  27.585  11.101  1.00  0.00     0.133 C 
HETATM    3  S1  UNL     1       2.131  26.725  12.530  1.00  0.00    -0.051 SA
ENDROOT
BRANCH   3   4
HETATM    4  C2  UNL     1       0.426  27.184  12.817  1.00  0.00     0.092 C 
BRANCH   4   5
HETATM    5  C3  UNL     1      -0.323  27.521  11.565  1.00  0.00     0.043 C 
BRANCH   5   6
HETATM    6  C4  UNL     1      -1.816  27.582  11.778  1.00  0.00     0.122 C 
HETATM    7  C5  UNL     1      -2.232  28.992  12.140  1.00  0.00     0.034 C 
HETATM    8  C6  UNL     1      -3.410  28.797  13.074  1.00  0.00     0.029 C 
HETATM    9  C7  UNL     1      -3.539  27.280  13.050  1.00  0.00     0.168 C 
HETATM   10  O1  UNL     1      -2.217  26.815  12.867  1.00  0.00    -0.386 OA
ENDBRANCH   5   6
ENDBRANCH   4   5
ENDBRANCH   3   4
TORSDOF 3
ENDMDL
MODEL 5
REMARK VINA RESULT: -4.954469219      3.078      4.287
REMARK  3 active torsions:
REMARK  status: ('A' for Active; 'I' for Inactive)
REMARK    1  A    between atoms: S1_3  and  C2_4 
REMARK    2  A    between atoms: C2_4  and  C3_5 
REMARK    3  A    between atoms: C3_5  and  C4_6 
ROOT
HETATM    1  N1  UNL     1       3.090  28.134  10.122  1.00  0.00    -0.184 NA
HETATM    2  C1  UNL     1       2.337  27.605  10.844  1.00  0.00     0.133 C 
HETATM    3  S1  UNL     1       1.181  26.813  11.914  1.00  0.00    -0.051 SA
ENDROOT
BRANCH   3   4
HETATM    4  C2  UNL     1      -0.356  26.604  11.023  1.00  0.00     0.092 C 
BRANCH   4   5
HETATM    5  C3  UNL     1      -1.416  25.901  11.814  1.00  0.00     0.043 C 
BRANCH   5   6
HETATM    6  C4  UNL     1      -2.137  26.821  12.769  1.00  0.00     0.122 C 
HETATM    7  C5  UNL     1      -3.416  26.170  13.252  1.00  0.00     0.034 C 
HETATM    8  C6  UNL     1      -4.365  27.335  13.450  1.00  0.00     0.029 C 
HETATM    9  C7  UNL     1      -3.450  28.504  13.114  1.00  0.00     0.168 C 
HETATM   10  O1  UNL     1      -2.561  27.989  12.144  1.00  0.00    -0.386 OA
ENDBRANCH   5   6
ENDBRANCH   4   5
ENDBRANCH   3   4
TORSDOF 3
ENDMDL
