MODEL 1
REMARK VINA RESULT: -6.519729160      0.000      0.000
REMARK  3 active torsions:
REMARK  status: ('A' for Active; 'I' for Inactive)
REMARK    1  A    between atoms: C2_2  and  O1_3 
REMARK    2  A    between atoms: O1_3  and  C3_4 
REMARK    3  A    between atoms: N1_5  and  N2_7 
ROOT
HETATM    1  N2  UNL     1      -1.986  26.248  12.592  1.00  0.00    -0.327 N 
HETATM    2  C4  UNL     1      -3.140  26.008  13.426  1.00  0.00     0.142 C 
HETATM    3  C5  UNL     1      -4.215  27.025  13.199  1.00  0.00     0.021 C 
HETATM    4  C6  UNL     1      -3.764  28.331  13.814  1.00  0.00     0.002 C 
HETATM    5  C7  UNL     1      -3.174  29.172  12.709  1.00  0.00     0.002 C 
HETATM    6  C8  UNL     1      -1.782  28.681  12.376  1.00  0.00     0.021 C 
HETATM    7  C9  UNL     1      -1.803  27.344  11.671  1.00  0.00     0.142 C 
ENDROOT
BRANCH   1   8
HETATM    8  N1  UNL     1      -0.951  25.324  12.690  1.00  0.00    -0.292 N 
HETATM    9  C3  UNL     1      -0.205  25.059  11.671  1.00  0.00     0.248 C 
ATOM     10  H1  UNL     1      -0.780  24.851  13.577  1.00  0.00     0.188 HD
BRANCH   9  11
HETATM   11  O1  UNL     1       0.806  24.123  11.857  1.00  0.00    -0.318 OA
BRANCH  11  12
HETATM   12  C2  UNL     1       1.484  23.601  10.767  1.00  0.00     0.133 C 
HETATM   13  C1  UNL     1       1.507  24.224   9.607  1.00  0.00     0.038 C 
ENDBRANCH  11  12
ENDBRANCH   9  11
ENDBRANCH   1   8
TORSDOF 3
ENDMDL
MODEL 2
REMARK VINA RESULT: -6.465605409      0.661      1.859
REMARK  3 active torsions:
REMARK  status: ('A' for Active; 'I' for Inactive)
REMARK    1  A    between atoms: C2_2  and  O1_3 
REMARK    2  A    between atoms: O1_3  and  C3_4 
REMARK    3  A    between atoms: N1_5  and  N2_7 
ROOT
HETATM    1  N2  UNL     1      -1.407  26.406  12.457  1.00  0.00    -0.327 N 
HETATM    2  C4  UNL     1      -0.931  27.609  11.814  1.00  0.00     0.142 C 
HETATM    3  C5  UNL     1      -1.485  28.843  12.458  1.00  0.00     0.021 C 
HETATM    4  C6  UNL     1      -2.945  28.953  12.084  1.00  0.00     0.002 C 
HETATM    5  C7  UNL     1      -3.749  28.380  13.225  1.00  0.00     0.002 C 
HETATM    6  C8  UNL     1      -3.702  26.868  13.179  1.00  0.00     0.021 C 
HETATM    7  C9  UNL     1      -2.342  26.328  13.553  1.00  0.00     0.142 C 
ENDROOT
BRANCH   1   8
HETATM    8  N1  UNL     1      -0.907  25.205  11.964  1.00  0.00    -0.292 N 
HETATM    9  C3  UNL     1       0.364  25.025  11.834  1.00  0.00     0.248 C 
ATOM     10  H1  UNL     1      -1.552  24.459  11.703  1.00  0.00     0.188 HD
BRANCH   9  11
HETATM   11  O1  UNL     1       0.777  23.795  11.334  1.00  0.00    -0.318 OA
BRANCH  11  12
HETATM   12  C2  UNL     1       1.510  23.729  10.160  1.00  0.00     0.133 C 
HETATM   13  C1  UNL     1       1.503  24.714   9.287  1.00  0.00     0.038 C 
ENDBRANCH  11  12
ENDBRANCH   9  11
ENDBRANCH   1   8
TORSDOF 3
ENDMDL
MODEL 3
REMARK VINA RESULT: -6.338305441      0.942      2.024
REMARK  3 active torsions:
REMARK  status: ('A' for Active; 'I' for Inactive)
REMARK    1  A    between atoms: C2_2  and  O1_3 
REMARK    2  A    between atoms: O1_3  and  C3_4 
REMARK    3  A    between atoms: N1_5  and  N2_7 
ROOT
HETATM    1  N2  UNL     1      -1.577  26.553  12.309  1.00  0.00    -0.327 N 
HETATM    2  C4  UNL     1      -1.226  27.928  12.037  1.00  0.00     0.142 C 
HETATM    3  C5  UNL     1      -1.848  28.870  13.021  1.00  0.00     0.021 C 
HETATM    4  C6  UNL     1      -3.327  28.955  12.720  1.00  0.00     0.002 C 
HETATM    5  C7  UNL     1      -4.034  28.009  13.659  1.00  0.00     0.002 C 
HETATM    6  C8  UNL     1      -3.870  26.585  13.174  1.00  0.00     0.021 C 
HETATM    7  C9  UNL     1      -2.457  26.081  13.351  1.00  0.00     0.142 C 
ENDROOT
BRANCH   1   8
HETATM    8  N1  UNL     1      -1.006  25.594  11.481  1.00  0.00    -0.292 N 
HETATM    9  C3  UNL     1       0.077  25.850  10.827  1.00  0.00     0.248 C 
ATOM     10  H1  UNL     1      -1.447  24.679  11.388  1.00  0.00     0.188 HD
BRANCH   9  11
HETATM   11  O1  UNL     1       0.581  24.835  10.022  1.00  0.00    -0.318 OA
BRANCH  11  12
HETATM   12  C2  UNL     1       1.655  24.071  10.451  1.00  0.00     0.133 C 
HETATM   13  C1  UNL     1       1.512  23.129  11.359  1.00  0.00     0.038 C 
ENDBRANCH  11  12
ENDBRANCH   9  11
ENDBRANCH   1   8
TORSDOF 3
ENDMDL
MODEL 4
REMARK VINA RESULT: -6.286915599      1.390      1.485
REMARK  3 active torsions:
REMARK  status: ('A' for Active; 'I' for Inactive)
REMARK    1  A    between atoms: C2_2  and  O1_3 
REMARK    2  A    between atoms: O1_3  and  C3_4 
REMARK    3  A    between atoms: N1_5  and  N2_7 
ROOT
HETATM    1  N2  UNL     1      -1.757  26.327  12.576  1.00  0.00    -0.327 N 
HETATM    2  C4  UNL     1      -2.848  25.966  13.452  1.00  0.00     0.142 C 
HETATM    3  C5  UNL     1      -4.040  26.850  13.255  1.00  0.00     0.021 C 
HETATM    4  C6  UNL     1      -3.722  28.207  13.842  1.00  0.00     0.002 C 
HETATM    5  C7  UNL     1      -3.272  29.096  12.709  1.00  0.00     0.002 C 
HETATM    6  C8  UNL     1      -1.845  28.764  12.331  1.00  0.00     0.021 C 
HETATM    7  C9  UNL     1      -1.734  27.425  11.640  1.00  0.00     0.142 C 
ENDROOT
BRANCH   1   8
HETATM    8  N1  UNL     1      -0.620  25.530  12.646  1.00  0.00    -0.292 N 
HETATM    9  C3  UNL     1       0.398  25.768  11.889  1.00  0.00     0.248 C 
ATOM     10  H1  UNL     1      -0.590  24.749  13.301  1.00  0.00     0.188 HD
BRANCH   9  11
HETATM   11  O1  UNL     1       1.493  24.922  12.024  1.00  0.00    -0.318 OA
BRANCH  11  12
HETATM   12  C2  UNL     1       2.780  25.437  12.010  1.00  0.00     0.133 C 
HETATM   13  C1  UNL     1       3.103  26.501  12.715  1.00  0.00     0.038 C 
ENDBRANCH  11  12
ENDBRANCH   9  11
ENDBRANCH   1   8
TORSDOF 3
ENDMDL
MODEL 5
REMARK VINA RESULT: -6.183532740      1.665      2.382
REMARK  3 active torsions:
REMARK  status: ('A' for Active; 'I' for Inactive)
REMARK    1  A    between atoms: C2_2  and  O1_3 
REMARK    2  A    between atoms: O1_3  and  C3_4 
REMARK    3  A    between atoms: N1_5  and  N2_7 
ROOT
HETATM    1  N2  UNL     1      -1.290  27.645  12.403  1.00  0.00    -0.327 N 
HETATM    2  C4  UNL     1      -2.442  28.422  12.007  1.00  0.00     0.142 C 
HETATM    3  C5  UNL     1      -3.489  28.455  13.077  1.00  0.00     0.021 C 
HETATM    4  C6  UNL     1      -4.147  27.094  13.132  1.00  0.00     0.002 C 
HETATM    5  C7  UNL     1      -3.487  26.318  14.244  1.00  0.00     0.002 C 
HETATM    6  C8  UNL     1      -2.139  25.807  13.785  1.00  0.00     0.021 C 
HETATM    7  C9  UNL     1      -1.127  26.920  13.640  1.00  0.00     0.142 C 
ENDROOT
BRANCH   1   8
HETATM    8  N1  UNL     1      -0.237  27.597  11.497  1.00  0.00    -0.292 N 
HETATM    9  C3  UNL     1      -0.157  26.644  10.630  1.00  0.00     0.248 C 
ATOM     10  H1  UNL     1       0.480  28.322  11.517  1.00  0.00     0.188 HD
BRANCH   9  11
HETATM   11  O1  UNL     1       0.928  26.674   9.762  1.00  0.00    -0.318 OA
BRANCH  11  12
HETATM   12  C2  UNL     1       1.884  25.670   9.804  1.00  0.00     0.133 C 
HETATM   13  C1  UNL     1       1.616  24.446   9.401  1.00  0.00     0.038 C 
ENDBRANCH  11  12
ENDBRANCH   9  11
ENDBRANCH   1   8
TORSDOF 3
ENDMDL
