MODEL 1
REMARK VINA RESULT: -6.176962670      0.000      0.000
REMARK  4 active torsions:
REMARK  status: ('A' for Active; 'I' for Inactive)
REMARK    1  A    between atoms: C2_3  and  O1_4 
REMARK    2  A    between atoms: O1_4  and  C3_5 
REMARK    3  A    between atoms: C3_5  and  C4_7 
REMARK    4  A    between atoms: C4_7  and  C5_8 
ROOT
HETATM    1  N1  UNL     1       1.592  22.930  11.335  1.00  0.00    -0.195 NA
HETATM    2  C1  UNL     1       1.568  23.695  10.462  1.00  0.00     0.085 C 
HETATM    3  C2  UNL     1       1.552  24.667   9.355  1.00  0.00     0.302 C 
ENDROOT
BRANCH   3   4
HETATM    4  O1  UNL     1       0.373  25.440   9.493  1.00  0.00    -0.307 OA
BRANCH   4   5
HETATM    5  C3  UNL     1       0.292  26.538  10.344  1.00  0.00     0.260 C 
HETATM    6  O2  UNL     1       1.348  27.219  10.462  1.00  0.00    -0.265 OA
BRANCH   5   7
HETATM    7  C4  UNL     1      -0.898  26.947  11.091  1.00  0.00     0.115 C 
BRANCH   7   8
HETATM    8  C5  UNL     1      -1.398  25.910  12.067  1.00  0.00    -0.005 C 
HETATM    9  C6  UNL     1      -2.474  26.582  12.894  1.00  0.00     0.005 C 
HETATM   10  C7  UNL     1      -2.550  25.718  14.119  1.00  0.00     0.000 C 
HETATM   11  C8  UNL     1      -1.094  25.390  14.403  1.00  0.00     0.000 C 
HETATM   12  C9  UNL     1      -0.387  25.501  13.075  1.00  0.00     0.005 C 
ENDBRANCH   7   8
ENDBRANCH   5   7
ENDBRANCH   4   5
ENDBRANCH   3   4
TORSDOF 4
ENDMDL
MODEL 2
REMARK VINA RESULT: -6.119328821      3.091      4.352
REMARK  4 active torsions:
REMARK  status: ('A' for Active; 'I' for Inactive)
REMARK    1  A    between atoms: C2_3  and  O1_4 
REMARK    2  A    between atoms: O1_4  and  C3_5 
REMARK    3  A    between atoms: C3_5  and  C4_7 
REMARK    4  A    between atoms: C4_7  and  C5_8 
ROOT
HETATM    1  N1  UNL     1       1.118  26.677  12.797  1.00  0.00    -0.195 NA
HETATM    2  C1  UNL     1       0.261  26.066  13.287  1.00  0.00     0.085 C 
HETATM    3  C2  UNL     1      -0.817  25.280  13.912  1.00  0.00     0.302 C 
ENDROOT
BRANCH   3   4
HETATM    4  O1  UNL     1      -1.991  25.499  13.150  1.00  0.00    -0.307 OA
BRANCH   4   5
HETATM    5  C3  UNL     1      -3.190  25.912  13.722  1.00  0.00     0.260 C 
HETATM    6  O2  UNL     1      -3.514  25.332  14.794  1.00  0.00    -0.265 OA
BRANCH   5   7
HETATM    7  C4  UNL     1      -4.077  26.943  13.182  1.00  0.00     0.115 C 
BRANCH   7   8
HETATM    8  C5  UNL     1      -3.451  28.316  13.109  1.00  0.00    -0.005 C 
HETATM    9  C6  UNL     1      -2.465  28.277  11.960  1.00  0.00     0.005 C 
HETATM   10  C7  UNL     1      -1.550  29.428  12.259  1.00  0.00     0.000 C 
HETATM   11  C8  UNL     1      -1.371  29.346  13.766  1.00  0.00     0.000 C 
HETATM   12  C9  UNL     1      -2.605  28.650  14.283  1.00  0.00     0.005 C 
ENDBRANCH   7   8
ENDBRANCH   5   7
ENDBRANCH   4   5
ENDBRANCH   3   4
TORSDOF 4
ENDMDL
MODEL 3
REMARK VINA RESULT: -6.069462893      1.639      2.197
REMARK  4 active torsions:
REMARK  status: ('A' for Active; 'I' for Inactive)
REMARK    1  A    between atoms: C2_3  and  O1_4 
REMARK    2  A    between atoms: O1_4  and  C3_5 
REMARK    3  A    between atoms: C3_5  and  C4_7 
REMARK    4  A    between atoms: C4_7  and  C5_8 
ROOT
HETATM    1  N1  UNL     1       1.574  24.218   9.415  1.00  0.00    -0.195 NA
HETATM    2  C1  UNL     1       1.528  25.346   9.687  1.00  0.00     0.085 C 
HETATM    3  C2  UNL     1       1.483  26.776  10.038  1.00  0.00     0.302 C 
ENDROOT
BRANCH   3   4
HETATM    4  O1  UNL     1       0.197  27.037  10.572  1.00  0.00    -0.307 OA
BRANCH   4   5
HETATM    5  C3  UNL     1       0.007  27.627  11.817  1.00  0.00     0.260 C 
HETATM    6  O2  UNL     1       0.913  27.413  12.668  1.00  0.00    -0.265 OA
BRANCH   5   7
HETATM    7  C4  UNL     1      -1.137  28.456  12.198  1.00  0.00     0.115 C 
BRANCH   7   8
HETATM    8  C5  UNL     1      -2.457  27.721  12.195  1.00  0.00    -0.005 C 
HETATM    9  C6  UNL     1      -3.378  28.488  13.120  1.00  0.00     0.005 C 
HETATM   10  C7  UNL     1      -4.430  27.477  13.467  1.00  0.00     0.000 C 
HETATM   11  C8  UNL     1      -3.633  26.195  13.645  1.00  0.00     0.000 C 
HETATM   12  C9  UNL     1      -2.390  26.370  12.809  1.00  0.00     0.005 C 
ENDBRANCH   7   8
ENDBRANCH   5   7
ENDBRANCH   4   5
ENDBRANCH   3   4
TORSDOF 4
ENDMDL
MODEL 4
REMARK VINA RESULT: -6.063159442      1.242      1.873
REMARK  4 active torsions:
REMARK  status: ('A' for Active; 'I' for Inactive)
REMARK    1  A    between atoms: C2_3  and  O1_4 
REMARK    2  A    between atoms: O1_4  and  C3_5 
REMARK    3  A    between atoms: C3_5  and  C4_7 
REMARK    4  A    between atoms: C4_7  and  C5_8 
ROOT
HETATM    1  N1  UNL     1       1.569  22.935  11.272  1.00  0.00    -0.195 NA
HETATM    2  C1  UNL     1       1.527  23.744  10.441  1.00  0.00     0.085 C 
HETATM    3  C2  UNL     1       1.490  24.770   9.384  1.00  0.00     0.302 C 
ENDROOT
BRANCH   3   4
HETATM    4  O1  UNL     1       0.564  25.760   9.795  1.00  0.00    -0.307 OA
BRANCH   4   5
HETATM    5  C3  UNL     1       0.902  26.788  10.669  1.00  0.00     0.260 C 
HETATM    6  O2  UNL     1       1.933  27.449  10.365  1.00  0.00    -0.265 OA
BRANCH   5   7
HETATM    7  C4  UNL     1       0.167  27.147  11.882  1.00  0.00     0.115 C 
BRANCH   7   8
HETATM    8  C5  UNL     1      -1.288  27.473  11.645  1.00  0.00    -0.005 C 
HETATM    9  C6  UNL     1      -1.516  28.857  12.215  1.00  0.00     0.005 C 
HETATM   10  C7  UNL     1      -3.003  28.902  12.415  1.00  0.00     0.000 C 
HETATM   11  C8  UNL     1      -3.324  27.512  12.939  1.00  0.00     0.000 C 
HETATM   12  C9  UNL     1      -2.226  26.618  12.418  1.00  0.00     0.005 C 
ENDBRANCH   7   8
ENDBRANCH   5   7
ENDBRANCH   4   5
ENDBRANCH   3   4
TORSDOF 4
ENDMDL
MODEL 5
REMARK VINA RESULT: -6.038916444      2.315      3.359
REMARK  4 active torsions:
REMARK  status: ('A' for Active; 'I' for Inactive)
REMARK    1  A    between atoms: C2_3  and  O1_4 
REMARK    2  A    between atoms: O1_4  and  C3_5 
REMARK    3  A    between atoms: C3_5  and  C4_7 
REMARK    4  A    between atoms: C4_7  and  C5_8 
ROOT
HETATM    1  N1  UNL     1       2.337  24.022  11.622  1.00  0.00    -0.195 NA
HETATM    2  C1  UNL     1       1.630  24.905  11.884  1.00  0.00     0.085 C 
HETATM    3  C2  UNL     1       0.736  26.032  12.202  1.00  0.00     0.302 C 
ENDROOT
BRANCH   3   4
HETATM    4  O1  UNL     1       0.947  26.363  13.563  1.00  0.00    -0.307 OA
BRANCH   4   5
HETATM    5  C3  UNL     1       0.011  26.090  14.556  1.00  0.00     0.260 C 
HETATM    6  O2  UNL     1       0.377  26.339  15.737  1.00  0.00    -0.265 OA
BRANCH   5   7
HETATM    7  C4  UNL     1      -1.331  25.551  14.332  1.00  0.00     0.115 C 
BRANCH   7   8
HETATM    8  C5  UNL     1      -2.439  26.556  14.538  1.00  0.00    -0.005 C 
HETATM    9  C6  UNL     1      -3.580  26.127  13.639  1.00  0.00     0.005 C 
HETATM   10  C7  UNL     1      -4.392  27.381  13.497  1.00  0.00     0.000 C 
HETATM   11  C8  UNL     1      -3.334  28.465  13.365  1.00  0.00     0.000 C 
HETATM   12  C9  UNL     1      -2.107  27.921  14.053  1.00  0.00     0.005 C 
ENDBRANCH   7   8
ENDBRANCH   5   7
ENDBRANCH   4   5
ENDBRANCH   3   4
TORSDOF 4
ENDMDL
