MODEL 1
REMARK VINA RESULT: -6.623456850      0.000      0.000
REMARK  6 active torsions:
REMARK  status: ('A' for Active; 'I' for Inactive)
REMARK    1  A    between atoms: C2_2  and  O1_5 
REMARK    2  A    between atoms: O1_5  and  C5_6 
REMARK       I    between atoms: C5_6  and  N1_8 
REMARK    3  A    between atoms: N1_8  and  N2_10 
REMARK       I    between atoms: N2_10  and  C6_12 
REMARK       I    between atoms: C6_12  and  N3_14 
REMARK    4  A    between atoms: N4_16  and  C7_18 
REMARK    5  A    between atoms: C7_18  and  C8_19 
REMARK    6  A    between atoms: C8_19  and  C9_20 
ROOT
HETATM    1  C9  UNL     1      -0.153  23.888  12.044  1.00  0.00     0.125 C 
HETATM    2  C10 UNL     1       1.107  24.411  11.566  1.00  0.00     0.059 C 
HETATM    3  N5  UNL     1       2.127  24.826  11.155  1.00  0.00    -0.197 NA
ENDROOT
BRANCH   1   4
HETATM    4  C8  UNL     1      -0.735  24.732  13.142  1.00  0.00     0.035 C 
BRANCH   4   5
HETATM    5  C7  UNL     1      -1.605  25.843  12.672  1.00  0.00     0.140 C 
BRANCH   5   6
HETATM    6  N4  UNL     1      -1.232  27.148  13.145  1.00  0.00    -0.332 N 
HETATM    7  N3  UNL     1      -0.520  27.961  12.516  1.00  0.00    -0.255 N 
HETATM    8  C6  UNL     1       0.038  27.707  11.212  1.00  0.00     0.353 C 
ATOM      9  H3  UNL     1      -0.320  28.860  12.954  1.00  0.00     0.191 HD
HETATM   10  N2  UNL     1       1.387  28.023  10.939  1.00  0.00    -0.246 N 
HETATM   11  O3  UNL     1      -0.774  27.198  10.393  1.00  0.00    -0.244 OA
ATOM     12  H2  UNL     1       1.947  28.434  11.685  1.00  0.00     0.192 HD
ATOM     13  H4  UNL     1      -1.575  27.433  14.062  1.00  0.00     0.180 HD
BRANCH  10  14
HETATM   14  N1  UNL     1       1.993  27.804   9.708  1.00  0.00    -0.241 N 
HETATM   15  C5  UNL     1       1.829  28.578   8.547  1.00  0.00     0.380 C 
HETATM   16  O2  UNL     1       1.103  29.597   8.436  1.00  0.00    -0.237 OA
ATOM     17  H1  UNL     1       2.619  27.002   9.640  1.00  0.00     0.192 HD
BRANCH  15  18
HETATM   18  O1  UNL     1       2.516  28.225   7.376  1.00  0.00    -0.293 OA
BRANCH  18  19
HETATM   19  C2  UNL     1       3.907  28.378   7.208  1.00  0.00     0.061 C 
HETATM   20  C1  UNL     1       4.407  29.740   7.587  1.00  0.00     0.046 C 
HETATM   21  C3  UNL     1       4.705  27.311   7.879  1.00  0.00     0.046 C 
HETATM   22  C4  UNL     1       4.149  28.231   5.694  1.00  0.00     0.046 C 
ENDBRANCH  18  19
ENDBRANCH  15  18
ENDBRANCH  10  14
ENDBRANCH   5   6
ENDBRANCH   4   5
ENDBRANCH   1   4
TORSDOF 6
ENDMDL
MODEL 2
REMARK VINA RESULT: -6.277483750      1.719      2.285
REMARK  6 active torsions:
REMARK  status: ('A' for Active; 'I' for Inactive)
REMARK    1  A    between atoms: C2_2  and  O1_5 
REMARK    2  A    between atoms: O1_5  and  C5_6 
REMARK       I    between atoms: C5_6  and  N1_8 
REMARK    3  A    between atoms: N1_8  and  N2_10 
REMARK       I    between atoms: N2_10  and  C6_12 
REMARK       I    between atoms: C6_12  and  N3_14 
REMARK    4  A    between atoms: N4_16  and  C7_18 
REMARK    5  A    between atoms: C7_18  and  C8_19 
REMARK    6  A    between atoms: C8_19  and  C9_20 
ROOT
HETATM    1  C9  UNL     1      -1.576  23.243  14.029  1.00  0.00     0.125 C 
HETATM    2  C10 UNL     1      -2.417  22.681  15.061  1.00  0.00     0.059 C 
HETATM    3  N5  UNL     1      -3.092  22.201  15.896  1.00  0.00    -0.197 NA
ENDROOT
BRANCH   1   4
HETATM    4  C8  UNL     1      -1.217  24.675  14.310  1.00  0.00     0.035 C 
BRANCH   4   5
HETATM    5  C7  UNL     1      -0.946  25.492  13.097  1.00  0.00     0.140 C 
BRANCH   5   6
HETATM    6  N4  UNL     1      -1.066  26.913  13.284  1.00  0.00    -0.332 N 
HETATM    7  N3  UNL     1      -0.670  27.778  12.472  1.00  0.00    -0.255 N 
HETATM    8  C6  UNL     1      -0.028  27.475  11.217  1.00  0.00     0.353 C 
ATOM      9  H3  UNL     1      -0.809  28.759  12.713  1.00  0.00     0.191 HD
HETATM   10  N2  UNL     1       1.129  28.177  10.819  1.00  0.00    -0.246 N 
HETATM   11  O3  UNL     1      -0.592  26.560  10.557  1.00  0.00    -0.244 OA
ATOM     12  H2  UNL     1       1.493  28.900  11.441  1.00  0.00     0.192 HD
ATOM     13  H4  UNL     1      -1.508  27.240  14.143  1.00  0.00     0.180 HD
BRANCH  10  14
HETATM   14  N1  UNL     1       1.802  27.939   9.627  1.00  0.00    -0.241 N 
HETATM   15  C5  UNL     1       1.715  28.704   8.452  1.00  0.00     0.380 C 
HETATM   16  O2  UNL     1       1.012  29.731   8.291  1.00  0.00    -0.237 OA
ATOM     17  H1  UNL     1       2.419  27.128   9.602  1.00  0.00     0.192 HD
BRANCH  15  18
HETATM   18  O1  UNL     1       2.463  28.330   7.326  1.00  0.00    -0.293 OA
BRANCH  18  19
HETATM   19  C2  UNL     1       3.856  28.511   7.215  1.00  0.00     0.061 C 
HETATM   20  C1  UNL     1       4.315  29.877   7.630  1.00  0.00     0.046 C 
HETATM   21  C3  UNL     1       4.647  27.450   7.907  1.00  0.00     0.046 C 
HETATM   22  C4  UNL     1       4.162  28.385   5.711  1.00  0.00     0.046 C 
ENDBRANCH  18  19
ENDBRANCH  15  18
ENDBRANCH  10  14
ENDBRANCH   5   6
ENDBRANCH   4   5
ENDBRANCH   1   4
TORSDOF 6
ENDMDL
MODEL 3
REMARK VINA RESULT: -6.246491222      1.335      1.600
REMARK  6 active torsions:
REMARK  status: ('A' for Active; 'I' for Inactive)
REMARK    1  A    between atoms: C2_2  and  O1_5 
REMARK    2  A    between atoms: O1_5  and  C5_6 
REMARK       I    between atoms: C5_6  and  N1_8 
REMARK    3  A    between atoms: N1_8  and  N2_10 
REMARK       I    between atoms: N2_10  and  C6_12 
REMARK       I    between atoms: C6_12  and  N3_14 
REMARK    4  A    between atoms: N4_16  and  C7_18 
REMARK    5  A    between atoms: C7_18  and  C8_19 
REMARK    6  A    between atoms: C8_19  and  C9_20 
ROOT
HETATM    1  C9  UNL     1       0.031  23.350  10.858  1.00  0.00     0.125 C 
HETATM    2  C10 UNL     1       0.140  24.136   9.650  1.00  0.00     0.059 C 
HETATM    3  N5  UNL     1       0.212  24.760   8.656  1.00  0.00    -0.197 NA
ENDROOT
BRANCH   1   4
HETATM    4  C8  UNL     1       0.227  24.181  12.094  1.00  0.00     0.035 C 
BRANCH   4   5
HETATM    5  C7  UNL     1      -0.926  25.056  12.438  1.00  0.00     0.140 C 
BRANCH   5   6
HETATM    6  N4  UNL     1      -0.594  26.219  13.215  1.00  0.00    -0.332 N 
HETATM    7  N3  UNL     1      -0.203  27.309  12.742  1.00  0.00    -0.255 N 
HETATM    8  C6  UNL     1      -0.026  27.563  11.335  1.00  0.00     0.353 C 
ATOM      9  H3  UNL     1       0.004  28.066  13.393  1.00  0.00     0.191 HD
HETATM   10  N2  UNL     1       1.133  28.219  10.868  1.00  0.00    -0.246 N 
HETATM   11  O3  UNL     1      -0.974  27.151  10.613  1.00  0.00    -0.244 OA
ATOM     12  H2  UNL     1       1.833  28.507  11.551  1.00  0.00     0.192 HD
ATOM     13  H4  UNL     1      -0.685  26.151  14.229  1.00  0.00     0.180 HD
BRANCH  10  14
HETATM   14  N1  UNL     1       1.373  28.495   9.527  1.00  0.00    -0.241 N 
HETATM   15  C5  UNL     1       2.275  27.824   8.685  1.00  0.00     0.380 C 
HETATM   16  O2  UNL     1       3.013  26.862   9.012  1.00  0.00    -0.237 OA
ATOM     17  H1  UNL     1       0.842  29.261   9.113  1.00  0.00     0.192 HD
BRANCH  15  18
HETATM   18  O1  UNL     1       2.402  28.224   7.346  1.00  0.00    -0.293 OA
BRANCH  18  19
HETATM   19  C2  UNL     1       3.318  29.199   6.904  1.00  0.00     0.061 C 
HETATM   20  C1  UNL     1       2.662  30.459   6.424  1.00  0.00     0.046 C 
HETATM   21  C3  UNL     1       4.388  29.501   7.901  1.00  0.00     0.046 C 
HETATM   22  C4  UNL     1       4.013  28.575   5.679  1.00  0.00     0.046 C 
ENDBRANCH  18  19
ENDBRANCH  15  18
ENDBRANCH  10  14
ENDBRANCH   5   6
ENDBRANCH   4   5
ENDBRANCH   1   4
TORSDOF 6
ENDMDL
MODEL 4
REMARK VINA RESULT: -6.188924762      3.526      7.717
REMARK  6 active torsions:
REMARK  status: ('A' for Active; 'I' for Inactive)
REMARK    1  A    between atoms: C2_2  and  O1_5 
REMARK    2  A    between atoms: O1_5  and  C5_6 
REMARK       I    between atoms: C5_6  and  N1_8 
REMARK    3  A    between atoms: N1_8  and  N2_10 
REMARK       I    between atoms: N2_10  and  C6_12 
REMARK       I    between atoms: C6_12  and  N3_14 
REMARK    4  A    between atoms: N4_16  and  C7_18 
REMARK    5  A    between atoms: C7_18  and  C8_19 
REMARK    6  A    between atoms: C8_19  and  C9_20 
ROOT
HETATM    1  C9  UNL     1       6.372  26.736   3.013  1.00  0.00     0.125 C 
HETATM    2  C10 UNL     1       6.079  26.959   1.615  1.00  0.00     0.059 C 
HETATM    3  N5  UNL     1       5.861  27.127   0.472  1.00  0.00    -0.197 NA
ENDROOT
BRANCH   1   4
HETATM    4  C8  UNL     1       5.127  26.696   3.852  1.00  0.00     0.035 C 
BRANCH   4   5
HETATM    5  C7  UNL     1       5.303  27.197   5.242  1.00  0.00     0.140 C 
BRANCH   5   6
HETATM    6  N4  UNL     1       5.028  28.596   5.422  1.00  0.00    -0.332 N 
HETATM    7  N3  UNL     1       4.462  29.092   6.421  1.00  0.00    -0.255 N 
HETATM    8  C6  UNL     1       3.998  28.326   7.550  1.00  0.00     0.353 C 
ATOM      9  H3  UNL     1       4.320  30.102   6.438  1.00  0.00     0.191 HD
HETATM   10  N2  UNL     1       2.719  28.565   8.098  1.00  0.00    -0.246 N 
HETATM   11  O3  UNL     1       4.822  27.467   7.965  1.00  0.00    -0.244 OA
ATOM     12  H2  UNL     1       2.141  29.291   7.675  1.00  0.00     0.192 HD
ATOM     13  H4  UNL     1       5.316  29.233   4.680  1.00  0.00     0.180 HD
BRANCH  10  14
HETATM   14  N1  UNL     1       2.205  27.866   9.183  1.00  0.00    -0.241 N 
HETATM   15  C5  UNL     1       0.996  28.128   9.847  1.00  0.00     0.380 C 
HETATM   16  O2  UNL     1       0.183  29.042   9.566  1.00  0.00    -0.237 OA
ATOM     17  H1  UNL     1       2.760  27.084   9.531  1.00  0.00     0.192 HD
BRANCH  15  18
HETATM   18  O1  UNL     1       0.613  27.324  10.932  1.00  0.00    -0.293 OA
BRANCH  18  19
HETATM   19  C2  UNL     1      -0.142  26.142  10.803  1.00  0.00     0.061 C 
HETATM   20  C1  UNL     1      -1.540  26.266  11.334  1.00  0.00     0.046 C 
HETATM   21  C3  UNL     1      -0.146  25.591   9.415  1.00  0.00     0.046 C 
HETATM   22  C4  UNL     1       0.571  25.106  11.692  1.00  0.00     0.046 C 
ENDBRANCH  18  19
ENDBRANCH  15  18
ENDBRANCH  10  14
ENDBRANCH   5   6
ENDBRANCH   4   5
ENDBRANCH   1   4
TORSDOF 6
ENDMDL
MODEL 5
REMARK VINA RESULT: -6.166543859      2.280      6.550
REMARK  6 active torsions:
REMARK  status: ('A' for Active; 'I' for Inactive)
REMARK    1  A    between atoms: C2_2  and  O1_5 
REMARK    2  A    between atoms: O1_5  and  C5_6 
REMARK       I    between atoms: C5_6  and  N1_8 
REMARK    3  A    between atoms: N1_8  and  N2_10 
REMARK       I    between atoms: N2_10  and  C6_12 
REMARK       I    between atoms: C6_12  and  N3_14 
REMARK    4  A    between atoms: N4_16  and  C7_18 
REMARK    5  A    between atoms: C7_18  and  C8_19 
REMARK    6  A    between atoms: C8_19  and  C9_20 
ROOT
HETATM    1  C9  UNL     1       5.461  26.653   5.143  1.00  0.00     0.125 C 
HETATM    2  C10 UNL     1       5.971  26.387   6.469  1.00  0.00     0.059 C 
HETATM    3  N5  UNL     1       6.405  26.159   7.538  1.00  0.00    -0.197 NA
ENDROOT
BRANCH   1   4
HETATM    4  C8  UNL     1       4.682  27.936   5.083  1.00  0.00     0.035 C 
BRANCH   4   5
HETATM    5  C7  UNL     1       4.534  28.630   6.390  1.00  0.00     0.140 C 
BRANCH   5   6
HETATM    6  N4  UNL     1       3.587  29.712   6.399  1.00  0.00    -0.332 N 
HETATM    7  N3  UNL     1       2.516  29.721   7.044  1.00  0.00    -0.255 N 
HETATM    8  C6  UNL     1       2.068  28.637   7.882  1.00  0.00     0.353 C 
ATOM      9  H3  UNL     1       1.921  30.546   6.972  1.00  0.00     0.191 HD
HETATM   10  N2  UNL     1       0.730  28.192   7.819  1.00  0.00    -0.246 N 
HETATM   11  O3  UNL     1       2.962  28.161   8.632  1.00  0.00    -0.244 OA
ATOM     12  H2  UNL     1       0.096  28.659   7.170  1.00  0.00     0.192 HD
ATOM     13  H4  UNL     1       3.806  30.535   5.837  1.00  0.00     0.180 HD
BRANCH  10  14
HETATM   14  N1  UNL     1       0.228  27.154   8.593  1.00  0.00    -0.241 N 
HETATM   15  C5  UNL     1      -0.151  27.226   9.944  1.00  0.00     0.380 C 
HETATM   16  O2  UNL     1      -0.095  28.248  10.671  1.00  0.00    -0.237 OA
ATOM     17  H1  UNL     1       0.125  26.248   8.136  1.00  0.00     0.192 HD
BRANCH  15  18
HETATM   18  O1  UNL     1      -0.644  26.081  10.588  1.00  0.00    -0.293 OA
BRANCH  18  19
HETATM   19  C2  UNL     1       0.143  24.952  10.887  1.00  0.00     0.061 C 
HETATM   20  C1  UNL     1      -0.198  23.750  10.056  1.00  0.00     0.046 C 
HETATM   21  C3  UNL     1       1.611  25.226  10.850  1.00  0.00     0.046 C 
HETATM   22  C4  UNL     1      -0.206  24.589  12.343  1.00  0.00     0.046 C 
ENDBRANCH  18  19
ENDBRANCH  15  18
ENDBRANCH  10  14
ENDBRANCH   5   6
ENDBRANCH   4   5
ENDBRANCH   1   4
TORSDOF 6
ENDMDL
