MODEL 1
REMARK VINA RESULT: -6.361807983      0.000      0.000
REMARK  6 active torsions:
REMARK  status: ('A' for Active; 'I' for Inactive)
REMARK    1  A    between atoms: C2_2  and  O2_4 
REMARK    2  A    between atoms: O2_4  and  C3_5 
REMARK    3  A    between atoms: C3_5  and  C4_6 
REMARK    4  A    between atoms: C9_12  and  C10_13 
REMARK    5  A    between atoms: C10_13  and  C11_14 
REMARK    6  A    between atoms: C11_14  and  O4_17 
ROOT
HETATM    1  C4  UNL     1       0.879  28.113   9.041  1.00  0.00     0.083 C 
HETATM    2  C5  UNL     1       0.638  28.489  10.471  1.00  0.00     0.049 C 
HETATM    3  O3  UNL     1       0.637  26.738   8.907  1.00  0.00    -0.373 OA
HETATM    4  C6  UNL     1       1.766  26.052   9.225  1.00  0.00     0.119 C 
HETATM    5  C7  UNL     1       1.528  25.107  10.352  1.00  0.00     0.039 C 
HETATM    6  C8  UNL     1       2.873  27.053   9.472  1.00  0.00     0.039 C 
HETATM    7  C9  UNL     1       2.370  28.274   8.761  1.00  0.00     0.027 C 
ENDROOT
BRANCH   1   8
HETATM    8  C3  UNL     1       0.018  28.853   8.102  1.00  0.00     0.216 C 
BRANCH   8   9
HETATM    9  O2  UNL     1      -0.530  30.055   8.415  1.00  0.00    -0.319 OA
BRANCH   9  10
HETATM   10  C2  UNL     1      -0.179  31.351   8.393  1.00  0.00     0.254 C 
HETATM   11  C1  UNL     1      -0.895  32.339   9.288  1.00  0.00     0.126 C 
HETATM   12  O1  UNL     1       0.725  31.732   7.643  1.00  0.00    -0.266 OA
ENDBRANCH   9  10
ENDBRANCH   8   9
ENDBRANCH   1   8
BRANCH   7  13
HETATM   13  C10 UNL     1       2.656  28.373   7.328  1.00  0.00     0.044 C 
BRANCH  13  14
HETATM   14  C11 UNL     1       3.688  29.320   6.833  1.00  0.00     0.051 C 
HETATM   15  C12 UNL     1       4.694  29.855   7.783  1.00  0.00     0.045 C 
HETATM   16  C13 UNL     1       4.510  28.599   5.728  1.00  0.00     0.045 C 
BRANCH  14  17
HETATM   17  O4  UNL     1       3.072  30.450   6.239  1.00  0.00    -0.391 OA
ATOM     18  H4  UNL     1       3.644  31.207   6.300  1.00  0.00     0.210 HD
ENDBRANCH  14  17
ENDBRANCH  13  14
ENDBRANCH   7  13
TORSDOF 6
ENDMDL
MODEL 2
REMARK VINA RESULT: -6.264512144      1.201      1.453
REMARK  6 active torsions:
REMARK  status: ('A' for Active; 'I' for Inactive)
REMARK    1  A    between atoms: C2_2  and  O2_4 
REMARK    2  A    between atoms: O2_4  and  C3_5 
REMARK    3  A    between atoms: C3_5  and  C4_6 
REMARK    4  A    between atoms: C9_12  and  C10_13 
REMARK    5  A    between atoms: C10_13  and  C11_14 
REMARK    6  A    between atoms: C11_14  and  O4_17 
ROOT
HETATM    1  C4  UNL     1       0.850  28.408   9.161  1.00  0.00     0.083 C 
HETATM    2  C5  UNL     1       0.640  28.705  10.614  1.00  0.00     0.049 C 
HETATM    3  O3  UNL     1       0.103  27.265   8.839  1.00  0.00    -0.373 OA
HETATM    4  C6  UNL     1       0.836  26.156   9.120  1.00  0.00     0.119 C 
HETATM    5  C7  UNL     1       0.139  25.279  10.102  1.00  0.00     0.039 C 
HETATM    6  C8  UNL     1       2.218  26.600   9.548  1.00  0.00     0.039 C 
HETATM    7  C9  UNL     1       2.304  27.984   8.977  1.00  0.00     0.027 C 
ENDROOT
BRANCH   1   8
HETATM    8  C3  UNL     1       0.443  29.519   8.285  1.00  0.00     0.216 C 
BRANCH   8   9
HETATM    9  O2  UNL     1      -0.450  30.462   8.678  1.00  0.00    -0.319 OA
BRANCH   9  10
HETATM   10  C2  UNL     1      -0.515  31.800   8.778  1.00  0.00     0.254 C 
HETATM   11  C1  UNL     1      -1.382  32.432   9.845  1.00  0.00     0.126 C 
HETATM   12  O1  UNL     1       0.132  32.508   8.000  1.00  0.00    -0.266 OA
ENDBRANCH   9  10
ENDBRANCH   8   9
ENDBRANCH   1   8
BRANCH   7  13
HETATM   13  C10 UNL     1       2.743  28.101   7.584  1.00  0.00     0.044 C 
BRANCH  13  14
HETATM   14  C11 UNL     1       4.167  28.379   7.267  1.00  0.00     0.051 C 
HETATM   15  C12 UNL     1       4.636  28.241   5.866  1.00  0.00     0.045 C 
HETATM   16  C13 UNL     1       4.465  29.854   7.657  1.00  0.00     0.045 C 
BRANCH  14  17
HETATM   17  O4  UNL     1       5.014  27.552   8.046  1.00  0.00    -0.391 OA
ATOM     18  H4  UNL     1       5.688  28.073   8.467  1.00  0.00     0.210 HD
ENDBRANCH  14  17
ENDBRANCH  13  14
ENDBRANCH   7  13
TORSDOF 6
ENDMDL
MODEL 3
REMARK VINA RESULT: -5.918861801      3.782      7.714
REMARK  6 active torsions:
REMARK  status: ('A' for Active; 'I' for Inactive)
REMARK    1  A    between atoms: C2_2  and  O2_4 
REMARK    2  A    between atoms: O2_4  and  C3_5 
REMARK    3  A    between atoms: C3_5  and  C4_6 
REMARK    4  A    between atoms: C9_12  and  C10_13 
REMARK    5  A    between atoms: C10_13  and  C11_14 
REMARK    6  A    between atoms: C11_14  and  O4_17 
ROOT
HETATM    1  C4  UNL     1       0.415  25.067  10.826  1.00  0.00     0.083 C 
HETATM    2  C5  UNL     1       1.908  25.193  10.808  1.00  0.00     0.049 C 
HETATM    3  O3  UNL     1      -0.073  25.507   9.586  1.00  0.00    -0.373 OA
HETATM    4  C6  UNL     1      -0.235  26.855   9.621  1.00  0.00     0.119 C 
HETATM    5  C7  UNL     1       0.575  27.528   8.568  1.00  0.00     0.039 C 
HETATM    6  C8  UNL     1       0.052  27.329  11.029  1.00  0.00     0.039 C 
HETATM    7  C9  UNL     1      -0.126  26.077  11.835  1.00  0.00     0.027 C 
ENDROOT
BRANCH   1   8
HETATM    8  C3  UNL     1      -0.041  23.688  11.068  1.00  0.00     0.216 C 
BRANCH   8   9
HETATM    9  O2  UNL     1       0.207  22.679  10.194  1.00  0.00    -0.319 OA
BRANCH   9  10
HETATM   10  C2  UNL     1       0.943  21.556  10.144  1.00  0.00     0.254 C 
HETATM   11  C1  UNL     1       2.442  21.647   9.959  1.00  0.00     0.126 C 
HETATM   12  O1  UNL     1       0.393  20.455  10.249  1.00  0.00    -0.266 OA
ENDBRANCH   9  10
ENDBRANCH   8   9
ENDBRANCH   1   8
BRANCH   7  13
HETATM   13  C10 UNL     1      -1.488  25.752  12.266  1.00  0.00     0.044 C 
BRANCH  13  14
HETATM   14  C11 UNL     1      -1.783  25.515  13.702  1.00  0.00     0.051 C 
HETATM   15  C12 UNL     1      -1.698  24.135  14.240  1.00  0.00     0.045 C 
HETATM   16  C13 UNL     1      -0.771  26.346  14.542  1.00  0.00     0.045 C 
BRANCH  14  17
HETATM   17  O4  UNL     1      -3.083  25.979  14.019  1.00  0.00    -0.391 OA
ATOM     18  H4  UNL     1      -3.145  26.179  14.946  1.00  0.00     0.210 HD
ENDBRANCH  14  17
ENDBRANCH  13  14
ENDBRANCH   7  13
TORSDOF 6
ENDMDL
MODEL 4
REMARK VINA RESULT: -5.914230436      3.017      6.063
REMARK  6 active torsions:
REMARK  status: ('A' for Active; 'I' for Inactive)
REMARK    1  A    between atoms: C2_2  and  O2_4 
REMARK    2  A    between atoms: O2_4  and  C3_5 
REMARK    3  A    between atoms: C3_5  and  C4_6 
REMARK    4  A    between atoms: C9_12  and  C10_13 
REMARK    5  A    between atoms: C10_13  and  C11_14 
REMARK    6  A    between atoms: C11_14  and  O4_17 
ROOT
HETATM    1  C4  UNL     1       0.122  25.652  10.322  1.00  0.00     0.083 C 
HETATM    2  C5  UNL     1      -0.229  24.871   9.093  1.00  0.00     0.049 C 
HETATM    3  O3  UNL     1       1.505  25.538  10.530  1.00  0.00    -0.373 OA
HETATM    4  C6  UNL     1       1.759  24.406  11.237  1.00  0.00     0.119 C 
HETATM    5  C7  UNL     1       2.668  23.492  10.491  1.00  0.00     0.039 C 
HETATM    6  C8  UNL     1       0.435  23.788  11.631  1.00  0.00     0.039 C 
HETATM    7  C9  UNL     1      -0.509  24.946  11.519  1.00  0.00     0.027 C 
ENDROOT
BRANCH   1   8
HETATM    8  C3  UNL     1      -0.239  27.076  10.217  1.00  0.00     0.216 C 
BRANCH   8   9
HETATM    9  O2  UNL     1      -0.206  27.747   9.038  1.00  0.00    -0.319 OA
BRANCH   9  10
HETATM   10  C2  UNL     1       0.611  28.593   8.390  1.00  0.00     0.254 C 
HETATM   11  C1  UNL     1       2.078  28.253   8.237  1.00  0.00     0.126 C 
HETATM   12  O1  UNL     1       0.163  29.644   7.920  1.00  0.00    -0.266 OA
ENDBRANCH   9  10
ENDBRANCH   8   9
ENDBRANCH   1   8
BRANCH   7  13
HETATM   13  C10 UNL     1      -0.621  25.828  12.684  1.00  0.00     0.044 C 
BRANCH  13  14
HETATM   14  C11 UNL     1      -1.549  25.489  13.794  1.00  0.00     0.051 C 
HETATM   15  C12 UNL     1      -1.679  24.074  14.221  1.00  0.00     0.045 C 
HETATM   16  C13 UNL     1      -1.080  26.259  15.061  1.00  0.00     0.045 C 
BRANCH  14  17
HETATM   17  O4  UNL     1      -2.861  25.927  13.488  1.00  0.00    -0.391 OA
ATOM     18  H4  UNL     1      -3.500  25.418  13.973  1.00  0.00     0.210 HD
ENDBRANCH  14  17
ENDBRANCH  13  14
ENDBRANCH   7  13
TORSDOF 6
ENDMDL
MODEL 5
REMARK VINA RESULT: -5.908403524      2.801      5.566
REMARK  6 active torsions:
REMARK  status: ('A' for Active; 'I' for Inactive)
REMARK    1  A    between atoms: C2_2  and  O2_4 
REMARK    2  A    between atoms: O2_4  and  C3_5 
REMARK    3  A    between atoms: C3_5  and  C4_6 
REMARK    4  A    between atoms: C9_12  and  C10_13 
REMARK    5  A    between atoms: C10_13  and  C11_14 
REMARK    6  A    between atoms: C11_14  and  O4_17 
ROOT
HETATM    1  C4  UNL     1       0.893  25.279  10.076  1.00  0.00     0.083 C 
HETATM    2  C5  UNL     1       0.420  24.934   8.697  1.00  0.00     0.049 C 
HETATM    3  O3  UNL     1       1.821  24.304  10.473  1.00  0.00    -0.373 OA
HETATM    4  C6  UNL     1       1.158  23.250  11.017  1.00  0.00     0.119 C 
HETATM    5  C7  UNL     1       1.448  21.988  10.282  1.00  0.00     0.039 C 
HETATM    6  C8  UNL     1      -0.311  23.605  11.096  1.00  0.00     0.039 C 
HETATM    7  C9  UNL     1      -0.285  25.103  11.030  1.00  0.00     0.027 C 
ENDROOT
BRANCH   1   8
HETATM    8  C3  UNL     1       1.521  26.608  10.150  1.00  0.00     0.216 C 
BRANCH   8   9
HETATM    9  O2  UNL     1       1.190  27.614   9.302  1.00  0.00    -0.319 OA
BRANCH   9  10
HETATM   10  C2  UNL     1       0.529  28.783   9.343  1.00  0.00     0.254 C 
HETATM   11  C1  UNL     1       0.202  29.508   8.056  1.00  0.00     0.126 C 
HETATM   12  O1  UNL     1       0.191  29.261  10.431  1.00  0.00    -0.266 OA
ENDBRANCH   9  10
ENDBRANCH   8   9
ENDBRANCH   1   8
BRANCH   7  13
HETATM   13  C10 UNL     1      -0.086  25.820  12.292  1.00  0.00     0.044 C 
BRANCH  13  14
HETATM   14  C11 UNL     1      -1.189  26.623  12.879  1.00  0.00     0.051 C 
HETATM   15  C12 UNL     1      -2.575  26.412  12.393  1.00  0.00     0.045 C 
HETATM   16  C13 UNL     1      -1.239  26.324  14.404  1.00  0.00     0.045 C 
BRANCH  14  17
HETATM   17  O4  UNL     1      -0.927  28.007  12.724  1.00  0.00    -0.391 OA
ATOM     18  H4  UNL     1      -0.904  28.236  11.802  1.00  0.00     0.210 HD
ENDBRANCH  14  17
ENDBRANCH  13  14
ENDBRANCH   7  13
TORSDOF 6
ENDMDL
