MODEL 1
REMARK VINA RESULT: -7.026245702      0.000      0.000
REMARK  3 active torsions:
REMARK  status: ('A' for Active; 'I' for Inactive)
REMARK    1  A    between atoms: N1_4  and  N2_6 
REMARK       I    between atoms: N2_6  and  C4_8 
REMARK       I    between atoms: C4_8  and  N3_10 
REMARK    2  A    between atoms: N3_10  and  C5_11 
REMARK    3  A    between atoms: C7_13  and  N4_14 
ROOT
HETATM    1  N2  UNL     1       0.203  26.435  12.168  1.00  0.00    -0.239 N 
ATOM      2  H2  UNL     1       1.223  26.434  12.176  1.00  0.00     0.193 HD
HETATM    3  C4  UNL     1      -0.508  27.056  11.055  1.00  0.00     0.413 C 
HETATM    4  O1  UNL     1      -1.778  26.956  11.207  1.00  0.00    -0.228 OA
HETATM    5  N3  UNL     1       0.177  27.612  10.091  1.00  0.00    -0.343 NA
ENDROOT
BRANCH   1   6
HETATM    6  N1  UNL     1      -0.483  25.852  13.206  1.00  0.00    -0.305 N 
HETATM    7  C2  UNL     1      -0.757  24.584  13.241  1.00  0.00    -0.004 C 
HETATM    8  C1  UNL     1      -1.500  24.012  14.383  1.00  0.00     0.064 C 
HETATM    9  C3  UNL     1      -0.303  23.710  12.112  1.00  0.00     0.064 C 
ATOM     10  H1  UNL     1      -0.790  26.439  13.982  1.00  0.00     0.186 HD
ENDBRANCH   1   6
BRANCH   5  11
HETATM   11  C5  UNL     1       0.904  28.202   9.068  1.00  0.00     0.156 A 
HETATM   12  C6  UNL     1       2.305  27.978   8.941  1.00  0.00     0.089 A 
HETATM   13  C7  UNL     1       2.934  28.579   7.959  1.00  0.00     0.113 A 
HETATM   14  C8  UNL     1       2.203  29.388   7.112  1.00  0.00     0.089 A 
HETATM   15  S1  UNL     1       0.636  29.248   7.770  1.00  0.00    -0.067 SA
BRANCH  13  16
HETATM   16  N4  UNL     1       4.374  28.425   7.714  1.00  0.00    -0.115 N 
HETATM   17  O2  UNL     1       5.025  29.305   7.172  1.00  0.00    -0.532 OA
HETATM   18  O3  UNL     1       5.042  27.279   8.091  1.00  0.00    -0.532 OA
ENDBRANCH  13  16
ENDBRANCH   5  11
TORSDOF 3
ENDMDL
MODEL 2
REMARK VINA RESULT: -6.966953065      3.005      7.321
REMARK  3 active torsions:
REMARK  status: ('A' for Active; 'I' for Inactive)
REMARK    1  A    between atoms: N1_4  and  N2_6 
REMARK       I    between atoms: N2_6  and  C4_8 
REMARK       I    between atoms: C4_8  and  N3_10 
REMARK    2  A    between atoms: N3_10  and  C5_11 
REMARK    3  A    between atoms: C7_13  and  N4_14 
ROOT
HETATM    1  N2  UNL     1       0.541  28.390   8.403  1.00  0.00    -0.239 N 
ATOM      2  H2  UNL     1       0.598  27.485   7.936  1.00  0.00     0.193 HD
HETATM    3  C4  UNL     1       0.258  28.445   9.834  1.00  0.00     0.413 C 
HETATM    4  O1  UNL     1       0.233  29.659  10.251  1.00  0.00    -0.228 OA
HETATM    5  N3  UNL     1       0.071  27.332  10.490  1.00  0.00    -0.343 NA
ENDROOT
BRANCH   1   6
HETATM    6  N1  UNL     1       0.732  29.541   7.676  1.00  0.00    -0.305 N 
HETATM    7  C2  UNL     1       1.888  29.886   7.201  1.00  0.00    -0.004 C 
HETATM    8  C1  UNL     1       2.033  31.137   6.427  1.00  0.00     0.064 C 
HETATM    9  C3  UNL     1       3.069  28.996   7.440  1.00  0.00     0.064 C 
ATOM     10  H1  UNL     1      -0.069  30.149   7.504  1.00  0.00     0.186 HD
ENDBRANCH   1   6
BRANCH   5  11
HETATM   11  C5  UNL     1      -0.128  26.149  11.187  1.00  0.00     0.156 A 
HETATM   12  C6  UNL     1      -0.945  26.115  12.355  1.00  0.00     0.089 A 
HETATM   13  C7  UNL     1      -1.078  24.966  12.974  1.00  0.00     0.113 A 
HETATM   14  C8  UNL     1      -0.423  23.865  12.459  1.00  0.00     0.089 A 
HETATM   15  S1  UNL     1       0.360  24.535  11.101  1.00  0.00    -0.067 SA
BRANCH  13  16
HETATM   16  N4  UNL     1      -1.898  24.795  14.181  1.00  0.00    -0.115 N 
HETATM   17  O2  UNL     1      -2.286  25.756  14.826  1.00  0.00    -0.532 OA
HETATM   18  O3  UNL     1      -2.258  23.541  14.626  1.00  0.00    -0.532 OA
ENDBRANCH  13  16
ENDBRANCH   5  11
TORSDOF 3
ENDMDL
MODEL 3
REMARK VINA RESULT: -6.895339011      1.891      2.197
REMARK  3 active torsions:
REMARK  status: ('A' for Active; 'I' for Inactive)
REMARK    1  A    between atoms: N1_4  and  N2_6 
REMARK       I    between atoms: N2_6  and  C4_8 
REMARK       I    between atoms: C4_8  and  N3_10 
REMARK    2  A    between atoms: N3_10  and  C5_11 
REMARK    3  A    between atoms: C7_13  and  N4_14 
ROOT
HETATM    1  N2  UNL     1       0.684  27.100  11.101  1.00  0.00    -0.239 N 
ATOM      2  H2  UNL     1       1.187  26.257  10.825  1.00  0.00     0.193 HD
HETATM    3  C4  UNL     1       0.905  28.343  10.370  1.00  0.00     0.413 C 
HETATM    4  O1  UNL     1       0.185  29.292  10.847  1.00  0.00    -0.228 OA
HETATM    5  N3  UNL     1       1.756  28.356   9.379  1.00  0.00    -0.343 NA
ENDROOT
BRANCH   1   6
HETATM    6  N1  UNL     1      -0.195  27.050  12.158  1.00  0.00    -0.305 N 
HETATM    7  C2  UNL     1      -0.524  25.940  12.744  1.00  0.00    -0.004 C 
HETATM    8  C1  UNL     1      -1.475  25.947  13.874  1.00  0.00     0.064 C 
HETATM    9  C3  UNL     1       0.080  24.656  12.263  1.00  0.00     0.064 C 
ATOM     10  H1  UNL     1      -0.604  27.920  12.495  1.00  0.00     0.186 HD
ENDBRANCH   1   6
BRANCH   5  11
HETATM   11  C5  UNL     1       2.659  28.371   8.326  1.00  0.00     0.156 A 
HETATM   12  C6  UNL     1       3.689  27.391   8.231  1.00  0.00     0.089 A 
HETATM   13  C7  UNL     1       4.519  27.472   7.217  1.00  0.00     0.113 A 
HETATM   14  C8  UNL     1       4.344  28.497   6.309  1.00  0.00     0.089 A 
HETATM   15  S1  UNL     1       2.988  29.303   6.957  1.00  0.00    -0.067 SA
BRANCH  13  16
HETATM   16  N4  UNL     1       5.616  26.520   7.000  1.00  0.00    -0.115 N 
HETATM   17  O2  UNL     1       6.350  26.177   7.913  1.00  0.00    -0.532 OA
HETATM   18  O3  UNL     1       5.854  25.979   5.754  1.00  0.00    -0.532 OA
ENDBRANCH  13  16
ENDBRANCH   5  11
TORSDOF 3
ENDMDL
MODEL 4
REMARK VINA RESULT: -6.823115919      2.585      2.873
REMARK  3 active torsions:
REMARK  status: ('A' for Active; 'I' for Inactive)
REMARK    1  A    between atoms: N1_4  and  N2_6 
REMARK       I    between atoms: N2_6  and  C4_8 
REMARK       I    between atoms: C4_8  and  N3_10 
REMARK    2  A    between atoms: N3_10  and  C5_11 
REMARK    3  A    between atoms: C7_13  and  N4_14 
ROOT
HETATM    1  N2  UNL     1       0.769  25.744  11.652  1.00  0.00    -0.239 N 
ATOM      2  H2  UNL     1       0.304  26.631  11.462  1.00  0.00     0.193 HD
HETATM    3  C4  UNL     1       1.975  25.389  10.910  1.00  0.00     0.413 C 
HETATM    4  O1  UNL     1       2.427  24.248  11.286  1.00  0.00    -0.228 OA
HETATM    5  N3  UNL     1       2.431  26.212  10.005  1.00  0.00    -0.343 NA
ENDROOT
BRANCH   1   6
HETATM    6  N1  UNL     1       0.252  24.897  12.604  1.00  0.00    -0.305 N 
HETATM    7  C2  UNL     1      -0.854  25.145  13.236  1.00  0.00    -0.004 C 
HETATM    8  C1  UNL     1      -1.361  24.200  14.251  1.00  0.00     0.064 C 
HETATM    9  C3  UNL     1      -1.610  26.399  12.916  1.00  0.00     0.064 C 
ATOM     10  H1  UNL     1       0.757  24.039  12.823  1.00  0.00     0.186 HD
ENDBRANCH   1   6
BRANCH   5  11
HETATM   11  C5  UNL     1       2.916  27.086   9.043  1.00  0.00     0.156 A 
HETATM   12  C6  UNL     1       2.141  28.199   8.607  1.00  0.00     0.089 A 
HETATM   13  C7  UNL     1       2.655  28.977   7.683  1.00  0.00     0.113 A 
HETATM   14  C8  UNL     1       3.909  28.671   7.193  1.00  0.00     0.089 A 
HETATM   15  S1  UNL     1       4.295  27.271   8.086  1.00  0.00    -0.067 SA
BRANCH  13  16
HETATM   16  N4  UNL     1       1.963  30.160   7.154  1.00  0.00    -0.115 N 
HETATM   17  O2  UNL     1       0.773  30.344   7.358  1.00  0.00    -0.532 OA
HETATM   18  O3  UNL     1       2.636  31.106   6.410  1.00  0.00    -0.532 OA
ENDBRANCH  13  16
ENDBRANCH   5  11
TORSDOF 3
ENDMDL
MODEL 5
REMARK VINA RESULT: -6.726539393      3.108      7.510
REMARK  3 active torsions:
REMARK  status: ('A' for Active; 'I' for Inactive)
REMARK    1  A    between atoms: N1_4  and  N2_6 
REMARK       I    between atoms: N2_6  and  C4_8 
REMARK       I    between atoms: C4_8  and  N3_10 
REMARK    2  A    between atoms: N3_10  and  C5_11 
REMARK    3  A    between atoms: C7_13  and  N4_14 
ROOT
HETATM    1  N2  UNL     1       2.682  26.874   9.819  1.00  0.00    -0.239 N 
ATOM      2  H2  UNL     1       2.408  27.722  10.315  1.00  0.00     0.193 HD
HETATM    3  C4  UNL     1       2.001  25.617  10.109  1.00  0.00     0.413 C 
HETATM    4  O1  UNL     1       2.468  24.663   9.388  1.00  0.00    -0.228 OA
HETATM    5  N3  UNL     1       1.057  25.597  11.012  1.00  0.00    -0.343 NA
ENDROOT
BRANCH   1   6
HETATM    6  N1  UNL     1       3.689  26.932   8.885  1.00  0.00    -0.305 N 
HETATM    7  C2  UNL     1       3.719  27.820   7.940  1.00  0.00    -0.004 C 
HETATM    8  C1  UNL     1       4.826  27.833   6.962  1.00  0.00     0.064 C 
HETATM    9  C3  UNL     1       2.620  28.836   7.861  1.00  0.00     0.064 C 
ATOM     10  H1  UNL     1       4.444  26.248   8.936  1.00  0.00     0.186 HD
ENDBRANCH   1   6
BRANCH   5  11
HETATM   11  C5  UNL     1       0.055  25.575  11.970  1.00  0.00     0.156 A 
HETATM   12  C6  UNL     1      -0.307  24.363  12.625  1.00  0.00     0.089 A 
HETATM   13  C7  UNL     1      -1.275  24.413  13.511  1.00  0.00     0.113 A 
HETATM   14  C8  UNL     1      -1.879  25.630  13.753  1.00  0.00     0.089 A 
HETATM   15  S1  UNL     1      -1.026  26.655  12.691  1.00  0.00    -0.067 SA
BRANCH  13  16
HETATM   16  N4  UNL     1      -1.736  23.237  14.262  1.00  0.00    -0.115 N 
HETATM   17  O2  UNL     1      -2.524  23.343  15.188  1.00  0.00    -0.532 OA
HETATM   18  O3  UNL     1      -1.296  21.970  13.942  1.00  0.00    -0.532 OA
ENDBRANCH  13  16
ENDBRANCH   5  11
TORSDOF 3
ENDMDL
