MODEL 1
REMARK VINA RESULT: -5.953675845      0.000      0.000
REMARK  5 active torsions:
REMARK  status: ('A' for Active; 'I' for Inactive)
REMARK    1  A    between atoms: N1_2  and  N2_4 
REMARK    2  A    between atoms: N2_4  and  C3_6 
REMARK    3  A    between atoms: C3_6  and  O1_8 
REMARK    4  A    between atoms: O1_8  and  N3_9 
REMARK       I    between atoms: N3_9  and  C4_11 
REMARK    5  A    between atoms: C4_11  and  C5_13 
ROOT
HETATM    1  N3  UNL     1      -0.044  27.351   9.526  1.00  0.00    -0.222 N 
ATOM      2  H3  UNL     1       0.218  26.658   8.825  1.00  0.00     0.198 HD
HETATM    3  C4  UNL     1       0.448  28.672   9.466  1.00  0.00     0.282 C 
HETATM    4  O2  UNL     1       0.161  29.545  10.290  1.00  0.00    -0.265 OA
ENDROOT
BRANCH   1   5
HETATM    5  O1  UNL     1      -0.893  27.027  10.569  1.00  0.00    -0.203 OA
BRANCH   5   6
HETATM    6  C3  UNL     1      -0.445  26.367  11.700  1.00  0.00     0.249 C 
HETATM    7  S1  UNL     1      -1.237  26.352  13.124  1.00  0.00    -0.030 SA
BRANCH   6   8
HETATM    8  N2  UNL     1       0.779  25.659  11.618  1.00  0.00    -0.289 N 
ATOM      9  H2  UNL     1       1.534  25.914  12.254  1.00  0.00     0.184 HD
BRANCH   8  10
HETATM   10  N1  UNL     1       0.994  24.623  10.701  1.00  0.00    -0.237 NA
HETATM   11  C1  UNL     1       2.296  24.050  10.968  1.00  0.00     0.135 C 
HETATM   12  C2  UNL     1      -0.036  23.611  10.734  1.00  0.00     0.135 C 
ENDBRANCH   8  10
ENDBRANCH   6   8
ENDBRANCH   5   6
ENDBRANCH   1   5
BRANCH   3  13
HETATM   13  C5  UNL     1       1.355  29.037   8.364  1.00  0.00     0.074 A 
HETATM   14  C6  UNL     1       1.207  30.028   7.436  1.00  0.00     0.025 A 
HETATM   15  C7  UNL     1       2.185  30.167   6.519  1.00  0.00     0.009 A 
HETATM   16  C8  UNL     1       3.240  29.305   6.593  1.00  0.00     0.050 A 
HETATM   17  S2  UNL     1       2.845  28.329   7.932  1.00  0.00    -0.097 SA
ENDBRANCH   3  13
TORSDOF 5
ENDMDL
MODEL 2
REMARK VINA RESULT: -5.885550889      0.991      1.243
REMARK  5 active torsions:
REMARK  status: ('A' for Active; 'I' for Inactive)
REMARK    1  A    between atoms: N1_2  and  N2_4 
REMARK    2  A    between atoms: N2_4  and  C3_6 
REMARK    3  A    between atoms: C3_6  and  O1_8 
REMARK    4  A    between atoms: O1_8  and  N3_9 
REMARK       I    between atoms: N3_9  and  C4_11 
REMARK    5  A    between atoms: C4_11  and  C5_13 
ROOT
HETATM    1  N3  UNL     1      -0.350  27.087  10.019  1.00  0.00    -0.222 N 
ATOM      2  H3  UNL     1      -0.231  26.397   9.277  1.00  0.00     0.198 HD
HETATM    3  C4  UNL     1       0.375  28.298  10.011  1.00  0.00     0.282 C 
HETATM    4  O2  UNL     1       0.266  29.164  10.885  1.00  0.00    -0.265 OA
ENDROOT
BRANCH   1   5
HETATM    5  O1  UNL     1      -1.225  26.868  11.067  1.00  0.00    -0.203 OA
BRANCH   5   6
HETATM    6  C3  UNL     1      -0.860  26.139  12.185  1.00  0.00     0.249 C 
HETATM    7  S1  UNL     1      -1.802  25.954  13.503  1.00  0.00    -0.030 SA
BRANCH   6   8
HETATM    8  N2  UNL     1       0.409  25.512  12.188  1.00  0.00    -0.289 N 
ATOM      9  H2  UNL     1       1.061  25.733  12.940  1.00  0.00     0.184 HD
BRANCH   8  10
HETATM   10  N1  UNL     1       0.806  24.602  11.201  1.00  0.00    -0.237 NA
HETATM   11  C1  UNL     1       2.253  24.611  11.137  1.00  0.00     0.135 C 
HETATM   12  C2  UNL     1       0.305  23.266  11.425  1.00  0.00     0.135 C 
ENDBRANCH   8  10
ENDBRANCH   6   8
ENDBRANCH   5   6
ENDBRANCH   1   5
BRANCH   3  13
HETATM   13  C5  UNL     1       1.314  28.550   8.904  1.00  0.00     0.074 A 
HETATM   14  C6  UNL     1       2.525  27.964   8.668  1.00  0.00     0.025 A 
HETATM   15  C7  UNL     1       3.204  28.368   7.576  1.00  0.00     0.009 A 
HETATM   16  C8  UNL     1       2.626  29.329   6.799  1.00  0.00     0.050 A 
HETATM   17  S2  UNL     1       1.159  29.643   7.604  1.00  0.00    -0.097 SA
ENDBRANCH   3  13
TORSDOF 5
ENDMDL
MODEL 3
REMARK VINA RESULT: -5.803804883      1.383      1.652
REMARK  5 active torsions:
REMARK  status: ('A' for Active; 'I' for Inactive)
REMARK    1  A    between atoms: N1_2  and  N2_4 
REMARK    2  A    between atoms: N2_4  and  C3_6 
REMARK    3  A    between atoms: C3_6  and  O1_8 
REMARK    4  A    between atoms: O1_8  and  N3_9 
REMARK       I    between atoms: N3_9  and  C4_11 
REMARK    5  A    between atoms: C4_11  and  C5_13 
ROOT
HETATM    1  N3  UNL     1       1.152  28.045  10.304  1.00  0.00    -0.222 N 
ATOM      2  H3  UNL     1       2.020  27.682  10.698  1.00  0.00     0.198 HD
HETATM    3  C4  UNL     1       1.097  28.522   8.977  1.00  0.00     0.282 C 
HETATM    4  O2  UNL     1       0.071  28.971   8.455  1.00  0.00    -0.265 OA
ENDROOT
BRANCH   1   5
HETATM    5  O1  UNL     1      -0.011  28.087  11.051  1.00  0.00    -0.203 OA
BRANCH   5   6
HETATM    6  C3  UNL     1      -0.603  26.940  11.549  1.00  0.00     0.249 C 
HETATM    7  S1  UNL     1      -0.953  26.700  13.123  1.00  0.00    -0.030 SA
BRANCH   6   8
HETATM    8  N2  UNL     1      -0.927  25.907  10.637  1.00  0.00    -0.289 N 
ATOM      9  H2  UNL     1      -1.898  25.802  10.342  1.00  0.00     0.184 HD
BRANCH   8  10
HETATM   10  N1  UNL     1       0.029  25.023  10.122  1.00  0.00    -0.237 NA
HETATM   11  C1  UNL     1      -0.211  23.716  10.697  1.00  0.00     0.135 C 
HETATM   12  C2  UNL     1       0.031  24.964   8.679  1.00  0.00     0.135 C 
ENDBRANCH   8  10
ENDBRANCH   6   8
ENDBRANCH   5   6
ENDBRANCH   1   5
BRANCH   3  13
HETATM   13  C5  UNL     1       2.325  28.488   8.164  1.00  0.00     0.074 A 
HETATM   14  C6  UNL     1       2.627  29.219   7.050  1.00  0.00     0.025 A 
HETATM   15  C7  UNL     1       3.828  29.006   6.478  1.00  0.00     0.009 A 
HETATM   16  C8  UNL     1       4.642  28.077   7.058  1.00  0.00     0.050 A 
HETATM   17  S2  UNL     1       3.718  27.528   8.379  1.00  0.00    -0.097 SA
ENDBRANCH   3  13
TORSDOF 5
ENDMDL
MODEL 4
REMARK VINA RESULT: -5.692811661      2.426      3.050
REMARK  5 active torsions:
REMARK  status: ('A' for Active; 'I' for Inactive)
REMARK    1  A    between atoms: N1_2  and  N2_4 
REMARK    2  A    between atoms: N2_4  and  C3_6 
REMARK    3  A    between atoms: C3_6  and  O1_8 
REMARK    4  A    between atoms: O1_8  and  N3_9 
REMARK       I    between atoms: N3_9  and  C4_11 
REMARK    5  A    between atoms: C4_11  and  C5_13 
ROOT
HETATM    1  N3  UNL     1       2.146  26.837  10.251  1.00  0.00    -0.222 N 
ATOM      2  H3  UNL     1       1.461  27.512  10.591  1.00  0.00     0.198 HD
HETATM    3  C4  UNL     1       2.819  27.035   9.027  1.00  0.00     0.282 C 
HETATM    4  O2  UNL     1       3.656  26.248   8.573  1.00  0.00    -0.265 OA
ENDROOT
BRANCH   1   5
HETATM    5  O1  UNL     1       2.446  25.696  10.973  1.00  0.00    -0.203 OA
BRANCH   5   6
HETATM    6  C3  UNL     1       1.478  24.765  11.306  1.00  0.00     0.249 C 
HETATM    7  S1  UNL     1       1.407  23.258  10.687  1.00  0.00    -0.030 SA
BRANCH   6   8
HETATM    8  N2  UNL     1       0.485  25.140  12.243  1.00  0.00    -0.289 N 
ATOM      9  H2  UNL     1       0.346  24.555  13.068  1.00  0.00     0.184 HD
BRANCH   8  10
HETATM   10  N1  UNL     1      -0.312  26.280  12.087  1.00  0.00    -0.237 NA
HETATM   11  C1  UNL     1      -1.317  25.991  11.085  1.00  0.00     0.135 C 
HETATM   12  C2  UNL     1      -0.920  26.724  13.320  1.00  0.00     0.135 C 
ENDBRANCH   8  10
ENDBRANCH   6   8
ENDBRANCH   5   6
ENDBRANCH   1   5
BRANCH   3  13
HETATM   13  C5  UNL     1       2.513  28.242   8.241  1.00  0.00     0.074 A 
HETATM   14  C6  UNL     1       3.362  29.004   7.488  1.00  0.00     0.025 A 
HETATM   15  C7  UNL     1       2.837  30.071   6.854  1.00  0.00     0.009 A 
HETATM   16  C8  UNL     1       1.503  30.303   7.018  1.00  0.00     0.050 A 
HETATM   17  S2  UNL     1       1.015  29.035   8.045  1.00  0.00    -0.097 SA
ENDBRANCH   3  13
TORSDOF 5
ENDMDL
MODEL 5
REMARK VINA RESULT: -5.689129257      2.478      3.193
REMARK  5 active torsions:
REMARK  status: ('A' for Active; 'I' for Inactive)
REMARK    1  A    between atoms: N1_2  and  N2_4 
REMARK    2  A    between atoms: N2_4  and  C3_6 
REMARK    3  A    between atoms: C3_6  and  O1_8 
REMARK    4  A    between atoms: O1_8  and  N3_9 
REMARK       I    between atoms: N3_9  and  C4_11 
REMARK    5  A    between atoms: C4_11  and  C5_13 
ROOT
HETATM    1  N3  UNL     1       1.535  26.300  10.752  1.00  0.00    -0.222 N 
ATOM      2  H3  UNL     1       0.948  27.048  11.119  1.00  0.00     0.198 HD
HETATM    3  C4  UNL     1       2.170  26.420   9.497  1.00  0.00     0.282 C 
HETATM    4  O2  UNL     1       2.891  25.543   9.011  1.00  0.00    -0.265 OA
ENDROOT
BRANCH   1   5
HETATM    5  O1  UNL     1       1.738  25.133  11.466  1.00  0.00    -0.203 OA
BRANCH   5   6
HETATM    6  C3  UNL     1       0.726  24.207  11.657  1.00  0.00     0.249 C 
HETATM    7  S1  UNL     1       0.647  22.770  10.892  1.00  0.00    -0.030 SA
BRANCH   6   8
HETATM    8  N2  UNL     1      -0.305  24.525  12.574  1.00  0.00    -0.289 N 
ATOM      9  H2  UNL     1      -0.886  23.769  12.936  1.00  0.00     0.184 HD
BRANCH   8  10
HETATM   10  N1  UNL     1      -0.559  25.833  13.003  1.00  0.00    -0.237 NA
HETATM   11  C1  UNL     1      -1.717  26.324  12.287  1.00  0.00     0.135 C 
HETATM   12  C2  UNL     1      -0.749  25.935  14.432  1.00  0.00     0.135 C 
ENDBRANCH   8  10
ENDBRANCH   6   8
ENDBRANCH   5   6
ENDBRANCH   1   5
BRANCH   3  13
HETATM   13  C5  UNL     1       1.967  27.654   8.720  1.00  0.00     0.074 A 
HETATM   14  C6  UNL     1       2.869  28.329   7.946  1.00  0.00     0.025 A 
HETATM   15  C7  UNL     1       2.438  29.445   7.326  1.00  0.00     0.009 A 
HETATM   16  C8  UNL     1       1.138  29.809   7.523  1.00  0.00     0.050 A 
HETATM   17  S2  UNL     1       0.551  28.593   8.561  1.00  0.00    -0.097 SA
ENDBRANCH   3  13
TORSDOF 5
ENDMDL
