MODEL 1
REMARK VINA RESULT: -7.172860444      0.000      0.000
REMARK  5 active torsions:
REMARK  status: ('A' for Active; 'I' for Inactive)
REMARK    1  A    between atoms: C2_2  and  C4_4 
REMARK    2  A    between atoms: C2_2  and  N4_18 
REMARK    3  A    between atoms: N2_7  and  N3_9 
REMARK    4  A    between atoms: N3_9  and  C6_11 
REMARK    5  A    between atoms: C9_14  and  O1_15 
ROOT
HETATM    1  C4  UNL     1      -0.229  25.543  10.488  1.00  0.00     0.139 C 
HETATM    2  C5  UNL     1      -1.331  25.888  11.323  1.00  0.00     0.117 C 
HETATM    3  N1  UNL     1      -2.215  26.161  11.997  1.00  0.00    -0.190 NA
HETATM    4  N2  UNL     1       0.120  26.282   9.497  1.00  0.00    -0.291 N 
ATOM      5  H2  UNL     1       0.911  26.019   8.910  1.00  0.00     0.187 HD
ENDROOT
BRANCH   1   6
HETATM    6  C2  UNL     1       0.540  24.309  10.754  1.00  0.00     0.142 C 
HETATM    7  C1  UNL     1       2.047  24.575  10.642  1.00  0.00     0.053 C 
HETATM    8  C3  UNL     1       0.308  23.783  12.147  1.00  0.00     0.053 C 
BRANCH   6   9
HETATM    9  N4  UNL     1       0.232  23.273   9.767  1.00  0.00    -0.139 N 
HETATM   10  O2  UNL     1      -0.104  23.575   8.607  1.00  0.00    -0.536 OA
HETATM   11  O3  UNL     1       0.308  21.945  10.101  1.00  0.00    -0.536 OA
ENDBRANCH   6   9
ENDBRANCH   1   6
BRANCH   4  12
HETATM   12  N3  UNL     1      -0.594  27.446   9.234  1.00  0.00    -0.293 N 
ATOM     13  H3  UNL     1      -1.582  27.514   9.481  1.00  0.00     0.187 HD
BRANCH  12  14
HETATM   14  C6  UNL     1       0.083  28.554   8.606  1.00  0.00     0.091 A 
HETATM   15  C7  UNL     1       0.895  28.533   7.505  1.00  0.00     0.042 A 
HETATM   16  C8  UNL     1       1.416  29.697   7.101  1.00  0.00     0.047 A 
HETATM   17  C9  UNL     1       1.095  30.816   7.824  1.00  0.00     0.109 A 
HETATM   18  S1  UNL     1       0.075  30.200   9.044  1.00  0.00    -0.047 SA
BRANCH  17  19
HETATM   19  O1  UNL     1       1.526  32.140   7.584  1.00  0.00    -0.354 OA
ATOM     20  H1  UNL     1       1.057  32.941   7.786  1.00  0.00     0.218 HD
ENDBRANCH  17  19
ENDBRANCH  12  14
ENDBRANCH   4  12
TORSDOF 5
ENDMDL
MODEL 2
REMARK VINA RESULT: -7.027538424      1.438      1.806
REMARK  5 active torsions:
REMARK  status: ('A' for Active; 'I' for Inactive)
REMARK    1  A    between atoms: C2_2  and  C4_4 
REMARK    2  A    between atoms: C2_2  and  N4_18 
REMARK    3  A    between atoms: N2_7  and  N3_9 
REMARK    4  A    between atoms: N3_9  and  C6_11 
REMARK    5  A    between atoms: C9_14  and  O1_15 
ROOT
HETATM    1  C4  UNL     1      -0.101  25.654  10.556  1.00  0.00     0.139 C 
HETATM    2  C5  UNL     1      -0.818  26.227  11.646  1.00  0.00     0.117 C 
HETATM    3  N1  UNL     1      -1.393  26.683  12.525  1.00  0.00    -0.190 NA
HETATM    4  N2  UNL     1      -0.042  26.234   9.412  1.00  0.00    -0.291 N 
ATOM      5  H2  UNL     1       0.476  25.809   8.644  1.00  0.00     0.187 HD
ENDROOT
BRANCH   1   6
HETATM    6  C2  UNL     1       0.596  24.361  10.730  1.00  0.00     0.142 C 
HETATM    7  C1  UNL     1       0.193  23.703  12.055  1.00  0.00     0.053 C 
HETATM    8  C3  UNL     1       0.244  23.375   9.646  1.00  0.00     0.053 C 
BRANCH   6   9
HETATM    9  N4  UNL     1       2.047  24.548  10.788  1.00  0.00    -0.139 N 
HETATM   10  O2  UNL     1       2.773  23.732  11.384  1.00  0.00    -0.536 OA
HETATM   11  O3  UNL     1       2.637  25.630  10.186  1.00  0.00    -0.536 OA
ENDBRANCH   6   9
ENDBRANCH   1   6
BRANCH   4  12
HETATM   12  N3  UNL     1      -0.693  27.449   9.234  1.00  0.00    -0.293 N 
ATOM     13  H3  UNL     1      -1.658  27.570   9.542  1.00  0.00     0.187 HD
BRANCH  12  14
HETATM   14  C6  UNL     1       0.017  28.537   8.604  1.00  0.00     0.091 A 
HETATM   15  C7  UNL     1       0.846  28.486   7.518  1.00  0.00     0.042 A 
HETATM   16  C8  UNL     1       1.397  29.634   7.109  1.00  0.00     0.047 A 
HETATM   17  C9  UNL     1       1.086  30.768   7.814  1.00  0.00     0.109 A 
HETATM   18  S1  UNL     1       0.034  30.188   9.023  1.00  0.00    -0.047 SA
BRANCH  17  19
HETATM   19  O1  UNL     1       1.548  32.080   7.566  1.00  0.00    -0.354 OA
ATOM     20  H1  UNL     1       2.441  32.397   7.637  1.00  0.00     0.218 HD
ENDBRANCH  17  19
ENDBRANCH  12  14
ENDBRANCH   4  12
TORSDOF 5
ENDMDL
MODEL 3
REMARK VINA RESULT: -7.000804355      1.611      2.023
REMARK  5 active torsions:
REMARK  status: ('A' for Active; 'I' for Inactive)
REMARK    1  A    between atoms: C2_2  and  C4_4 
REMARK    2  A    between atoms: C2_2  and  N4_18 
REMARK    3  A    between atoms: N2_7  and  N3_9 
REMARK    4  A    between atoms: N3_9  and  C6_11 
REMARK    5  A    between atoms: C9_14  and  O1_15 
ROOT
HETATM    1  C4  UNL     1      -0.237  25.679  11.028  1.00  0.00     0.139 C 
HETATM    2  C5  UNL     1      -1.544  25.918  11.544  1.00  0.00     0.117 C 
HETATM    3  N1  UNL     1      -2.595  26.105  11.959  1.00  0.00    -0.190 NA
HETATM    4  N2  UNL     1       0.517  26.643  10.638  1.00  0.00    -0.291 N 
ATOM      5  H2  UNL     1       1.449  26.452  10.271  1.00  0.00     0.187 HD
ENDROOT
BRANCH   1   6
HETATM    6  C2  UNL     1       0.277  24.296  10.932  1.00  0.00     0.142 C 
HETATM    7  C1  UNL     1       0.170  23.584  12.286  1.00  0.00     0.053 C 
HETATM    8  C3  UNL     1      -0.512  23.462   9.955  1.00  0.00     0.053 C 
BRANCH   6   9
HETATM    9  N4  UNL     1       1.696  24.284  10.573  1.00  0.00    -0.139 N 
HETATM   10  O2  UNL     1       2.575  24.176  11.447  1.00  0.00    -0.536 OA
HETATM   11  O3  UNL     1       2.086  24.392   9.263  1.00  0.00    -0.536 OA
ENDBRANCH   6   9
ENDBRANCH   1   6
BRANCH   4  12
HETATM   12  N3  UNL     1       0.047  27.948  10.721  1.00  0.00    -0.293 N 
ATOM     13  H3  UNL     1      -0.500  28.252  11.527  1.00  0.00     0.187 HD
BRANCH  12  14
HETATM   14  C6  UNL     1       0.344  28.867   9.648  1.00  0.00     0.091 A 
HETATM   15  C7  UNL     1       0.031  30.195   9.564  1.00  0.00     0.042 A 
HETATM   16  C8  UNL     1       0.414  30.851   8.462  1.00  0.00     0.047 A 
HETATM   17  C9  UNL     1       1.090  30.137   7.508  1.00  0.00     0.109 A 
HETATM   18  S1  UNL     1       1.166  28.573   8.185  1.00  0.00    -0.047 SA
BRANCH  17  19
HETATM   19  O1  UNL     1       1.587  30.617   6.276  1.00  0.00    -0.354 OA
ATOM     20  H1  UNL     1       2.496  30.669   6.004  1.00  0.00     0.218 HD
ENDBRANCH  17  19
ENDBRANCH  12  14
ENDBRANCH   4  12
TORSDOF 5
ENDMDL
MODEL 4
REMARK VINA RESULT: -6.883761256      1.069      1.422
REMARK  5 active torsions:
REMARK  status: ('A' for Active; 'I' for Inactive)
REMARK    1  A    between atoms: C2_2  and  C4_4 
REMARK    2  A    between atoms: C2_2  and  N4_18 
REMARK    3  A    between atoms: N2_7  and  N3_9 
REMARK    4  A    between atoms: N3_9  and  C6_11 
REMARK    5  A    between atoms: C9_14  and  O1_15 
ROOT
HETATM    1  C4  UNL     1      -0.222  25.436  10.718  1.00  0.00     0.139 C 
HETATM    2  C5  UNL     1      -1.392  25.795  11.448  1.00  0.00     0.117 C 
HETATM    3  N1  UNL     1      -2.333  26.079  12.036  1.00  0.00    -0.190 NA
HETATM    4  N2  UNL     1       0.280  26.215   9.830  1.00  0.00    -0.291 N 
ATOM      5  H2  UNL     1       1.119  25.941   9.317  1.00  0.00     0.187 HD
ENDROOT
BRANCH   1   6
HETATM    6  C2  UNL     1       0.441  24.140  10.978  1.00  0.00     0.142 C 
HETATM    7  C1  UNL     1       1.963  24.314  11.040  1.00  0.00     0.053 C 
HETATM    8  C3  UNL     1       0.031  23.547  12.302  1.00  0.00     0.053 C 
BRANCH   6   9
HETATM    9  N4  UNL     1       0.179  23.188   9.898  1.00  0.00    -0.139 N 
HETATM   10  O2  UNL     1       0.232  21.961  10.100  1.00  0.00    -0.536 OA
HETATM   11  O3  UNL     1      -0.130  23.630   8.637  1.00  0.00    -0.536 OA
ENDBRANCH   6   9
ENDBRANCH   1   6
BRANCH   4  12
HETATM   12  N3  UNL     1      -0.332  27.437   9.573  1.00  0.00    -0.293 N 
ATOM     13  H3  UNL     1      -1.239  27.658   9.985  1.00  0.00     0.187 HD
BRANCH  12  14
HETATM   14  C6  UNL     1       0.336  28.387   8.716  1.00  0.00     0.091 A 
HETATM   15  C7  UNL     1       0.169  29.743   8.669  1.00  0.00     0.042 A 
HETATM   16  C8  UNL     1       0.905  30.424   7.784  1.00  0.00     0.047 A 
HETATM   17  C9  UNL     1       1.767  29.706   6.996  1.00  0.00     0.109 A 
HETATM   18  S1  UNL     1       1.516  28.103   7.521  1.00  0.00    -0.047 SA
BRANCH  17  19
HETATM   19  O1  UNL     1       2.635  30.210   6.002  1.00  0.00    -0.354 OA
ATOM     20  H1  UNL     1       3.580  30.125   5.968  1.00  0.00     0.218 HD
ENDBRANCH  17  19
ENDBRANCH  12  14
ENDBRANCH   4  12
TORSDOF 5
ENDMDL
MODEL 5
REMARK VINA RESULT: -6.675585972      3.545      6.320
REMARK  5 active torsions:
REMARK  status: ('A' for Active; 'I' for Inactive)
REMARK    1  A    between atoms: C2_2  and  C4_4 
REMARK    2  A    between atoms: C2_2  and  N4_18 
REMARK    3  A    between atoms: N2_7  and  N3_9 
REMARK    4  A    between atoms: N3_9  and  C6_11 
REMARK    5  A    between atoms: C9_14  and  O1_15 
ROOT
HETATM    1  C4  UNL     1       0.617  26.303  10.534  1.00  0.00     0.139 C 
HETATM    2  C5  UNL     1       0.149  27.637  10.713  1.00  0.00     0.117 C 
HETATM    3  N1  UNL     1      -0.226  28.710  10.854  1.00  0.00    -0.190 NA
HETATM    4  N2  UNL     1       0.415  25.396  11.419  1.00  0.00    -0.291 N 
ATOM      5  H2  UNL     1       0.758  24.447  11.273  1.00  0.00     0.187 HD
ENDROOT
BRANCH   1   6
HETATM    6  C2  UNL     1       1.356  25.941   9.305  1.00  0.00     0.142 C 
HETATM    7  C1  UNL     1       0.725  26.608   8.077  1.00  0.00     0.053 C 
HETATM    8  C3  UNL     1       2.790  26.404   9.346  1.00  0.00     0.053 C 
BRANCH   6   9
HETATM    9  N4  UNL     1       1.300  24.498   9.063  1.00  0.00    -0.139 N 
HETATM   10  O2  UNL     1       2.293  23.777   9.269  1.00  0.00    -0.536 OA
HETATM   11  O3  UNL     1       0.149  23.911   8.603  1.00  0.00    -0.536 OA
ENDBRANCH   6   9
ENDBRANCH   1   6
BRANCH   4  12
HETATM   12  N3  UNL     1      -0.277  25.723  12.580  1.00  0.00    -0.293 N 
ATOM     13  H3  UNL     1      -0.494  26.695  12.797  1.00  0.00     0.187 HD
BRANCH  12  14
HETATM   14  C6  UNL     1      -0.683  24.664  13.472  1.00  0.00     0.091 A 
HETATM   15  C7  UNL     1      -0.398  23.329  13.383  1.00  0.00     0.042 A 
HETATM   16  C8  UNL     1      -0.888  22.529  14.337  1.00  0.00     0.047 A 
HETATM   17  C9  UNL     1      -1.636  23.113  15.326  1.00  0.00     0.109 A 
HETATM   18  S1  UNL     1      -1.629  24.760  14.886  1.00  0.00    -0.047 SA
BRANCH  17  19
HETATM   19  O1  UNL     1      -2.248  22.470  16.424  1.00  0.00    -0.354 OA
ATOM     20  H1  UNL     1      -1.903  22.387  17.306  1.00  0.00     0.218 HD
ENDBRANCH  17  19
ENDBRANCH  12  14
ENDBRANCH   4  12
TORSDOF 5
ENDMDL
