MODEL 1
REMARK VINA RESULT: -6.804372463      0.000      0.000
REMARK  5 active torsions:
REMARK  status: ('A' for Active; 'I' for Inactive)
REMARK    1  A    between atoms: C1_2  and  S1_3 
REMARK       I    between atoms: C1_2  and  N2_15 
REMARK    2  A    between atoms: S1_3  and  S2_4 
REMARK    3  A    between atoms: S2_4  and  C2_5 
REMARK    4  A    between atoms: C7_10  and  N1_11 
REMARK    5  A    between atoms: N1_11  and  O2_13 
ROOT
HETATM    1  C2  UNL     1       0.637  28.809   8.351  1.00  0.00     0.040 A 
HETATM    2  C3  UNL     1      -0.036  29.413   9.420  1.00  0.00     0.022 A 
HETATM    3  C4  UNL     1      -0.129  30.763   9.598  1.00  0.00     0.002 A 
HETATM    4  C5  UNL     1       0.468  31.603   8.684  1.00  0.00     0.002 A 
HETATM    5  C6  UNL     1       1.144  31.068   7.615  1.00  0.00     0.033 A 
HETATM    6  C7  UNL     1       1.220  29.678   7.461  1.00  0.00     0.071 A 
ENDROOT
BRANCH   1   7
HETATM    7  S2  UNL     1       0.678  27.084   8.345  1.00  0.00    -0.046 SA
BRANCH   7   8
HETATM    8  S1  UNL     1       1.147  26.639  10.345  1.00  0.00     0.015 SA
BRANCH   8   9
HETATM    9  C1  UNL     1      -0.314  25.980  10.966  1.00  0.00     0.356 C 
HETATM   10  O1  UNL     1      -0.830  24.847  10.677  1.00  0.00    -0.253 OA
HETATM   11  N2  UNL     1      -1.046  26.755  11.903  1.00  0.00    -0.065 N 
HETATM   12  O3  UNL     1      -0.630  27.863  12.251  1.00  0.00    -0.529 OA
HETATM   13  O4  UNL     1      -2.206  26.284  12.425  1.00  0.00    -0.529 OA
ENDBRANCH   8   9
ENDBRANCH   7   8
ENDBRANCH   1   7
BRANCH   6  14
HETATM   14  N1  UNL     1       1.944  29.145   6.367  1.00  0.00    -0.268 N 
ATOM     15  H1  UNL     1       1.538  28.372   5.841  1.00  0.00     0.194 HD
BRANCH  14  16
HETATM   16  O2  UNL     1       3.155  29.623   5.993  1.00  0.00    -0.289 OA
ATOM     17  H2  UNL     1       3.544  29.425   5.149  1.00  0.00     0.244 HD
ENDBRANCH  14  16
ENDBRANCH   6  14
TORSDOF 5
ENDMDL
MODEL 2
REMARK VINA RESULT: -6.733787071      1.911      2.841
REMARK  5 active torsions:
REMARK  status: ('A' for Active; 'I' for Inactive)
REMARK    1  A    between atoms: C1_2  and  S1_3 
REMARK       I    between atoms: C1_2  and  N2_15 
REMARK    2  A    between atoms: S1_3  and  S2_4 
REMARK    3  A    between atoms: S2_4  and  C2_5 
REMARK    4  A    between atoms: C7_10  and  N1_11 
REMARK    5  A    between atoms: N1_11  and  O2_13 
ROOT
HETATM    1  C2  UNL     1       1.182  28.859   8.144  1.00  0.00     0.040 A 
HETATM    2  C3  UNL     1       1.851  27.637   7.996  1.00  0.00     0.022 A 
HETATM    3  C4  UNL     1       2.799  27.398   7.045  1.00  0.00     0.002 A 
HETATM    4  C5  UNL     1       3.136  28.404   6.165  1.00  0.00     0.002 A 
HETATM    5  C6  UNL     1       2.513  29.623   6.261  1.00  0.00     0.033 A 
HETATM    6  C7  UNL     1       1.544  29.836   7.250  1.00  0.00     0.071 A 
ENDROOT
BRANCH   1   7
HETATM    7  S2  UNL     1      -0.019  28.932   9.381  1.00  0.00    -0.046 SA
BRANCH   7   8
HETATM    8  S1  UNL     1      -0.372  26.899   9.784  1.00  0.00     0.015 SA
BRANCH   8   9
HETATM    9  C1  UNL     1      -0.581  26.856  11.490  1.00  0.00     0.356 C 
HETATM   10  O1  UNL     1      -0.662  27.858  12.280  1.00  0.00    -0.253 OA
HETATM   11  N2  UNL     1      -0.679  25.585  12.115  1.00  0.00    -0.065 N 
HETATM   12  O3  UNL     1      -0.616  24.555  11.439  1.00  0.00    -0.529 OA
HETATM   13  O4  UNL     1      -0.844  25.492  13.458  1.00  0.00    -0.529 OA
ENDBRANCH   8   9
ENDBRANCH   7   8
ENDBRANCH   1   7
BRANCH   6  14
HETATM   14  N1  UNL     1       0.893  31.092   7.316  1.00  0.00    -0.268 N 
ATOM     15  H1  UNL     1      -0.047  31.178   6.931  1.00  0.00     0.194 HD
BRANCH  14  16
HETATM   16  O2  UNL     1       1.472  32.184   7.873  1.00  0.00    -0.289 OA
ATOM     17  H2  UNL     1       1.539  33.015   7.417  1.00  0.00     0.244 HD
ENDBRANCH  14  16
ENDBRANCH   6  14
TORSDOF 5
ENDMDL
MODEL 3
REMARK VINA RESULT: -6.628095330      1.552      2.017
REMARK  5 active torsions:
REMARK  status: ('A' for Active; 'I' for Inactive)
REMARK    1  A    between atoms: C1_2  and  S1_3 
REMARK       I    between atoms: C1_2  and  N2_15 
REMARK    2  A    between atoms: S1_3  and  S2_4 
REMARK    3  A    between atoms: S2_4  and  C2_5 
REMARK    4  A    between atoms: C7_10  and  N1_11 
REMARK    5  A    between atoms: N1_11  and  O2_13 
ROOT
HETATM    1  C2  UNL     1       0.701  28.720   8.239  1.00  0.00     0.040 A 
HETATM    2  C3  UNL     1       0.038  29.141   9.399  1.00  0.00     0.022 A 
HETATM    3  C4  UNL     1      -0.160  30.449   9.732  1.00  0.00     0.002 A 
HETATM    4  C5  UNL     1       0.313  31.435   8.893  1.00  0.00     0.002 A 
HETATM    5  C6  UNL     1       0.973  31.083   7.741  1.00  0.00     0.033 A 
HETATM    6  C7  UNL     1       1.158  29.731   7.428  1.00  0.00     0.071 A 
ENDROOT
BRANCH   1   7
HETATM    7  S2  UNL     1       0.888  27.017   8.036  1.00  0.00    -0.046 SA
BRANCH   7   8
HETATM    8  S1  UNL     1       1.911  26.465   9.788  1.00  0.00     0.015 SA
BRANCH   8   9
HETATM    9  C1  UNL     1       0.857  25.327  10.529  1.00  0.00     0.356 C 
HETATM   10  O1  UNL     1      -0.420  25.367  10.557  1.00  0.00    -0.253 OA
HETATM   11  N2  UNL     1       1.440  24.212  11.186  1.00  0.00    -0.065 N 
HETATM   12  O3  UNL     1       2.667  24.080  11.212  1.00  0.00    -0.529 OA
HETATM   13  O4  UNL     1       0.657  23.284  11.788  1.00  0.00    -0.529 OA
ENDBRANCH   8   9
ENDBRANCH   7   8
ENDBRANCH   1   7
BRANCH   6  14
HETATM   14  N1  UNL     1       1.865  29.387   6.250  1.00  0.00    -0.268 N 
ATOM     15  H1  UNL     1       1.358  28.940   5.487  1.00  0.00     0.194 HD
BRANCH  14  16
HETATM   16  O2  UNL     1       3.189  29.631   6.097  1.00  0.00    -0.289 OA
ATOM     17  H2  UNL     1       3.554  30.507   6.128  1.00  0.00     0.244 HD
ENDBRANCH  14  16
ENDBRANCH   6  14
TORSDOF 5
ENDMDL
MODEL 4
REMARK VINA RESULT: -6.622132769      2.166      5.795
REMARK  5 active torsions:
REMARK  status: ('A' for Active; 'I' for Inactive)
REMARK    1  A    between atoms: C1_2  and  S1_3 
REMARK       I    between atoms: C1_2  and  N2_15 
REMARK    2  A    between atoms: S1_3  and  S2_4 
REMARK    3  A    between atoms: S2_4  and  C2_5 
REMARK    4  A    between atoms: C7_10  and  N1_11 
REMARK    5  A    between atoms: N1_11  and  O2_13 
ROOT
HETATM    1  C2  UNL     1       0.886  25.920   9.446  1.00  0.00     0.040 A 
HETATM    2  C3  UNL     1       0.700  24.660   8.864  1.00  0.00     0.022 A 
HETATM    3  C4  UNL     1      -0.048  23.665   9.423  1.00  0.00     0.002 A 
HETATM    4  C5  UNL     1      -0.667  23.890  10.634  1.00  0.00     0.002 A 
HETATM    5  C6  UNL     1      -0.520  25.106  11.253  1.00  0.00     0.033 A 
HETATM    6  C7  UNL     1       0.254  26.107  10.651  1.00  0.00     0.071 A 
ENDROOT
BRANCH   1   7
HETATM    7  S2  UNL     1       1.913  27.015   8.595  1.00  0.00    -0.046 SA
BRANCH   7   8
HETATM    8  S1  UNL     1       0.530  28.232   7.582  1.00  0.00     0.015 SA
BRANCH   8   9
HETATM    9  C1  UNL     1       0.513  29.680   8.508  1.00  0.00     0.356 C 
HETATM   10  O1  UNL     1       0.041  29.833   9.687  1.00  0.00    -0.253 OA
HETATM   11  N2  UNL     1       1.077  30.847   7.928  1.00  0.00    -0.065 N 
HETATM   12  O3  UNL     1       1.563  30.802   6.795  1.00  0.00    -0.529 OA
HETATM   13  O4  UNL     1       1.090  32.016   8.614  1.00  0.00    -0.529 OA
ENDBRANCH   8   9
ENDBRANCH   7   8
ENDBRANCH   1   7
BRANCH   6  14
HETATM   14  N1  UNL     1       0.417  27.346  11.318  1.00  0.00    -0.268 N 
ATOM     15  H1  UNL     1       1.335  27.790  11.310  1.00  0.00     0.194 HD
BRANCH  14  16
HETATM   16  O2  UNL     1      -0.601  27.964  11.964  1.00  0.00    -0.289 OA
ATOM     17  H2  UNL     1      -1.376  28.279  11.514  1.00  0.00     0.244 HD
ENDBRANCH  14  16
ENDBRANCH   6  14
TORSDOF 5
ENDMDL
MODEL 5
REMARK VINA RESULT: -6.609131692      3.278      3.679
REMARK  5 active torsions:
REMARK  status: ('A' for Active; 'I' for Inactive)
REMARK    1  A    between atoms: C1_2  and  S1_3 
REMARK       I    between atoms: C1_2  and  N2_15 
REMARK    2  A    between atoms: S1_3  and  S2_4 
REMARK    3  A    between atoms: S2_4  and  C2_5 
REMARK    4  A    between atoms: C7_10  and  N1_11 
REMARK    5  A    between atoms: N1_11  and  O2_13 
ROOT
HETATM    1  C2  UNL     1       0.616  28.852   8.429  1.00  0.00     0.040 A 
HETATM    2  C3  UNL     1      -0.079  29.516   9.448  1.00  0.00     0.022 A 
HETATM    3  C4  UNL     1      -0.135  30.873   9.573  1.00  0.00     0.002 A 
HETATM    4  C5  UNL     1       0.524  31.660   8.654  1.00  0.00     0.002 A 
HETATM    5  C6  UNL     1       1.223  31.065   7.632  1.00  0.00     0.033 A 
HETATM    6  C7  UNL     1       1.260  29.669   7.532  1.00  0.00     0.071 A 
ENDROOT
BRANCH   1   7
HETATM    7  S2  UNL     1       0.601  27.127   8.487  1.00  0.00    -0.046 SA
BRANCH   7   8
HETATM    8  S1  UNL     1       2.230  26.706   9.747  1.00  0.00     0.015 SA
BRANCH   8   9
HETATM    9  C1  UNL     1       3.167  25.589   8.836  1.00  0.00     0.356 C 
HETATM   10  O1  UNL     1       3.146  24.314   8.926  1.00  0.00    -0.253 OA
HETATM   11  N2  UNL     1       4.069  26.111   7.872  1.00  0.00    -0.065 N 
HETATM   12  O3  UNL     1       4.161  27.330   7.705  1.00  0.00    -0.529 OA
HETATM   13  O4  UNL     1       4.833  25.276   7.125  1.00  0.00    -0.529 OA
ENDBRANCH   8   9
ENDBRANCH   7   8
ENDBRANCH   1   7
BRANCH   6  14
HETATM   14  N1  UNL     1       2.008  29.073   6.488  1.00  0.00    -0.268 N 
ATOM     15  H1  UNL     1       1.658  28.215   6.062  1.00  0.00     0.194 HD
BRANCH  14  16
HETATM   16  O2  UNL     1       3.171  29.599   6.033  1.00  0.00    -0.289 OA
ATOM     17  H2  UNL     1       3.390  29.633   5.109  1.00  0.00     0.244 HD
ENDBRANCH  14  16
ENDBRANCH   6  14
TORSDOF 5
ENDMDL
