MODEL 1
REMARK VINA RESULT: -7.699407267      0.000      0.000
REMARK  5 active torsions:
REMARK  status: ('A' for Active; 'I' for Inactive)
REMARK    1  A    between atoms: N3_6  and  N4_8 
REMARK    2  A    between atoms: N4_8  and  C4_10 
REMARK    3  A    between atoms: C7_13  and  N5_14 
REMARK    4  A    between atoms: N5_14  and  O1_15 
REMARK    5  A    between atoms: N5_14  and  O2_17 
ROOT
HETATM    1  N1  UNL     1       3.507  22.652  11.500  1.00  0.00    -0.189 NA
HETATM    2  C1  UNL     1       2.632  23.332  11.169  1.00  0.00     0.130 C 
HETATM    3  C2  UNL     1       1.546  24.203  10.764  1.00  0.00     0.209 C 
HETATM    4  C3  UNL     1       0.354  23.633  10.236  1.00  0.00     0.130 C 
HETATM    5  N2  UNL     1      -0.628  23.175   9.784  1.00  0.00    -0.189 NA
HETATM    6  N3  UNL     1       1.687  25.477  10.892  1.00  0.00    -0.282 N 
ATOM      7  H3  UNL     1       2.549  25.866  11.272  1.00  0.00     0.188 HD
ENDROOT
BRANCH   6   8
HETATM    8  N4  UNL     1       0.654  26.306  10.506  1.00  0.00    -0.299 N 
ATOM      9  H4  UNL     1      -0.277  26.148  10.891  1.00  0.00     0.187 HD
BRANCH   8  10
HETATM   10  C4  UNL     1       0.847  27.380   9.583  1.00  0.00     0.049 A 
HETATM   11  C5  UNL     1       1.713  27.256   8.539  1.00  0.00     0.033 A 
HETATM   12  C6  UNL     1       1.904  28.274   7.655  1.00  0.00     0.032 A 
HETATM   13  C7  UNL     1       1.194  29.464   7.829  1.00  0.00     0.083 A 
HETATM   14  C8  UNL     1       0.309  29.616   8.881  1.00  0.00     0.040 A 
HETATM   15  S1  UNL     1      -0.615  31.150   9.118  1.00  0.00    -0.051 SA
HETATM   16  C9  UNL     1       0.149  28.557   9.751  1.00  0.00     0.052 A 
BRANCH  13  17
HETATM   17  N5  UNL     1       1.371  30.541   6.926  1.00  0.00    -0.035 NA
BRANCH  17  18
HETATM   18  O1  UNL     1       2.354  30.281   6.066  1.00  0.00    -0.284 OA
ATOM     19  H1  UNL     1       2.509  31.025   5.496  1.00  0.00     0.240 HD
ENDBRANCH  17  18
BRANCH  17  20
HETATM   20  O2  UNL     1       1.678  31.698   7.567  1.00  0.00    -0.284 OA
ATOM     21  H2  UNL     1       2.616  31.840   7.616  1.00  0.00     0.240 HD
ENDBRANCH  17  20
ENDBRANCH  13  17
ENDBRANCH   8  10
ENDBRANCH   6   8
TORSDOF 5
ENDMDL
MODEL 2
REMARK VINA RESULT: -7.641905979      2.002      2.559
REMARK  5 active torsions:
REMARK  status: ('A' for Active; 'I' for Inactive)
REMARK    1  A    between atoms: N3_6  and  N4_8 
REMARK    2  A    between atoms: N4_8  and  C4_10 
REMARK    3  A    between atoms: C7_13  and  N5_14 
REMARK    4  A    between atoms: N5_14  and  O1_15 
REMARK    5  A    between atoms: N5_14  and  O2_17 
ROOT
HETATM    1  N1  UNL     1      -0.985  24.385  14.084  1.00  0.00    -0.189 NA
HETATM    2  C1  UNL     1      -0.615  24.569  13.004  1.00  0.00     0.130 C 
HETATM    3  C2  UNL     1      -0.143  24.822  11.657  1.00  0.00     0.209 C 
HETATM    4  C3  UNL     1      -0.415  23.872  10.633  1.00  0.00     0.130 C 
HETATM    5  N2  UNL     1      -0.619  23.089   9.782  1.00  0.00    -0.189 NA
HETATM    6  N3  UNL     1       0.514  25.904  11.418  1.00  0.00    -0.282 N 
ATOM      7  H3  UNL     1       0.699  26.572  12.166  1.00  0.00     0.188 HD
ENDROOT
BRANCH   6   8
HETATM    8  N4  UNL     1       0.963  26.145  10.136  1.00  0.00    -0.299 N 
ATOM      9  H4  UNL     1       1.388  25.382   9.610  1.00  0.00     0.187 HD
BRANCH   8  10
HETATM   10  C4  UNL     1       0.853  27.431   9.522  1.00  0.00     0.049 A 
HETATM   11  C5  UNL     1       0.068  28.400  10.069  1.00  0.00     0.033 A 
HETATM   12  C6  UNL     1      -0.044  29.629   9.492  1.00  0.00     0.032 A 
HETATM   13  C7  UNL     1       0.664  29.891   8.317  1.00  0.00     0.083 A 
HETATM   14  C8  UNL     1       1.468  28.924   7.740  1.00  0.00     0.040 A 
HETATM   15  S1  UNL     1       2.387  29.250   6.220  1.00  0.00    -0.051 SA
HETATM   16  C9  UNL     1       1.549  27.694   8.363  1.00  0.00     0.052 A 
BRANCH  13  17
HETATM   17  N5  UNL     1       0.568  31.158   7.692  1.00  0.00    -0.035 NA
BRANCH  17  18
HETATM   18  O1  UNL     1       1.581  31.943   8.055  1.00  0.00    -0.284 OA
ATOM     19  H1  UNL     1       1.913  32.432   7.311  1.00  0.00     0.240 HD
ENDBRANCH  17  18
BRANCH  17  20
HETATM   20  O2  UNL     1      -0.585  31.798   8.013  1.00  0.00    -0.284 OA
ATOM     21  H2  UNL     1      -0.880  32.372   7.316  1.00  0.00     0.240 HD
ENDBRANCH  17  20
ENDBRANCH  13  17
ENDBRANCH   8  10
ENDBRANCH   6   8
TORSDOF 5
ENDMDL
MODEL 3
REMARK VINA RESULT: -7.573658323      1.883      2.418
REMARK  5 active torsions:
REMARK  status: ('A' for Active; 'I' for Inactive)
REMARK    1  A    between atoms: N3_6  and  N4_8 
REMARK    2  A    between atoms: N4_8  and  C4_10 
REMARK    3  A    between atoms: C7_13  and  N5_14 
REMARK    4  A    between atoms: N5_14  and  O1_15 
REMARK    5  A    between atoms: N5_14  and  O2_17 
ROOT
HETATM    1  N1  UNL     1      -2.186  25.698  14.412  1.00  0.00    -0.189 NA
HETATM    2  C1  UNL     1      -1.479  25.576  13.505  1.00  0.00     0.130 C 
HETATM    3  C2  UNL     1      -0.595  25.447  12.363  1.00  0.00     0.209 C 
HETATM    4  C3  UNL     1      -0.167  24.153  11.954  1.00  0.00     0.130 C 
HETATM    5  N2  UNL     1       0.204  23.092  11.616  1.00  0.00    -0.189 NA
HETATM    6  N3  UNL     1      -0.216  26.511  11.743  1.00  0.00    -0.282 N 
ATOM      7  H3  UNL     1      -0.533  27.430  12.052  1.00  0.00     0.188 HD
ENDROOT
BRANCH   6   8
HETATM    8  N4  UNL     1       0.626  26.389  10.657  1.00  0.00    -0.299 N 
ATOM      9  H4  UNL     1       1.134  25.515  10.521  1.00  0.00     0.187 HD
BRANCH   8  10
HETATM   10  C4  UNL     1       0.808  27.448   9.715  1.00  0.00     0.049 A 
HETATM   11  C5  UNL     1       1.645  27.299   8.651  1.00  0.00     0.033 A 
HETATM   12  C6  UNL     1       1.825  28.303   7.748  1.00  0.00     0.032 A 
HETATM   13  C7  UNL     1       1.133  29.504   7.923  1.00  0.00     0.083 A 
HETATM   14  C8  UNL     1       0.278  29.680   8.996  1.00  0.00     0.040 A 
HETATM   15  S1  UNL     1      -0.622  31.228   9.235  1.00  0.00    -0.051 SA
HETATM   16  C9  UNL     1       0.128  28.634   9.884  1.00  0.00     0.052 A 
BRANCH  13  17
HETATM   17  N5  UNL     1       1.300  30.566   7.002  1.00  0.00    -0.035 NA
BRANCH  17  18
HETATM   18  O1  UNL     1       2.252  30.280   6.116  1.00  0.00    -0.284 OA
ATOM     19  H1  UNL     1       2.869  30.998   6.040  1.00  0.00     0.240 HD
ENDBRANCH  17  18
BRANCH  17  20
HETATM   20  O2  UNL     1       1.644  31.725   7.618  1.00  0.00    -0.284 OA
ATOM     21  H2  UNL     1       2.572  31.910   7.536  1.00  0.00     0.240 HD
ENDBRANCH  17  20
ENDBRANCH  13  17
ENDBRANCH   8  10
ENDBRANCH   6   8
TORSDOF 5
ENDMDL
MODEL 4
REMARK VINA RESULT: -7.433983623      1.242      1.525
REMARK  5 active torsions:
REMARK  status: ('A' for Active; 'I' for Inactive)
REMARK    1  A    between atoms: N3_6  and  N4_8 
REMARK    2  A    between atoms: N4_8  and  C4_10 
REMARK    3  A    between atoms: C7_13  and  N5_14 
REMARK    4  A    between atoms: N5_14  and  O1_15 
REMARK    5  A    between atoms: N5_14  and  O2_17 
ROOT
HETATM    1  N1  UNL     1       0.828  21.593  10.189  1.00  0.00    -0.189 NA
HETATM    2  C1  UNL     1       0.560  22.686  10.456  1.00  0.00     0.130 C 
HETATM    3  C2  UNL     1       0.232  24.063  10.769  1.00  0.00     0.209 C 
HETATM    4  C3  UNL     1      -0.208  24.395  12.081  1.00  0.00     0.130 C 
HETATM    5  N2  UNL     1      -0.586  24.679  13.155  1.00  0.00    -0.189 NA
HETATM    6  N3  UNL     1       0.347  24.957   9.849  1.00  0.00    -0.282 N 
ATOM      7  H3  UNL     1       0.664  24.700   8.914  1.00  0.00     0.188 HD
ENDROOT
BRANCH   6   8
HETATM    8  N4  UNL     1       0.035  26.268  10.146  1.00  0.00    -0.299 N 
ATOM      9  H4  UNL     1      -0.480  26.471  11.002  1.00  0.00     0.187 HD
BRANCH   8  10
HETATM   10  C4  UNL     1       0.410  27.350   9.292  1.00  0.00     0.049 A 
HETATM   11  C5  UNL     1       1.314  27.167   8.290  1.00  0.00     0.033 A 
HETATM   12  C6  UNL     1       1.679  28.192   7.471  1.00  0.00     0.032 A 
HETATM   13  C7  UNL     1       1.109  29.452   7.668  1.00  0.00     0.083 A 
HETATM   14  C8  UNL     1       0.189  29.665   8.679  1.00  0.00     0.040 A 
HETATM   15  S1  UNL     1      -0.555  31.289   8.946  1.00  0.00    -0.051 SA
HETATM   16  C9  UNL     1      -0.149  28.595   9.483  1.00  0.00     0.052 A 
BRANCH  13  17
HETATM   17  N5  UNL     1       1.467  30.538   6.834  1.00  0.00    -0.035 NA
BRANCH  17  18
HETATM   18  O1  UNL     1       2.521  30.229   6.081  1.00  0.00    -0.284 OA
ATOM     19  H1  UNL     1       2.246  29.897   5.234  1.00  0.00     0.240 HD
ENDBRANCH  17  18
BRANCH  17  20
HETATM   20  O2  UNL     1       1.782  31.648   7.549  1.00  0.00    -0.284 OA
ATOM     21  H2  UNL     1       1.583  32.446   7.074  1.00  0.00     0.240 HD
ENDBRANCH  17  20
ENDBRANCH  13  17
ENDBRANCH   8  10
ENDBRANCH   6   8
TORSDOF 5
ENDMDL
MODEL 5
REMARK VINA RESULT: -7.375299507      3.907      6.616
REMARK  5 active torsions:
REMARK  status: ('A' for Active; 'I' for Inactive)
REMARK    1  A    between atoms: N3_6  and  N4_8 
REMARK    2  A    between atoms: N4_8  and  C4_10 
REMARK    3  A    between atoms: C7_13  and  N5_14 
REMARK    4  A    between atoms: N5_14  and  O1_15 
REMARK    5  A    between atoms: N5_14  and  O2_17 
ROOT
HETATM    1  N1  UNL     1      -1.669  31.739  10.041  1.00  0.00    -0.189 NA
HETATM    2  C1  UNL     1      -0.994  31.044   9.409  1.00  0.00     0.130 C 
HETATM    3  C2  UNL     1      -0.158  30.154   8.627  1.00  0.00     0.209 C 
HETATM    4  C3  UNL     1       0.870  30.700   7.811  1.00  0.00     0.130 C 
HETATM    5  N2  UNL     1       1.713  31.140   7.121  1.00  0.00    -0.189 NA
HETATM    6  N3  UNL     1      -0.368  28.884   8.691  1.00  0.00    -0.282 N 
ATOM      7  H3  UNL     1      -1.111  28.512   9.282  1.00  0.00     0.188 HD
ENDROOT
BRANCH   6   8
HETATM    8  N4  UNL     1       0.427  28.036   7.947  1.00  0.00    -0.299 N 
ATOM      9  H4  UNL     1       0.587  28.246   6.963  1.00  0.00     0.187 HD
BRANCH   8  10
HETATM   10  C4  UNL     1       1.033  26.873   8.513  1.00  0.00     0.049 A 
HETATM   11  C5  UNL     1       2.388  26.741   8.553  1.00  0.00     0.033 A 
HETATM   12  C6  UNL     1       2.975  25.635   9.091  1.00  0.00     0.032 A 
HETATM   13  C7  UNL     1       2.164  24.622   9.608  1.00  0.00     0.083 A 
HETATM   14  C8  UNL     1       0.785  24.731   9.579  1.00  0.00     0.040 A 
HETATM   15  S1  UNL     1      -0.275  23.429  10.244  1.00  0.00    -0.051 SA
HETATM   16  C9  UNL     1       0.237  25.871   9.025  1.00  0.00     0.052 A 
BRANCH  13  17
HETATM   17  N5  UNL     1       2.744  23.461  10.173  1.00  0.00    -0.035 NA
BRANCH  17  18
HETATM   18  O1  UNL     1       3.209  23.710  11.395  1.00  0.00    -0.284 OA
ATOM     19  H1  UNL     1       4.159  23.732  11.397  1.00  0.00     0.240 HD
ENDBRANCH  17  18
BRANCH  17  20
HETATM   20  O2  UNL     1       3.776  22.992   9.426  1.00  0.00    -0.284 OA
ATOM     21  H2  UNL     1       4.185  22.231   9.821  1.00  0.00     0.240 HD
ENDBRANCH  17  20
ENDBRANCH  13  17
ENDBRANCH   8  10
ENDBRANCH   6   8
TORSDOF 5
ENDMDL
