MODEL 1
REMARK VINA RESULT: -6.696464188      0.000      0.000
REMARK  8 active torsions:
REMARK  status: ('A' for Active; 'I' for Inactive)
REMARK    1  A    between atoms: C2_2  and  C3_3 
REMARK    2  A    between atoms: C3_3  and  O1_5 
REMARK    3  A    between atoms: O1_5  and  C5_6 
REMARK    4  A    between atoms: C5_6  and  C6_8 
REMARK    5  A    between atoms: C6_8  and  C8_11 
REMARK    6  A    between atoms: C8_11  and  S1_12 
REMARK    7  A    between atoms: S1_12  and  C9_13 
REMARK       I    between atoms: C9_13  and  N2_15 
REMARK    8  A    between atoms: N2_15  and  O4_17 
ROOT
HETATM    1  C6  UNL     1      -0.518  26.217  10.619  1.00  0.00     0.202 C 
HETATM    2  C7  UNL     1       0.579  25.307  10.569  1.00  0.00     0.075 C 
HETATM    3  N1  UNL     1       1.496  24.571  10.492  1.00  0.00    -0.196 NA
ENDROOT
BRANCH   1   4
HETATM    4  C5  UNL     1      -0.046  27.638  10.680  1.00  0.00     0.277 C 
HETATM    5  O2  UNL     1      -0.341  28.302  11.703  1.00  0.00    -0.264 OA
BRANCH   4   6
HETATM    6  O1  UNL     1       0.680  28.253   9.705  1.00  0.00    -0.315 OA
BRANCH   6   7
HETATM    7  C3  UNL     1       0.182  29.001   8.643  1.00  0.00     0.127 C 
HETATM    8  C4  UNL     1       0.830  28.671   7.317  1.00  0.00     0.040 C 
BRANCH   7   9
HETATM    9  C2  UNL     1       0.404  30.486   8.900  1.00  0.00     0.027 C 
HETATM   10  C1  UNL     1      -0.896  31.214   9.157  1.00  0.00     0.007 C 
ENDBRANCH   7   9
ENDBRANCH   6   7
ENDBRANCH   4   6
ENDBRANCH   1   4
BRANCH   1  11
HETATM   11  C8  UNL     1      -1.548  25.928  11.636  1.00  0.00     0.113 C 
BRANCH  11  12
HETATM   12  S1  UNL     1      -0.992  25.042  13.063  1.00  0.00    -0.066 SA
BRANCH  12  13
HETATM   13  C9  UNL     1      -1.954  25.186  14.520  1.00  0.00     0.303 C 
HETATM   14  O3  UNL     1      -2.292  24.064  15.071  1.00  0.00    -0.258 OA
HETATM   15  N2  UNL     1      -2.371  26.402  15.112  1.00  0.00    -0.228 N 
ATOM     16  H2  UNL     1      -2.116  27.299  14.700  1.00  0.00     0.198 HD
BRANCH  15  17
HETATM   17  O4  UNL     1      -3.118  26.341  16.237  1.00  0.00    -0.286 OA
ATOM     18  H4  UNL     1      -3.543  27.136  16.536  1.00  0.00     0.244 HD
ENDBRANCH  15  17
ENDBRANCH  12  13
ENDBRANCH  11  12
ENDBRANCH   1  11
TORSDOF 8
ENDMDL
MODEL 2
REMARK VINA RESULT: -6.590588518      0.829      1.501
REMARK  8 active torsions:
REMARK  status: ('A' for Active; 'I' for Inactive)
REMARK    1  A    between atoms: C2_2  and  C3_3 
REMARK    2  A    between atoms: C3_3  and  O1_5 
REMARK    3  A    between atoms: O1_5  and  C5_6 
REMARK    4  A    between atoms: C5_6  and  C6_8 
REMARK    5  A    between atoms: C6_8  and  C8_11 
REMARK    6  A    between atoms: C8_11  and  S1_12 
REMARK    7  A    between atoms: S1_12  and  C9_13 
REMARK       I    between atoms: C9_13  and  N2_15 
REMARK    8  A    between atoms: N2_15  and  O4_17 
ROOT
HETATM    1  C6  UNL     1      -0.405  25.924  10.439  1.00  0.00     0.202 C 
HETATM    2  C7  UNL     1       0.874  25.294  10.492  1.00  0.00     0.075 C 
HETATM    3  N1  UNL     1       1.938  24.788  10.496  1.00  0.00    -0.196 NA
ENDROOT
BRANCH   1   4
HETATM    4  C5  UNL     1      -0.276  27.411  10.308  1.00  0.00     0.277 C 
HETATM    5  O2  UNL     1      -0.197  28.081  11.366  1.00  0.00    -0.264 OA
BRANCH   4   6
HETATM    6  O1  UNL     1      -0.236  28.080   9.122  1.00  0.00    -0.315 OA
BRANCH   6   7
HETATM    7  C3  UNL     1       0.756  28.954   8.691  1.00  0.00     0.127 C 
HETATM    8  C4  UNL     1       0.321  30.402   8.680  1.00  0.00     0.040 C 
BRANCH   7   9
HETATM    9  C2  UNL     1       1.189  28.598   7.275  1.00  0.00     0.027 C 
HETATM   10  C1  UNL     1       1.801  29.781   6.559  1.00  0.00     0.007 C 
ENDBRANCH   7   9
ENDBRANCH   6   7
ENDBRANCH   4   6
ENDBRANCH   1   4
BRANCH   1  11
HETATM   11  C8  UNL     1      -1.355  25.540  11.502  1.00  0.00     0.113 C 
BRANCH  11  12
HETATM   12  S1  UNL     1      -0.641  24.794  12.939  1.00  0.00    -0.066 SA
BRANCH  12  13
HETATM   13  C9  UNL     1      -1.294  25.266  14.495  1.00  0.00     0.303 C 
HETATM   14  O3  UNL     1      -0.539  25.005  15.513  1.00  0.00    -0.258 OA
HETATM   15  N2  UNL     1      -2.547  25.890  14.704  1.00  0.00    -0.228 N 
ATOM     16  H2  UNL     1      -3.160  26.110  13.919  1.00  0.00     0.198 HD
BRANCH  15  17
HETATM   17  O4  UNL     1      -2.909  26.186  15.972  1.00  0.00    -0.286 OA
ATOM     18  H4  UNL     1      -3.738  26.629  16.110  1.00  0.00     0.244 HD
ENDBRANCH  15  17
ENDBRANCH  12  13
ENDBRANCH  11  12
ENDBRANCH   1  11
TORSDOF 8
ENDMDL
MODEL 3
REMARK VINA RESULT: -6.478560676      2.239      2.941
REMARK  8 active torsions:
REMARK  status: ('A' for Active; 'I' for Inactive)
REMARK    1  A    between atoms: C2_2  and  C3_3 
REMARK    2  A    between atoms: C3_3  and  O1_5 
REMARK    3  A    between atoms: O1_5  and  C5_6 
REMARK    4  A    between atoms: C5_6  and  C6_8 
REMARK    5  A    between atoms: C6_8  and  C8_11 
REMARK    6  A    between atoms: C8_11  and  S1_12 
REMARK    7  A    between atoms: S1_12  and  C9_13 
REMARK       I    between atoms: C9_13  and  N2_15 
REMARK    8  A    between atoms: N2_15  and  O4_17 
ROOT
HETATM    1  C6  UNL     1      -1.251  25.402  12.413  1.00  0.00     0.202 C 
HETATM    2  C7  UNL     1      -0.265  24.393  12.203  1.00  0.00     0.075 C 
HETATM    3  N1  UNL     1       0.546  23.566  11.988  1.00  0.00    -0.196 NA
ENDROOT
BRANCH   1   4
HETATM    4  C5  UNL     1      -0.758  26.747  11.971  1.00  0.00     0.277 C 
HETATM    5  O2  UNL     1      -1.135  27.746  12.629  1.00  0.00    -0.264 OA
BRANCH   4   6
HETATM    6  O1  UNL     1       0.071  26.954  10.910  1.00  0.00    -0.315 OA
BRANCH   6   7
HETATM    7  C3  UNL     1      -0.284  26.956   9.565  1.00  0.00     0.127 C 
HETATM    8  C4  UNL     1       0.436  25.905   8.750  1.00  0.00     0.040 C 
BRANCH   7   9
HETATM    9  C2  UNL     1       0.032  28.310   8.942  1.00  0.00     0.027 C 
HETATM   10  C1  UNL     1       0.676  28.167   7.581  1.00  0.00     0.007 C 
ENDBRANCH   7   9
ENDBRANCH   6   7
ENDBRANCH   4   6
ENDBRANCH   1   4
BRANCH   1  11
HETATM   11  C8  UNL     1      -1.851  25.445  13.761  1.00  0.00     0.113 C 
BRANCH  11  12
HETATM   12  S1  UNL     1      -1.077  24.423  14.979  1.00  0.00    -0.066 SA
BRANCH  12  13
HETATM   13  C9  UNL     1      -1.602  22.753  15.076  1.00  0.00     0.303 C 
HETATM   14  O3  UNL     1      -2.567  22.525  15.907  1.00  0.00    -0.258 OA
HETATM   15  N2  UNL     1      -1.058  21.679  14.333  1.00  0.00    -0.228 N 
ATOM     16  H2  UNL     1      -0.300  21.832  13.668  1.00  0.00     0.198 HD
BRANCH  15  17
HETATM   17  O4  UNL     1      -1.572  20.443  14.527  1.00  0.00    -0.286 OA
ATOM     18  H4  UNL     1      -1.552  20.083  15.405  1.00  0.00     0.244 HD
ENDBRANCH  15  17
ENDBRANCH  12  13
ENDBRANCH  11  12
ENDBRANCH   1  11
TORSDOF 8
ENDMDL
MODEL 4
REMARK VINA RESULT: -6.437396477      1.374      1.619
REMARK  8 active torsions:
REMARK  status: ('A' for Active; 'I' for Inactive)
REMARK    1  A    between atoms: C2_2  and  C3_3 
REMARK    2  A    between atoms: C3_3  and  O1_5 
REMARK    3  A    between atoms: O1_5  and  C5_6 
REMARK    4  A    between atoms: C5_6  and  C6_8 
REMARK    5  A    between atoms: C6_8  and  C8_11 
REMARK    6  A    between atoms: C8_11  and  S1_12 
REMARK    7  A    between atoms: S1_12  and  C9_13 
REMARK       I    between atoms: C9_13  and  N2_15 
REMARK    8  A    between atoms: N2_15  and  O4_17 
ROOT
HETATM    1  C6  UNL     1      -0.241  25.537  10.364  1.00  0.00     0.202 C 
HETATM    2  C7  UNL     1      -0.285  24.133  10.115  1.00  0.00     0.075 C 
HETATM    3  N1  UNL     1      -0.313  22.981   9.870  1.00  0.00    -0.196 NA
ENDROOT
BRANCH   1   4
HETATM    4  C5  UNL     1       1.123  26.097  10.095  1.00  0.00     0.277 C 
HETATM    5  O2  UNL     1       2.109  25.361  10.342  1.00  0.00    -0.264 OA
BRANCH   4   6
HETATM    6  O1  UNL     1       1.361  27.343   9.600  1.00  0.00    -0.315 OA
BRANCH   6   7
HETATM    7  C3  UNL     1       0.529  28.081   8.765  1.00  0.00     0.127 C 
HETATM    8  C4  UNL     1       1.199  28.525   7.484  1.00  0.00     0.040 C 
BRANCH   7   9
HETATM    9  C2  UNL     1       0.046  29.335   9.483  1.00  0.00     0.027 C 
HETATM   10  C1  UNL     1       0.368  30.590   8.704  1.00  0.00     0.007 C 
ENDBRANCH   7   9
ENDBRANCH   6   7
ENDBRANCH   4   6
ENDBRANCH   1   4
BRANCH   1  11
HETATM   11  C8  UNL     1      -0.776  25.976  11.668  1.00  0.00     0.113 C 
BRANCH  11  12
HETATM   12  S1  UNL     1      -0.706  24.780  12.969  1.00  0.00    -0.066 SA
BRANCH  12  13
HETATM   13  C9  UNL     1      -1.325  25.264  14.536  1.00  0.00     0.303 C 
HETATM   14  O3  UNL     1      -0.555  24.993  15.541  1.00  0.00    -0.258 OA
HETATM   15  N2  UNL     1      -2.565  25.905  14.765  1.00  0.00    -0.228 N 
ATOM     16  H2  UNL     1      -3.188  26.133  13.991  1.00  0.00     0.198 HD
BRANCH  15  17
HETATM   17  O4  UNL     1      -2.901  26.208  16.039  1.00  0.00    -0.286 OA
ATOM     18  H4  UNL     1      -3.544  26.892  16.183  1.00  0.00     0.244 HD
ENDBRANCH  15  17
ENDBRANCH  12  13
ENDBRANCH  11  12
ENDBRANCH   1  11
TORSDOF 8
ENDMDL
MODEL 5
REMARK VINA RESULT: -6.436577992      1.681      2.290
REMARK  8 active torsions:
REMARK  status: ('A' for Active; 'I' for Inactive)
REMARK    1  A    between atoms: C2_2  and  C3_3 
REMARK    2  A    between atoms: C3_3  and  O1_5 
REMARK    3  A    between atoms: O1_5  and  C5_6 
REMARK    4  A    between atoms: C5_6  and  C6_8 
REMARK    5  A    between atoms: C6_8  and  C8_11 
REMARK    6  A    between atoms: C8_11  and  S1_12 
REMARK    7  A    between atoms: S1_12  and  C9_13 
REMARK       I    between atoms: C9_13  and  N2_15 
REMARK    8  A    between atoms: N2_15  and  O4_17 
ROOT
HETATM    1  C6  UNL     1      -0.106  25.906  11.159  1.00  0.00     0.202 C 
HETATM    2  C7  UNL     1      -0.542  27.074  11.851  1.00  0.00     0.075 C 
HETATM    3  N1  UNL     1      -0.869  28.058  12.409  1.00  0.00    -0.196 NA
ENDROOT
BRANCH   1   4
HETATM    4  C5  UNL     1      -0.080  26.128   9.677  1.00  0.00     0.277 C 
HETATM    5  O2  UNL     1       0.110  25.126   8.944  1.00  0.00    -0.264 OA
BRANCH   4   6
HETATM    6  O1  UNL     1      -0.250  27.338   9.075  1.00  0.00    -0.315 OA
BRANCH   6   7
HETATM    7  C3  UNL     1       0.728  28.302   8.853  1.00  0.00     0.127 C 
HETATM    8  C4  UNL     1       0.227  29.719   9.024  1.00  0.00     0.040 C 
BRANCH   7   9
HETATM    9  C2  UNL     1       1.271  28.181   7.435  1.00  0.00     0.027 C 
HETATM   10  C1  UNL     1       1.572  29.533   6.829  1.00  0.00     0.007 C 
ENDBRANCH   7   9
ENDBRANCH   6   7
ENDBRANCH   4   6
ENDBRANCH   1   4
BRANCH   1  11
HETATM   11  C8  UNL     1      -0.791  24.649  11.521  1.00  0.00     0.113 C 
BRANCH  11  12
HETATM   12  S1  UNL     1      -0.532  24.082  13.176  1.00  0.00    -0.066 SA
BRANCH  12  13
HETATM   13  C9  UNL     1      -1.668  24.625  14.396  1.00  0.00     0.303 C 
HETATM   14  O3  UNL     1      -2.208  23.687  15.104  1.00  0.00    -0.258 OA
HETATM   15  N2  UNL     1      -2.021  25.973  14.646  1.00  0.00    -0.228 N 
ATOM     16  H2  UNL     1      -1.607  26.732  14.104  1.00  0.00     0.198 HD
BRANCH  15  17
HETATM   17  O4  UNL     1      -2.920  26.227  15.622  1.00  0.00    -0.286 OA
ATOM     18  H4  UNL     1      -2.739  25.900  16.495  1.00  0.00     0.244 HD
ENDBRANCH  15  17
ENDBRANCH  12  13
ENDBRANCH  11  12
ENDBRANCH   1  11
TORSDOF 8
ENDMDL
