MODEL 1
REMARK VINA RESULT: -5.302421768      0.000      0.000
REMARK  4 active torsions:
REMARK  status: ('A' for Active; 'I' for Inactive)
REMARK    1  A    between atoms: C2_2  and  S1_3 
REMARK    2  A    between atoms: S1_3  and  C3_4 
REMARK    3  A    between atoms: C4_7  and  C5_8 
REMARK    4  A    between atoms: C5_8  and  C7_11 
ROOT
HETATM    1  C5  UNL     1       0.388  28.068   8.755  1.00  0.00     0.136 C 
HETATM    2  C6  UNL     1       0.160  29.451   9.180  1.00  0.00     0.067 C 
HETATM    3  N2  UNL     1      -0.038  30.542   9.501  1.00  0.00    -0.197 NA
ENDROOT
BRANCH   1   4
HETATM    4  C4  UNL     1       0.389  27.215   9.981  1.00  0.00     0.170 C 
HETATM    5  N1  UNL     1      -0.897  26.712  10.237  1.00  0.00    -0.385 N 
HETATM    6  C3  UNL     1      -1.006  25.803  11.297  1.00  0.00     0.214 C 
ATOM      7  H1  UNL     1      -1.706  26.992   9.683  1.00  0.00     0.156 HD
HETATM    8  S4  UNL     1       0.347  24.564  11.171  1.00  0.00    -0.059 SA
HETATM    9  S3  UNL     1       1.487  25.749   9.760  1.00  0.00    -0.068 SA
BRANCH   6  10
HETATM   10  S1  UNL     1      -1.245  26.418  12.936  1.00  0.00    -0.133 SA
BRANCH  10  11
HETATM   11  C2  UNL     1      -1.935  25.292  14.129  1.00  0.00     0.072 C 
HETATM   12  C1  UNL     1      -0.828  24.892  15.104  1.00  0.00     0.016 C 
ENDBRANCH  10  11
ENDBRANCH   6  10
ENDBRANCH   1   4
BRANCH   1  13
HETATM   13  C7  UNL     1       1.616  27.936   7.909  1.00  0.00     0.108 C 
HETATM   14  S2  UNL     1       1.755  29.240   6.663  1.00  0.00    -0.096 SA
ENDBRANCH   1  13
TORSDOF 4
ENDMDL
MODEL 2
REMARK VINA RESULT: -5.204987638      3.119      5.353
REMARK  4 active torsions:
REMARK  status: ('A' for Active; 'I' for Inactive)
REMARK    1  A    between atoms: C2_2  and  S1_3 
REMARK    2  A    between atoms: S1_3  and  C3_4 
REMARK    3  A    between atoms: C4_7  and  C5_8 
REMARK    4  A    between atoms: C5_8  and  C7_11 
ROOT
HETATM    1  C5  UNL     1       0.050  28.235   8.864  1.00  0.00     0.136 C 
HETATM    2  C6  UNL     1      -0.072  28.249  10.324  1.00  0.00     0.067 C 
HETATM    3  N2  UNL     1      -0.190  28.257  11.471  1.00  0.00    -0.197 NA
ENDROOT
BRANCH   1   4
HETATM    4  C4  UNL     1       1.014  27.152   8.504  1.00  0.00     0.170 C 
HETATM    5  N1  UNL     1       2.235  27.330   9.177  1.00  0.00    -0.385 N 
HETATM    6  C3  UNL     1       3.185  26.314   9.012  1.00  0.00     0.214 C 
ATOM      7  H1  UNL     1       2.419  28.151   9.751  1.00  0.00     0.156 HD
HETATM    8  S4  UNL     1       2.366  24.681   9.223  1.00  0.00    -0.059 SA
HETATM    9  S3  UNL     1       0.371  25.502   9.022  1.00  0.00    -0.068 SA
BRANCH   6  10
HETATM   10  S1  UNL     1       4.280  26.377   7.627  1.00  0.00    -0.133 SA
BRANCH  10  11
HETATM   11  C2  UNL     1       3.925  27.587   6.371  1.00  0.00     0.072 C 
HETATM   12  C1  UNL     1       5.032  27.523   5.320  1.00  0.00     0.016 C 
ENDBRANCH  10  11
ENDBRANCH   6  10
ENDBRANCH   1   4
BRANCH   1  13
HETATM   13  C7  UNL     1       0.403  29.583   8.316  1.00  0.00     0.108 C 
HETATM   14  S2  UNL     1      -0.538  30.922   9.088  1.00  0.00    -0.096 SA
ENDBRANCH   1  13
TORSDOF 4
ENDMDL
MODEL 3
REMARK VINA RESULT: -5.202022369      1.906      5.583
REMARK  4 active torsions:
REMARK  status: ('A' for Active; 'I' for Inactive)
REMARK    1  A    between atoms: C2_2  and  S1_3 
REMARK    2  A    between atoms: S1_3  and  C3_4 
REMARK    3  A    between atoms: C4_7  and  C5_8 
REMARK    4  A    between atoms: C5_8  and  C7_11 
ROOT
HETATM    1  C5  UNL     1      -0.930  25.858  12.415  1.00  0.00     0.136 C 
HETATM    2  C6  UNL     1      -2.370  26.010  12.193  1.00  0.00     0.067 C 
HETATM    3  N2  UNL     1      -3.504  26.146  12.033  1.00  0.00    -0.197 NA
ENDROOT
BRANCH   1   4
HETATM    4  C4  UNL     1      -0.257  25.967  11.085  1.00  0.00     0.170 C 
HETATM    5  N1  UNL     1       0.506  27.144  11.009  1.00  0.00    -0.385 N 
HETATM    6  C3  UNL     1       1.279  27.306   9.853  1.00  0.00     0.214 C 
ATOM      7  H1  UNL     1       0.497  27.841  11.753  1.00  0.00     0.156 HD
HETATM    8  S4  UNL     1       2.163  25.735   9.492  1.00  0.00    -0.059 SA
HETATM    9  S3  UNL     1       0.919  24.569  10.828  1.00  0.00    -0.068 SA
BRANCH   6  10
HETATM   10  S1  UNL     1       0.545  28.043   8.424  1.00  0.00    -0.133 SA
BRANCH  10  11
HETATM   11  C2  UNL     1       0.758  29.799   8.223  1.00  0.00     0.072 C 
HETATM   12  C1  UNL     1      -0.073  30.507   9.293  1.00  0.00     0.016 C 
ENDBRANCH  10  11
ENDBRANCH   6  10
ENDBRANCH   1   4
BRANCH   1  13
HETATM   13  C7  UNL     1      -0.606  24.608  13.171  1.00  0.00     0.108 C 
HETATM   14  S2  UNL     1      -0.969  24.742  14.938  1.00  0.00    -0.096 SA
ENDBRANCH   1  13
TORSDOF 4
ENDMDL
MODEL 4
REMARK VINA RESULT: -5.148007855      1.797      2.127
REMARK  4 active torsions:
REMARK  status: ('A' for Active; 'I' for Inactive)
REMARK    1  A    between atoms: C2_2  and  S1_3 
REMARK    2  A    between atoms: S1_3  and  C3_4 
REMARK    3  A    between atoms: C4_7  and  C5_8 
REMARK    4  A    between atoms: C5_8  and  C7_11 
ROOT
HETATM    1  C5  UNL     1       0.643  27.788   8.271  1.00  0.00     0.136 C 
HETATM    2  C6  UNL     1       0.198  28.897   9.119  1.00  0.00     0.067 C 
HETATM    3  N2  UNL     1      -0.170  29.773   9.774  1.00  0.00    -0.197 NA
ENDROOT
BRANCH   1   4
HETATM    4  C4  UNL     1       0.882  26.612   9.160  1.00  0.00     0.170 C 
HETATM    5  N1  UNL     1       0.342  25.444   8.595  1.00  0.00    -0.385 N 
HETATM    6  C3  UNL     1       0.601  24.250   9.279  1.00  0.00     0.214 C 
ATOM      7  H1  UNL     1      -0.207  25.465   7.736  1.00  0.00     0.156 HD
HETATM    8  S4  UNL     1       2.381  24.189   9.735  1.00  0.00    -0.059 SA
HETATM    9  S3  UNL     1       2.689  26.302   9.367  1.00  0.00    -0.068 SA
BRANCH   6  10
HETATM   10  S1  UNL     1      -0.478  23.757  10.589  1.00  0.00    -0.133 SA
BRANCH  10  11
HETATM   11  C2  UNL     1      -0.539  24.809  12.023  1.00  0.00     0.072 C 
HETATM   12  C1  UNL     1      -1.612  25.872  11.791  1.00  0.00     0.016 C 
ENDBRANCH  10  11
ENDBRANCH   6  10
ENDBRANCH   1   4
BRANCH   1  13
HETATM   13  C7  UNL     1       1.813  28.166   7.418  1.00  0.00     0.108 C 
HETATM   14  S2  UNL     1       1.606  29.774   6.615  1.00  0.00    -0.096 SA
ENDBRANCH   1  13
TORSDOF 4
ENDMDL
MODEL 5
REMARK VINA RESULT: -5.132393607      3.186      3.844
REMARK  4 active torsions:
REMARK  status: ('A' for Active; 'I' for Inactive)
REMARK    1  A    between atoms: C2_2  and  S1_3 
REMARK    2  A    between atoms: S1_3  and  C3_4 
REMARK    3  A    between atoms: C4_7  and  C5_8 
REMARK    4  A    between atoms: C5_8  and  C7_11 
ROOT
HETATM    1  C5  UNL     1       2.774  28.020   6.562  1.00  0.00     0.136 C 
HETATM    2  C6  UNL     1       2.268  29.391   6.460  1.00  0.00     0.067 C 
HETATM    3  N2  UNL     1       1.859  30.465   6.359  1.00  0.00    -0.197 NA
ENDROOT
BRANCH   1   4
HETATM    4  C4  UNL     1       2.277  27.452   7.851  1.00  0.00     0.170 C 
HETATM    5  N1  UNL     1       1.072  26.755   7.655  1.00  0.00    -0.385 N 
HETATM    6  C3  UNL     1       0.562  26.078   8.769  1.00  0.00     0.214 C 
ATOM      7  H1  UNL     1       0.597  26.744   6.753  1.00  0.00     0.156 HD
HETATM    8  S4  UNL     1       1.922  25.147   9.585  1.00  0.00    -0.059 SA
HETATM    9  S3  UNL     1       3.477  26.232   8.538  1.00  0.00    -0.068 SA
BRANCH   6  10
HETATM   10  S1  UNL     1      -0.473  26.949   9.905  1.00  0.00    -0.133 SA
BRANCH  10  11
HETATM   11  C2  UNL     1       0.158  28.478  10.564  1.00  0.00     0.072 C 
HETATM   12  C1  UNL     1      -0.046  29.570   9.515  1.00  0.00     0.016 C 
ENDBRANCH  10  11
ENDBRANCH   6  10
ENDBRANCH   1   4
BRANCH   1  13
HETATM   13  C7  UNL     1       4.260  27.955   6.391  1.00  0.00     0.108 C 
HETATM   14  S2  UNL     1       4.763  26.889   5.019  1.00  0.00    -0.096 SA
ENDBRANCH   1  13
TORSDOF 4
ENDMDL
