MODEL 1
REMARK VINA RESULT: -6.447642790      0.000      0.000
REMARK  4 active torsions:
REMARK  status: ('A' for Active; 'I' for Inactive)
REMARK    1  A    between atoms: N1_2  and  N2_3 
REMARK       I    between atoms: N1_2  and  C2_6 
REMARK       I    between atoms: C2_6  and  N3_8 
REMARK    2  A    between atoms: N3_8  and  N4_10 
REMARK       I    between atoms: N4_10  and  C3_12 
REMARK    3  A    between atoms: C3_12  and  C4_14 
REMARK    4  A    between atoms: C7_17  and  N5_18 
ROOT
HETATM    1  N4  UNL     1      50.749  36.495   0.357  1.00  0.00    -0.262 N 
ATOM      2  H4  UNL     1      49.853  36.641   0.822  1.00  0.00     0.190 HD
HETATM    3  C3  UNL     1      50.989  35.296  -0.340  1.00  0.00     0.270 C 
HETATM    4  O2  UNL     1      52.135  35.152  -0.914  1.00  0.00    -0.266 OA
ENDROOT
BRANCH   1   5
HETATM    5  N3  UNL     1      51.726  37.478   0.413  1.00  0.00    -0.247 N 
HETATM    6  C2  UNL     1      51.709  38.394   1.500  1.00  0.00     0.354 C 
HETATM    7  N1  UNL     1      52.698  39.407   1.578  1.00  0.00    -0.253 N 
HETATM    8  O1  UNL     1      50.813  38.308   2.402  1.00  0.00    -0.244 OA
HETATM    9  C1  UNL     1      53.690  39.464   0.515  1.00  0.00     0.182 C 
ATOM     10  H3  UNL     1      52.442  37.542  -0.311  1.00  0.00     0.192 HD
BRANCH   7  11
HETATM   11  N2  UNL     1      52.684  40.290   2.637  1.00  0.00    -0.339 N 
ATOM     12  H22 UNL     1      53.220  41.155   2.577  1.00  0.00     0.177 HD
ATOM     13  H21 UNL     1      52.158  40.118   3.494  1.00  0.00     0.177 HD
ENDBRANCH   7  11
ENDBRANCH   1   5
BRANCH   3  14
HETATM   14  C4  UNL     1      50.020  34.208  -0.452  1.00  0.00     0.033 A 
HETATM   15  C5  UNL     1      50.126  33.059   0.306  1.00  0.00     0.019 A 
HETATM   16  C6  UNL     1      49.205  32.021   0.201  1.00  0.00     0.037 A 
HETATM   17  C7  UNL     1      48.149  32.120  -0.679  1.00  0.00     0.102 A 
HETATM   18  C8  UNL     1      48.053  33.270  -1.430  1.00  0.00     0.037 A 
HETATM   19  C9  UNL     1      48.975  34.316  -1.328  1.00  0.00     0.019 A 
BRANCH  17  20
HETATM   20  N5  UNL     1      47.207  31.067  -0.795  1.00  0.00    -0.116 N 
HETATM   21  O3  UNL     1      47.549  29.913  -0.484  1.00  0.00    -0.532 OA
HETATM   22  O4  UNL     1      45.930  31.269  -1.237  1.00  0.00    -0.532 OA
ENDBRANCH  17  20
ENDBRANCH   3  14
TORSDOF 4
ENDMDL
MODEL 2
REMARK VINA RESULT: -6.425955560      0.037      1.111
REMARK  4 active torsions:
REMARK  status: ('A' for Active; 'I' for Inactive)
REMARK    1  A    between atoms: N1_2  and  N2_3 
REMARK       I    between atoms: N1_2  and  C2_6 
REMARK       I    between atoms: C2_6  and  N3_8 
REMARK    2  A    between atoms: N3_8  and  N4_10 
REMARK       I    between atoms: N4_10  and  C3_12 
REMARK    3  A    between atoms: C3_12  and  C4_14 
REMARK    4  A    between atoms: C7_17  and  N5_18 
ROOT
HETATM    1  N4  UNL     1      50.749  36.503   0.333  1.00  0.00    -0.262 N 
ATOM      2  H4  UNL     1      49.843  36.657   0.775  1.00  0.00     0.190 HD
HETATM    3  C3  UNL     1      51.000  35.297  -0.347  1.00  0.00     0.270 C 
HETATM    4  O2  UNL     1      52.159  35.143  -0.893  1.00  0.00    -0.266 OA
ENDROOT
BRANCH   1   5
HETATM    5  N3  UNL     1      51.729  37.482   0.405  1.00  0.00    -0.247 N 
HETATM    6  C2  UNL     1      51.707  38.389   1.499  1.00  0.00     0.354 C 
HETATM    7  N1  UNL     1      52.699  39.399   1.592  1.00  0.00    -0.253 N 
HETATM    8  O1  UNL     1      50.804  38.300   2.392  1.00  0.00    -0.244 OA
HETATM    9  C1  UNL     1      53.699  39.460   0.537  1.00  0.00     0.182 C 
ATOM     10  H3  UNL     1      52.451  37.549  -0.313  1.00  0.00     0.192 HD
BRANCH   7  11
HETATM   11  N2  UNL     1      52.680  40.273   2.657  1.00  0.00    -0.339 N 
ATOM     12  H22 UNL     1      53.222  41.136   2.609  1.00  0.00     0.177 HD
ATOM     13  H21 UNL     1      52.144  40.099   3.508  1.00  0.00     0.177 HD
ENDBRANCH   7  11
ENDBRANCH   1   5
BRANCH   3  14
HETATM   14  C4  UNL     1      50.029  34.212  -0.474  1.00  0.00     0.033 A 
HETATM   15  C5  UNL     1      48.989  34.271  -1.380  1.00  0.00     0.019 A 
HETATM   16  C6  UNL     1      48.062  33.241  -1.503  1.00  0.00     0.037 A 
HETATM   17  C7  UNL     1      48.164  32.120  -0.707  1.00  0.00     0.102 A 
HETATM   18  C8  UNL     1      49.204  32.073   0.193  1.00  0.00     0.037 A 
HETATM   19  C9  UNL     1      50.138  33.104   0.321  1.00  0.00     0.019 A 
BRANCH  17  20
HETATM   20  N5  UNL     1      47.222  31.066  -0.823  1.00  0.00    -0.116 N 
HETATM   21  O3  UNL     1      47.560  29.915  -0.495  1.00  0.00    -0.532 OA
HETATM   22  O4  UNL     1      45.950  31.265  -1.279  1.00  0.00    -0.532 OA
ENDBRANCH  17  20
ENDBRANCH   3  14
TORSDOF 4
ENDMDL
MODEL 3
REMARK VINA RESULT: -5.834900405      1.423      2.100
REMARK  4 active torsions:
REMARK  status: ('A' for Active; 'I' for Inactive)
REMARK    1  A    between atoms: N1_2  and  N2_3 
REMARK       I    between atoms: N1_2  and  C2_6 
REMARK       I    between atoms: C2_6  and  N3_8 
REMARK    2  A    between atoms: N3_8  and  N4_10 
REMARK       I    between atoms: N4_10  and  C3_12 
REMARK    3  A    between atoms: C3_12  and  C4_14 
REMARK    4  A    between atoms: C7_17  and  N5_18 
ROOT
HETATM    1  N4  UNL     1      50.789  36.230   0.428  1.00  0.00    -0.262 N 
ATOM      2  H4  UNL     1      51.133  35.889  -0.469  1.00  0.00     0.190 HD
HETATM    3  C3  UNL     1      49.736  35.559   1.077  1.00  0.00     0.270 C 
HETATM    4  O2  UNL     1      49.334  36.022   2.211  1.00  0.00    -0.266 OA
ENDROOT
BRANCH   1   5
HETATM    5  N3  UNL     1      51.362  37.354   1.007  1.00  0.00    -0.247 N 
HETATM    6  C2  UNL     1      52.391  38.034   0.300  1.00  0.00     0.354 C 
HETATM    7  N1  UNL     1      52.991  39.184   0.872  1.00  0.00    -0.253 N 
HETATM    8  O1  UNL     1      52.775  37.616  -0.840  1.00  0.00    -0.244 OA
HETATM    9  C1  UNL     1      52.520  39.610   2.181  1.00  0.00     0.182 C 
ATOM     10  H3  UNL     1      51.051  37.685   1.920  1.00  0.00     0.192 HD
BRANCH   7  11
HETATM   11  N2  UNL     1      53.984  39.847   0.182  1.00  0.00    -0.339 N 
ATOM     12  H22 UNL     1      54.257  40.786   0.471  1.00  0.00     0.177 HD
ATOM     13  H21 UNL     1      54.468  39.440  -0.619  1.00  0.00     0.177 HD
ENDBRANCH   7  11
ENDBRANCH   1   5
BRANCH   3  14
HETATM   14  C4  UNL     1      49.075  34.369   0.544  1.00  0.00     0.033 A 
HETATM   15  C5  UNL     1      47.851  34.441  -0.088  1.00  0.00     0.019 A 
HETATM   16  C6  UNL     1      47.218  33.310  -0.596  1.00  0.00     0.037 A 
HETATM   17  C7  UNL     1      47.812  32.073  -0.476  1.00  0.00     0.102 A 
HETATM   18  C8  UNL     1      49.033  32.013   0.157  1.00  0.00     0.037 A 
HETATM   19  C9  UNL     1      49.673  33.145   0.669  1.00  0.00     0.019 A 
BRANCH  17  20
HETATM   20  N5  UNL     1      47.174  30.914  -0.987  1.00  0.00    -0.116 N 
HETATM   21  O3  UNL     1      47.496  29.799  -0.541  1.00  0.00    -0.532 OA
HETATM   22  O4  UNL     1      46.211  30.973  -1.955  1.00  0.00    -0.532 OA
ENDBRANCH  17  20
ENDBRANCH   3  14
TORSDOF 4
ENDMDL
MODEL 4
REMARK VINA RESULT: -5.830041304      1.419      1.818
REMARK  4 active torsions:
REMARK  status: ('A' for Active; 'I' for Inactive)
REMARK    1  A    between atoms: N1_2  and  N2_3 
REMARK       I    between atoms: N1_2  and  C2_6 
REMARK       I    between atoms: C2_6  and  N3_8 
REMARK    2  A    between atoms: N3_8  and  N4_10 
REMARK       I    between atoms: N4_10  and  C3_12 
REMARK    3  A    between atoms: C3_12  and  C4_14 
REMARK    4  A    between atoms: C7_17  and  N5_18 
ROOT
HETATM    1  N4  UNL     1      50.808  36.222   0.439  1.00  0.00    -0.262 N 
ATOM      2  H4  UNL     1      51.157  35.873  -0.454  1.00  0.00     0.190 HD
HETATM    3  C3  UNL     1      49.749  35.557   1.085  1.00  0.00     0.270 C 
HETATM    4  O2  UNL     1      49.340  36.031   2.213  1.00  0.00    -0.266 OA
ENDROOT
BRANCH   1   5
HETATM    5  N3  UNL     1      51.379  37.349   1.012  1.00  0.00    -0.247 N 
HETATM    6  C2  UNL     1      52.399  38.034   0.297  1.00  0.00     0.354 C 
HETATM    7  N1  UNL     1      52.998  39.187   0.864  1.00  0.00    -0.253 N 
HETATM    8  O1  UNL     1      52.777  37.617  -0.846  1.00  0.00    -0.244 OA
HETATM    9  C1  UNL     1      52.535  39.611   2.176  1.00  0.00     0.182 C 
ATOM     10  H3  UNL     1      51.073  37.679   1.927  1.00  0.00     0.192 HD
BRANCH   7  11
HETATM   11  N2  UNL     1      53.983  39.855   0.166  1.00  0.00    -0.339 N 
ATOM     12  H22 UNL     1      54.620  40.475   0.665  1.00  0.00     0.177 HD
ATOM     13  H21 UNL     1      54.108  39.760  -0.842  1.00  0.00     0.177 HD
ENDBRANCH   7  11
ENDBRANCH   1   5
BRANCH   3  14
HETATM   14  C4  UNL     1      49.089  34.365   0.557  1.00  0.00     0.033 A 
HETATM   15  C5  UNL     1      49.645  33.109   0.688  1.00  0.00     0.019 A 
HETATM   16  C6  UNL     1      49.020  31.972   0.186  1.00  0.00     0.037 A 
HETATM   17  C7  UNL     1      47.810  32.078  -0.465  1.00  0.00     0.102 A 
HETATM   18  C8  UNL     1      47.265  33.336  -0.590  1.00  0.00     0.037 A 
HETATM   19  C9  UNL     1      47.888  34.482  -0.087  1.00  0.00     0.019 A 
BRANCH  17  20
HETATM   20  N5  UNL     1      47.166  30.926  -0.983  1.00  0.00    -0.116 N 
HETATM   21  O3  UNL     1      47.512  29.804  -0.573  1.00  0.00    -0.532 OA
HETATM   22  O4  UNL     1      46.173  30.998  -1.918  1.00  0.00    -0.532 OA
ENDBRANCH  17  20
ENDBRANCH   3  14
TORSDOF 4
ENDMDL
MODEL 5
REMARK VINA RESULT: -5.070653290      1.679      2.222
REMARK  4 active torsions:
REMARK  status: ('A' for Active; 'I' for Inactive)
REMARK    1  A    between atoms: N1_2  and  N2_3 
REMARK       I    between atoms: N1_2  and  C2_6 
REMARK       I    between atoms: C2_6  and  N3_8 
REMARK    2  A    between atoms: N3_8  and  N4_10 
REMARK       I    between atoms: N4_10  and  C3_12 
REMARK    3  A    between atoms: C3_12  and  C4_14 
REMARK    4  A    between atoms: C7_17  and  N5_18 
ROOT
HETATM    1  N4  UNL     1      50.608  36.456   0.147  1.00  0.00    -0.262 N 
ATOM      2  H4  UNL     1      50.920  36.286  -0.809  1.00  0.00     0.190 HD
HETATM    3  C3  UNL     1      49.529  35.721   0.673  1.00  0.00     0.270 C 
HETATM    4  O2  UNL     1      49.168  35.967   1.887  1.00  0.00    -0.266 OA
ENDROOT
BRANCH   1   5
HETATM    5  N3  UNL     1      51.248  37.411   0.924  1.00  0.00    -0.247 N 
HETATM    6  C2  UNL     1      52.346  38.118   0.365  1.00  0.00     0.354 C 
HETATM    7  N1  UNL     1      53.017  39.098   1.140  1.00  0.00    -0.253 N 
HETATM    8  O1  UNL     1      52.731  37.877  -0.826  1.00  0.00    -0.244 OA
HETATM    9  C1  UNL     1      52.541  39.324   2.497  1.00  0.00     0.182 C 
ATOM     10  H3  UNL     1      50.936  37.601   1.876  1.00  0.00     0.192 HD
BRANCH   7  11
HETATM   11  N2  UNL     1      54.077  39.789   0.594  1.00  0.00    -0.339 N 
ATOM     12  H22 UNL     1      53.903  40.495  -0.120  1.00  0.00     0.177 HD
ATOM     13  H21 UNL     1      55.046  39.626   0.871  1.00  0.00     0.177 HD
ENDBRANCH   7  11
ENDBRANCH   1   5
BRANCH   3  14
HETATM   14  C4  UNL     1      48.798  34.697  -0.070  1.00  0.00     0.033 A 
HETATM   15  C5  UNL     1      49.291  34.158  -1.241  1.00  0.00     0.019 A 
HETATM   16  C6  UNL     1      48.598  33.184  -1.952  1.00  0.00     0.037 A 
HETATM   17  C7  UNL     1      47.381  32.728  -1.493  1.00  0.00     0.102 A 
HETATM   18  C8  UNL     1      46.898  33.273  -0.324  1.00  0.00     0.037 A 
HETATM   19  C9  UNL     1      47.591  34.251   0.394  1.00  0.00     0.019 A 
BRANCH  17  20
HETATM   20  N5  UNL     1      46.665  31.738  -2.212  1.00  0.00    -0.116 N 
HETATM   21  O3  UNL     1      46.267  31.993  -3.362  1.00  0.00    -0.532 OA
HETATM   22  O4  UNL     1      46.394  30.504  -1.690  1.00  0.00    -0.532 OA
ENDBRANCH  17  20
ENDBRANCH   3  14
TORSDOF 4
ENDMDL
