MODEL 1
REMARK VINA RESULT: -7.174946050      0.000      0.000
REMARK  5 active torsions:
REMARK  status: ('A' for Active; 'I' for Inactive)
REMARK    1  A    between atoms: S1_2  and  C2_3 
REMARK    2  A    between atoms: C2_3  and  N2_7 
REMARK    3  A    between atoms: N2_7  and  C3_9 
REMARK    4  A    between atoms: C4_10  and  O1_11 
REMARK    5  A    between atoms: C5_15  and  N4_16 
ROOT
HETATM    1  C3  UNL     1      47.845  34.057  -0.111  1.00  0.00     0.208 C 
HETATM    2  C4  UNL     1      47.750  33.345  -1.400  1.00  0.00     0.143 C 
HETATM    3  N3  UNL     1      46.794  32.526  -1.572  1.00  0.00    -0.329 N 
ATOM      4  H3  UNL     1      46.750  32.048  -2.472  1.00  0.00     0.165 HD
HETATM    5  C5  UNL     1      45.776  32.213  -0.625  1.00  0.00     0.394 C 
HETATM    6  N5  UNL     1      45.550  33.327   0.304  1.00  0.00    -0.314 N 
HETATM    7  C6  UNL     1      44.315  33.403   0.881  1.00  0.00     0.095 A 
HETATM    8  C7  UNL     1      44.011  34.408   1.770  1.00  0.00     0.017 A 
HETATM    9  C8  UNL     1      45.016  35.313   2.032  1.00  0.00     0.003 A 
HETATM   10  C9  UNL     1      46.256  35.222   1.442  1.00  0.00     0.028 A 
HETATM   11  C10 UNL     1      46.537  34.196   0.546  1.00  0.00     0.045 A 
ENDROOT
BRANCH   1  12
HETATM   12  N2  UNL     1      48.568  35.284  -0.263  1.00  0.00    -0.354 N 
ATOM     13  H2  UNL     1      48.249  35.969  -0.947  1.00  0.00     0.162 HD
BRANCH  12  14
HETATM   14  C2  UNL     1      49.720  35.566   0.519  1.00  0.00     0.134 C 
HETATM   15  N1  UNL     1      49.700  35.638   1.794  1.00  0.00    -0.380 N 
ATOM     16  H12 UNL     1      50.527  35.841   2.356  1.00  0.00     0.158 HD
ATOM     17  H11 UNL     1      48.829  35.487   2.302  1.00  0.00     0.158 HD
BRANCH  14  18
HETATM   18  S1  UNL     1      51.248  35.829  -0.372  1.00  0.00    -0.099 SA
HETATM   19  C1  UNL     1      51.740  34.325  -1.270  1.00  0.00     0.099 C 
ENDBRANCH  14  18
ENDBRANCH  12  14
ENDBRANCH   1  12
BRANCH   2  20
HETATM   20  O1  UNL     1      48.717  33.608  -2.368  1.00  0.00    -0.348 OA
ATOM     21  H1  UNL     1      48.748  33.046  -3.133  1.00  0.00     0.219 HD
ENDBRANCH   2  20
BRANCH   5  22
HETATM   22  N4  UNL     1      44.517  32.055  -1.372  1.00  0.00    -0.040 N 
ATOM     23  H43 UNL     1      43.777  32.674  -1.041  1.00  0.00     0.279 HD
ATOM     24  H42 UNL     1      44.572  32.412  -2.326  1.00  0.00     0.279 HD
ATOM     25  H41 UNL     1      44.261  31.069  -1.330  1.00  0.00     0.279 HD
ENDBRANCH   5  22
TORSDOF 5
ENDMDL
MODEL 2
REMARK VINA RESULT: -6.899182018      1.072      1.295
REMARK  5 active torsions:
REMARK  status: ('A' for Active; 'I' for Inactive)
REMARK    1  A    between atoms: S1_2  and  C2_3 
REMARK    2  A    between atoms: C2_3  and  N2_7 
REMARK    3  A    between atoms: N2_7  and  C3_9 
REMARK    4  A    between atoms: C4_10  and  O1_11 
REMARK    5  A    between atoms: C5_15  and  N4_16 
ROOT
HETATM    1  C3  UNL     1      47.980  33.907  -0.297  1.00  0.00     0.208 C 
HETATM    2  C4  UNL     1      47.779  33.121  -1.529  1.00  0.00     0.143 C 
HETATM    3  N3  UNL     1      46.770  32.352  -1.601  1.00  0.00    -0.329 N 
ATOM      4  H3  UNL     1      46.654  31.821  -2.464  1.00  0.00     0.165 HD
HETATM    5  C5  UNL     1      45.785  32.163  -0.590  1.00  0.00     0.394 C 
HETATM    6  N5  UNL     1      45.670  33.346   0.272  1.00  0.00    -0.314 N 
HETATM    7  C6  UNL     1      44.472  33.535   0.899  1.00  0.00     0.095 A 
HETATM    8  C7  UNL     1      44.272  34.612   1.732  1.00  0.00     0.017 A 
HETATM    9  C8  UNL     1      45.340  35.469   1.886  1.00  0.00     0.003 A 
HETATM   10  C9  UNL     1      46.541  35.264   1.246  1.00  0.00     0.028 A 
HETATM   11  C10 UNL     1      46.716  34.167   0.410  1.00  0.00     0.045 A 
ENDROOT
BRANCH   1  12
HETATM   12  N2  UNL     1      48.764  35.075  -0.563  1.00  0.00    -0.354 N 
ATOM     13  H2  UNL     1      48.313  35.897  -0.962  1.00  0.00     0.162 HD
BRANCH  12  14
HETATM   14  C2  UNL     1      50.156  35.112  -0.285  1.00  0.00     0.134 C 
HETATM   15  N1  UNL     1      51.017  34.419  -0.925  1.00  0.00    -0.380 N 
ATOM     16  H12 UNL     1      52.017  34.445  -0.725  1.00  0.00     0.158 HD
ATOM     17  H11 UNL     1      50.719  33.800  -1.679  1.00  0.00     0.158 HD
BRANCH  14  18
HETATM   18  S1  UNL     1      50.680  36.197   1.037  1.00  0.00    -0.099 SA
HETATM   19  C1  UNL     1      51.652  37.590   0.384  1.00  0.00     0.099 C 
ENDBRANCH  14  18
ENDBRANCH  12  14
ENDBRANCH   1  12
BRANCH   2  20
HETATM   20  O1  UNL     1      48.710  33.261  -2.556  1.00  0.00    -0.348 OA
ATOM     21  H1  UNL     1      49.628  33.135  -2.349  1.00  0.00     0.219 HD
ENDBRANCH   2  20
BRANCH   5  22
HETATM   22  N4  UNL     1      44.483  32.035  -1.265  1.00  0.00    -0.040 N 
ATOM     23  H43 UNL     1      43.751  32.599  -0.832  1.00  0.00     0.279 HD
ATOM     24  H42 UNL     1      44.465  32.479  -2.184  1.00  0.00     0.279 HD
ATOM     25  H41 UNL     1      44.254  31.042  -1.298  1.00  0.00     0.279 HD
ENDBRANCH   5  22
TORSDOF 5
ENDMDL
MODEL 3
REMARK VINA RESULT: -6.340447313      1.895      3.100
REMARK  5 active torsions:
REMARK  status: ('A' for Active; 'I' for Inactive)
REMARK    1  A    between atoms: S1_2  and  C2_3 
REMARK    2  A    between atoms: C2_3  and  N2_7 
REMARK    3  A    between atoms: N2_7  and  C3_9 
REMARK    4  A    between atoms: C4_10  and  O1_11 
REMARK    5  A    between atoms: C5_15  and  N4_16 
ROOT
HETATM    1  C3  UNL     1      47.931  34.477   0.601  1.00  0.00     0.208 C 
HETATM    2  C4  UNL     1      47.139  35.092   1.684  1.00  0.00     0.143 C 
HETATM    3  N3  UNL     1      45.875  34.964   1.659  1.00  0.00    -0.329 N 
ATOM      4  H3  UNL     1      45.351  35.398   2.419  1.00  0.00     0.165 HD
HETATM    5  C5  UNL     1      45.120  34.273   0.668  1.00  0.00     0.394 C 
HETATM    6  N5  UNL     1      45.916  33.217   0.031  1.00  0.00    -0.314 N 
HETATM    7  C6  UNL     1      45.225  32.169  -0.507  1.00  0.00     0.095 A 
HETATM    8  C7  UNL     1      45.884  31.135  -1.131  1.00  0.00     0.017 A 
HETATM    9  C8  UNL     1      47.258  31.226  -1.173  1.00  0.00     0.003 A 
HETATM   10  C9  UNL     1      47.939  32.288  -0.625  1.00  0.00     0.028 A 
HETATM   11  C10 UNL     1      47.248  33.321  -0.000  1.00  0.00     0.045 A 
ENDROOT
BRANCH   1  12
HETATM   12  N2  UNL     1      49.269  34.216   1.039  1.00  0.00    -0.354 N 
ATOM     13  H2  UNL     1      49.465  33.363   1.561  1.00  0.00     0.162 HD
BRANCH  12  14
HETATM   14  C2  UNL     1      50.328  35.121   0.761  1.00  0.00     0.134 C 
HETATM   15  N1  UNL     1      50.542  36.179   1.443  1.00  0.00    -0.380 N 
ATOM     16  H12 UNL     1      51.302  36.829   1.244  1.00  0.00     0.158 HD
ATOM     17  H11 UNL     1      49.938  36.411   2.232  1.00  0.00     0.158 HD
BRANCH  14  18
HETATM   18  S1  UNL     1      51.386  34.715  -0.622  1.00  0.00    -0.099 SA
HETATM   19  C1  UNL     1      50.530  33.615  -1.791  1.00  0.00     0.099 C 
ENDBRANCH  14  18
ENDBRANCH  12  14
ENDBRANCH   1  12
BRANCH   2  20
HETATM   20  O1  UNL     1      47.819  35.782   2.684  1.00  0.00    -0.348 OA
ATOM     21  H1  UNL     1      48.732  35.998   2.537  1.00  0.00     0.219 HD
ENDBRANCH   2  20
BRANCH   5  22
HETATM   22  N4  UNL     1      44.020  33.581   1.359  1.00  0.00    -0.040 N 
ATOM     23  H43 UNL     1      44.218  32.597   1.540  1.00  0.00     0.279 HD
ATOM     24  H42 UNL     1      43.911  33.875   2.330  1.00  0.00     0.279 HD
ATOM     25  H41 UNL     1      43.176  33.722   0.804  1.00  0.00     0.279 HD
ENDBRANCH   5  22
TORSDOF 5
ENDMDL
MODEL 4
REMARK VINA RESULT: -6.314900585      2.734      5.623
REMARK  5 active torsions:
REMARK  status: ('A' for Active; 'I' for Inactive)
REMARK    1  A    between atoms: S1_2  and  C2_3 
REMARK    2  A    between atoms: C2_3  and  N2_7 
REMARK    3  A    between atoms: N2_7  and  C3_9 
REMARK    4  A    between atoms: C4_10  and  O1_11 
REMARK    5  A    between atoms: C5_15  and  N4_16 
ROOT
HETATM    1  C3  UNL     1      47.262  33.895   0.839  1.00  0.00     0.208 C 
HETATM    2  C4  UNL     1      47.631  35.290   1.145  1.00  0.00     0.143 C 
HETATM    3  N3  UNL     1      48.856  35.564   1.345  1.00  0.00    -0.329 N 
ATOM      4  H3  UNL     1      49.084  36.536   1.554  1.00  0.00     0.165 HD
HETATM    5  C5  UNL     1      49.940  34.640   1.305  1.00  0.00     0.394 C 
HETATM    6  N5  UNL     1      49.638  33.501   0.430  1.00  0.00    -0.314 N 
HETATM    7  C6  UNL     1      50.706  32.852  -0.121  1.00  0.00     0.095 A 
HETATM    8  C7  UNL     1      50.523  31.768  -0.949  1.00  0.00     0.017 A 
HETATM    9  C8  UNL     1      49.218  31.392  -1.181  1.00  0.00     0.003 A 
HETATM   10  C9  UNL     1      48.153  32.058  -0.618  1.00  0.00     0.028 A 
HETATM   11  C10 UNL     1      48.366  33.150   0.216  1.00  0.00     0.045 A 
ENDROOT
BRANCH   1  12
HETATM   12  N2  UNL     1      46.027  33.846   0.115  1.00  0.00    -0.354 N 
ATOM     13  H2  UNL     1      45.987  34.232  -0.828  1.00  0.00     0.162 HD
BRANCH  12  14
HETATM   14  C2  UNL     1      44.859  33.270   0.681  1.00  0.00     0.134 C 
HETATM   15  N1  UNL     1      44.524  32.050   0.505  1.00  0.00    -0.380 N 
ATOM     16  H12 UNL     1      43.685  31.636   0.911  1.00  0.00     0.158 HD
ATOM     17  H11 UNL     1      45.106  31.436  -0.064  1.00  0.00     0.158 HD
BRANCH  14  18
HETATM   18  S1  UNL     1      43.839  34.347   1.679  1.00  0.00    -0.099 SA
HETATM   19  C1  UNL     1      44.542  34.541   3.347  1.00  0.00     0.099 C 
ENDBRANCH  14  18
ENDBRANCH  12  14
ENDBRANCH   1  12
BRANCH   2  20
HETATM   20  O1  UNL     1      46.615  36.242   1.199  1.00  0.00    -0.348 OA
ATOM     21  H1  UNL     1      46.178  36.476   0.389  1.00  0.00     0.219 HD
ENDBRANCH   2  20
BRANCH   5  22
HETATM   22  N4  UNL     1      51.081  35.331   0.681  1.00  0.00    -0.040 N 
ATOM     23  H43 UNL     1      51.729  35.725   1.362  1.00  0.00     0.279 HD
ATOM     24  H42 UNL     1      51.735  34.692   0.229  1.00  0.00     0.279 HD
ATOM     25  H41 UNL     1      50.700  36.029   0.042  1.00  0.00     0.279 HD
ENDBRANCH   5  22
TORSDOF 5
ENDMDL
MODEL 5
REMARK VINA RESULT: -6.293978394      2.491      4.724
REMARK  5 active torsions:
REMARK  status: ('A' for Active; 'I' for Inactive)
REMARK    1  A    between atoms: S1_2  and  C2_3 
REMARK    2  A    between atoms: C2_3  and  N2_7 
REMARK    3  A    between atoms: N2_7  and  C3_9 
REMARK    4  A    between atoms: C4_10  and  O1_11 
REMARK    5  A    between atoms: C5_15  and  N4_16 
ROOT
HETATM    1  C3  UNL     1      48.245  33.487  -1.411  1.00  0.00     0.208 C 
HETATM    2  C4  UNL     1      49.715  33.407  -1.303  1.00  0.00     0.143 C 
HETATM    3  N3  UNL     1      50.314  34.245  -0.559  1.00  0.00    -0.329 N 
ATOM      4  H3  UNL     1      51.330  34.168  -0.501  1.00  0.00     0.165 HD
HETATM    5  C5  UNL     1      49.702  35.282   0.202  1.00  0.00     0.394 C 
HETATM    6  N5  UNL     1      48.318  34.940   0.553  1.00  0.00    -0.314 N 
HETATM    7  C6  UNL     1      47.804  35.531   1.671  1.00  0.00     0.095 A 
HETATM    8  C7  UNL     1      46.514  35.278   2.076  1.00  0.00     0.017 A 
HETATM    9  C8  UNL     1      45.791  34.405   1.292  1.00  0.00     0.003 A 
HETATM   10  C9  UNL     1      46.323  33.817   0.168  1.00  0.00     0.028 A 
HETATM   11  C10 UNL     1      47.631  34.091  -0.219  1.00  0.00     0.045 A 
ENDROOT
BRANCH   1  12
HETATM   12  N2  UNL     1      47.696  32.218  -1.784  1.00  0.00    -0.354 N 
ATOM     13  H2  UNL     1      48.147  31.364  -1.457  1.00  0.00     0.162 HD
BRANCH  12  14
HETATM   14  C2  UNL     1      46.538  32.124  -2.601  1.00  0.00     0.134 C 
HETATM   15  N1  UNL     1      46.494  32.548  -3.805  1.00  0.00    -0.380 N 
ATOM     16  H12 UNL     1      45.663  32.480  -4.392  1.00  0.00     0.158 HD
ATOM     17  H11 UNL     1      47.317  32.978  -4.227  1.00  0.00     0.158 HD
BRANCH  14  18
HETATM   18  S1  UNL     1      45.096  31.369  -1.862  1.00  0.00    -0.099 SA
HETATM   19  C1  UNL     1      43.612  31.686  -2.867  1.00  0.00     0.099 C 
ENDBRANCH  14  18
ENDBRANCH  12  14
ENDBRANCH   1  12
BRANCH   2  20
HETATM   20  O1  UNL     1      50.373  32.414  -2.024  1.00  0.00    -0.348 OA
ATOM     21  H1  UNL     1      51.249  32.169  -1.751  1.00  0.00     0.219 HD
ENDBRANCH   2  20
BRANCH   5  22
HETATM   22  N4  UNL     1      50.426  35.372   1.481  1.00  0.00    -0.040 N 
ATOM     23  H43 UNL     1      50.732  36.320   1.700  1.00  0.00     0.279 HD
ATOM     24  H42 UNL     1      49.821  35.238   2.292  1.00  0.00     0.279 HD
ATOM     25  H41 UNL     1      51.195  34.703   1.442  1.00  0.00     0.279 HD
ENDBRANCH   5  22
TORSDOF 5
ENDMDL
