MODEL 1
REMARK VINA RESULT: -6.725223595      0.000      0.000
REMARK  6 active torsions:
REMARK  status: ('A' for Active; 'I' for Inactive)
REMARK    1  A    between atoms: O1_2  and  C2_3 
REMARK    2  A    between atoms: C5_6  and  C6_7 
REMARK       I    between atoms: C6_7  and  N1_9 
REMARK    3  A    between atoms: N1_9  and  N2_11 
REMARK    4  A    between atoms: N2_11  and  C7_13 
REMARK    5  A    between atoms: C7_13  and  O3_14 
REMARK    6  A    between atoms: C7_13  and  N3_16 
REMARK       I    between atoms: N3_16  and  C8_18 
ROOT
HETATM    1  C6  UNL     1      49.287  34.948  -0.295  1.00  0.00     0.271 C 
HETATM    2  O2  UNL     1      49.853  34.393  -1.261  1.00  0.00    -0.266 OA
HETATM    3  N1  UNL     1      49.961  35.926   0.457  1.00  0.00    -0.263 N 
ATOM      4  H1  UNL     1      49.515  36.390   1.248  1.00  0.00     0.190 HD
ENDROOT
BRANCH   3   5
HETATM    5  N2  UNL     1      51.292  36.240   0.067  1.00  0.00    -0.262 N 
ATOM      6  H2  UNL     1      51.871  35.543  -0.402  1.00  0.00     0.190 HD
BRANCH   5   7
HETATM    7  C7  UNL     1      51.792  37.503   0.333  1.00  0.00     0.238 C 
BRANCH   7   8
HETATM    8  O3  UNL     1      51.326  38.105   1.392  1.00  0.00    -0.331 OA
ATOM      9  H3  UNL     1      51.706  37.856   2.226  1.00  0.00     0.221 HD
ENDBRANCH   7   8
BRANCH   7  10
HETATM   10  N3  UNL     1      52.744  38.156  -0.449  1.00  0.00    -0.292 N 
HETATM   11  C8  UNL     1      53.589  39.165  -0.021  1.00  0.00     0.220 C 
HETATM   12  C9  UNL     1      54.563  39.738  -1.032  1.00  0.00     0.117 C 
HETATM   13  O4  UNL     1      53.628  39.659   1.141  1.00  0.00    -0.274 OA
ATOM     14  H3  UNL     1      52.824  37.864  -1.422  1.00  0.00     0.172 HD
ENDBRANCH   7  10
ENDBRANCH   5   7
ENDBRANCH   3   5
BRANCH   1  15
HETATM   15  C5  UNL     1      47.923  34.549   0.018  1.00  0.00     0.049 A 
HETATM   16  C4  UNL     1      47.325  33.400  -0.492  1.00  0.00     0.022 A 
HETATM   17  C3  UNL     1      46.027  33.059  -0.163  1.00  0.00     0.057 A 
HETATM   18  C2  UNL     1      45.305  33.859   0.682  1.00  0.00     0.141 A 
HETATM   19  N4  UNL     1      45.869  34.965   1.178  1.00  0.00    -0.346 N 
HETATM   20  C10 UNL     1      47.128  35.311   0.869  1.00  0.00     0.107 A 
ATOM     21  H4  UNL     1      45.330  35.559   1.807  1.00  0.00     0.167 HD
BRANCH  18  22
HETATM   22  O1  UNL     1      44.025  33.547   1.022  1.00  0.00    -0.341 OA
HETATM   23  C1  UNL     1      43.310  34.314   1.965  1.00  0.00     0.211 C 
ENDBRANCH  18  22
ENDBRANCH   1  15
TORSDOF 6
ENDMDL
MODEL 2
REMARK VINA RESULT: -6.657990134      3.287      7.736
REMARK  6 active torsions:
REMARK  status: ('A' for Active; 'I' for Inactive)
REMARK    1  A    between atoms: O1_2  and  C2_3 
REMARK    2  A    between atoms: C5_6  and  C6_7 
REMARK       I    between atoms: C6_7  and  N1_9 
REMARK    3  A    between atoms: N1_9  and  N2_11 
REMARK    4  A    between atoms: N2_11  and  C7_13 
REMARK    5  A    between atoms: C7_13  and  O3_14 
REMARK    6  A    between atoms: C7_13  and  N3_16 
REMARK       I    between atoms: N3_16  and  C8_18 
ROOT
HETATM    1  C6  UNL     1      48.553  32.489  -0.151  1.00  0.00     0.271 C 
HETATM    2  O2  UNL     1      48.592  31.950   0.976  1.00  0.00    -0.266 OA
HETATM    3  N1  UNL     1      47.429  32.322  -0.979  1.00  0.00    -0.263 N 
ATOM      4  H1  UNL     1      47.378  32.754  -1.901  1.00  0.00     0.190 HD
ENDROOT
BRANCH   3   5
HETATM    5  N2  UNL     1      46.365  31.524  -0.474  1.00  0.00    -0.262 N 
ATOM      6  H2  UNL     1      46.555  30.611  -0.062  1.00  0.00     0.190 HD
BRANCH   5   7
HETATM    7  C7  UNL     1      45.069  32.005  -0.547  1.00  0.00     0.238 C 
BRANCH   7   8
HETATM    8  O3  UNL     1      44.394  31.705  -1.622  1.00  0.00    -0.331 OA
ATOM      9  H3  UNL     1      44.630  32.170  -2.416  1.00  0.00     0.221 HD
ENDBRANCH   7   8
BRANCH   7  10
HETATM   10  N3  UNL     1      44.456  32.776   0.440  1.00  0.00    -0.292 N 
HETATM   11  C8  UNL     1      44.920  33.986   0.926  1.00  0.00     0.220 C 
HETATM   12  C9  UNL     1      44.096  34.673   1.998  1.00  0.00     0.117 C 
HETATM   13  O4  UNL     1      45.973  34.580   0.559  1.00  0.00    -0.274 OA
ATOM     14  H3  UNL     1      43.589  32.416   0.839  1.00  0.00     0.172 HD
ENDBRANCH   7  10
ENDBRANCH   5   7
ENDBRANCH   3   5
BRANCH   1  15
HETATM   15  C5  UNL     1      49.698  33.283  -0.570  1.00  0.00     0.049 A 
HETATM   16  C4  UNL     1      50.261  34.286   0.214  1.00  0.00     0.022 A 
HETATM   17  C3  UNL     1      51.352  35.013  -0.223  1.00  0.00     0.057 A 
HETATM   18  C2  UNL     1      51.899  34.748  -1.451  1.00  0.00     0.141 A 
HETATM   19  N4  UNL     1      51.367  33.787  -2.212  1.00  0.00    -0.346 N 
HETATM   20  C10 UNL     1      50.308  33.072  -1.802  1.00  0.00     0.107 A 
ATOM     21  H4  UNL     1      51.775  33.592  -3.126  1.00  0.00     0.167 HD
BRANCH  18  22
HETATM   22  O1  UNL     1      52.974  35.448  -1.907  1.00  0.00    -0.341 OA
HETATM   23  C1  UNL     1      53.509  35.215  -3.190  1.00  0.00     0.211 C 
ENDBRANCH  18  22
ENDBRANCH   1  15
TORSDOF 6
ENDMDL
MODEL 3
REMARK VINA RESULT: -6.571351533      2.223      2.548
REMARK  6 active torsions:
REMARK  status: ('A' for Active; 'I' for Inactive)
REMARK    1  A    between atoms: O1_2  and  C2_3 
REMARK    2  A    between atoms: C5_6  and  C6_7 
REMARK       I    between atoms: C6_7  and  N1_9 
REMARK    3  A    between atoms: N1_9  and  N2_11 
REMARK    4  A    between atoms: N2_11  and  C7_13 
REMARK    5  A    between atoms: C7_13  and  O3_14 
REMARK    6  A    between atoms: C7_13  and  N3_16 
REMARK       I    between atoms: N3_16  and  C8_18 
ROOT
HETATM    1  C6  UNL     1      49.303  35.271   0.700  1.00  0.00     0.271 C 
HETATM    2  O2  UNL     1      48.766  35.634   1.768  1.00  0.00    -0.266 OA
HETATM    3  N1  UNL     1      50.605  35.696   0.380  1.00  0.00    -0.263 N 
ATOM      4  H1  UNL     1      51.060  35.411  -0.487  1.00  0.00     0.190 HD
ENDROOT
BRANCH   3   5
HETATM    5  N2  UNL     1      51.259  36.542   1.318  1.00  0.00    -0.262 N 
ATOM      6  H2  UNL     1      51.517  36.190   2.239  1.00  0.00     0.190 HD
BRANCH   5   7
HETATM    7  C7  UNL     1      51.541  37.850   0.963  1.00  0.00     0.238 C 
BRANCH   7   8
HETATM    8  O3  UNL     1      50.940  38.784   1.646  1.00  0.00    -0.331 OA
ATOM      9  H3  UNL     1      51.468  39.254   2.281  1.00  0.00     0.221 HD
ENDBRANCH   7   8
BRANCH   7  10
HETATM   10  N3  UNL     1      52.412  38.219  -0.062  1.00  0.00    -0.292 N 
HETATM   11  C8  UNL     1      53.455  39.122   0.049  1.00  0.00     0.220 C 
HETATM   12  C9  UNL     1      54.294  39.378  -1.189  1.00  0.00     0.117 C 
HETATM   13  O4  UNL     1      53.781  39.758   1.090  1.00  0.00    -0.274 OA
ATOM     14  H3  UNL     1      52.266  37.786  -0.973  1.00  0.00     0.172 HD
ENDBRANCH   7  10
ENDBRANCH   5   7
ENDBRANCH   3   5
BRANCH   1  15
HETATM   15  C5  UNL     1      48.543  34.406  -0.189  1.00  0.00     0.049 A 
HETATM   16  C4  UNL     1      47.347  33.794   0.177  1.00  0.00     0.022 A 
HETATM   17  C3  UNL     1      46.656  32.983  -0.703  1.00  0.00     0.057 A 
HETATM   18  C2  UNL     1      47.148  32.770  -1.963  1.00  0.00     0.141 A 
HETATM   19  N4  UNL     1      48.295  33.353  -2.326  1.00  0.00    -0.346 N 
HETATM   20  C10 UNL     1      48.978  34.143  -1.484  1.00  0.00     0.107 A 
ATOM     21  H4  UNL     1      48.660  33.193  -3.265  1.00  0.00     0.167 HD
BRANCH  18  22
HETATM   22  O1  UNL     1      46.488  31.976  -2.850  1.00  0.00    -0.341 OA
HETATM   23  C1  UNL     1      45.165  31.551  -2.608  1.00  0.00     0.211 C 
ENDBRANCH  18  22
ENDBRANCH   1  15
TORSDOF 6
ENDMDL
MODEL 4
REMARK VINA RESULT: -6.415295097      1.632      2.083
REMARK  6 active torsions:
REMARK  status: ('A' for Active; 'I' for Inactive)
REMARK    1  A    between atoms: O1_2  and  C2_3 
REMARK    2  A    between atoms: C5_6  and  C6_7 
REMARK       I    between atoms: C6_7  and  N1_9 
REMARK    3  A    between atoms: N1_9  and  N2_11 
REMARK    4  A    between atoms: N2_11  and  C7_13 
REMARK    5  A    between atoms: C7_13  and  O3_14 
REMARK    6  A    between atoms: C7_13  and  N3_16 
REMARK       I    between atoms: N3_16  and  C8_18 
ROOT
HETATM    1  C6  UNL     1      49.752  34.353   0.637  1.00  0.00     0.271 C 
HETATM    2  O2  UNL     1      50.596  33.611   1.182  1.00  0.00    -0.266 OA
HETATM    3  N1  UNL     1      50.040  35.711   0.414  1.00  0.00    -0.263 N 
ATOM      4  H1  UNL     1      49.364  36.332  -0.031  1.00  0.00     0.190 HD
ENDROOT
BRANCH   3   5
HETATM    5  N2  UNL     1      51.314  36.181   0.834  1.00  0.00    -0.262 N 
ATOM      6  H2  UNL     1      52.020  35.527   1.173  1.00  0.00     0.190 HD
BRANCH   5   7
HETATM    7  C7  UNL     1      51.585  37.538   0.777  1.00  0.00     0.238 C 
BRANCH   7   8
HETATM    8  O3  UNL     1      51.008  38.287   1.674  1.00  0.00    -0.331 OA
ATOM      9  H3  UNL     1      51.223  38.107   2.582  1.00  0.00     0.221 HD
ENDBRANCH   7   8
BRANCH   7  10
HETATM   10  N3  UNL     1      52.421  38.136  -0.165  1.00  0.00    -0.292 N 
HETATM   11  C8  UNL     1      53.350  39.129   0.092  1.00  0.00     0.220 C 
HETATM   12  C9  UNL     1      54.170  39.641  -1.076  1.00  0.00     0.117 C 
HETATM   13  O4  UNL     1      53.585  39.654   1.217  1.00  0.00    -0.274 OA
ATOM     14  H3  UNL     1      52.340  37.814  -1.129  1.00  0.00     0.172 HD
ENDBRANCH   7  10
ENDBRANCH   5   7
ENDBRANCH   3   5
BRANCH   1  15
HETATM   15  C5  UNL     1      48.477  33.769   0.248  1.00  0.00     0.049 A 
HETATM   16  C4  UNL     1      47.246  34.328   0.581  1.00  0.00     0.022 A 
HETATM   17  C3  UNL     1      46.060  33.740   0.186  1.00  0.00     0.057 A 
HETATM   18  C2  UNL     1      46.083  32.584  -0.549  1.00  0.00     0.141 A 
HETATM   19  N4  UNL     1      47.260  32.039  -0.875  1.00  0.00    -0.346 N 
HETATM   20  C10 UNL     1      48.421  32.597  -0.499  1.00  0.00     0.107 A 
ATOM     21  H4  UNL     1      47.275  31.179  -1.422  1.00  0.00     0.167 HD
BRANCH  18  22
HETATM   22  O1  UNL     1      44.930  31.984  -0.951  1.00  0.00    -0.341 OA
HETATM   23  C1  UNL     1      44.769  31.520  -2.273  1.00  0.00     0.211 C 
ENDBRANCH  18  22
ENDBRANCH   1  15
TORSDOF 6
ENDMDL
MODEL 5
REMARK VINA RESULT: -6.307140456      2.238      7.361
REMARK  6 active torsions:
REMARK  status: ('A' for Active; 'I' for Inactive)
REMARK    1  A    between atoms: O1_2  and  C2_3 
REMARK    2  A    between atoms: C5_6  and  C6_7 
REMARK       I    between atoms: C6_7  and  N1_9 
REMARK    3  A    between atoms: N1_9  and  N2_11 
REMARK    4  A    between atoms: N2_11  and  C7_13 
REMARK    5  A    between atoms: C7_13  and  O3_14 
REMARK    6  A    between atoms: C7_13  and  N3_16 
REMARK       I    between atoms: N3_16  and  C8_18 
ROOT
HETATM    1  C6  UNL     1      48.605  32.979   0.114  1.00  0.00     0.271 C 
HETATM    2  O2  UNL     1      48.905  31.955   0.766  1.00  0.00    -0.266 OA
HETATM    3  N1  UNL     1      47.446  32.999  -0.681  1.00  0.00    -0.263 N 
ATOM      4  H1  UNL     1      47.184  33.825  -1.219  1.00  0.00     0.190 HD
ENDROOT
BRANCH   3   5
HETATM    5  N2  UNL     1      46.654  31.818  -0.703  1.00  0.00    -0.262 N 
ATOM      6  H2  UNL     1      47.096  30.901  -0.754  1.00  0.00     0.190 HD
BRANCH   5   7
HETATM    7  C7  UNL     1      45.275  31.931  -0.652  1.00  0.00     0.238 C 
BRANCH   7   8
HETATM    8  O3  UNL     1      44.613  31.474  -1.678  1.00  0.00    -0.331 OA
ATOM      9  H3  UNL     1      43.706  31.234  -1.527  1.00  0.00     0.221 HD
ENDBRANCH   7   8
BRANCH   7  10
HETATM   10  N3  UNL     1      44.568  32.494   0.410  1.00  0.00    -0.292 N 
HETATM   11  C8  UNL     1      44.787  33.748   0.953  1.00  0.00     0.220 C 
HETATM   12  C9  UNL     1      43.897  34.178   2.104  1.00  0.00     0.117 C 
HETATM   13  O4  UNL     1      45.664  34.577   0.580  1.00  0.00    -0.274 OA
ATOM     14  H3  UNL     1      43.824  31.932   0.822  1.00  0.00     0.172 HD
ENDBRANCH   7  10
ENDBRANCH   5   7
ENDBRANCH   3   5
BRANCH   1  15
HETATM   15  C5  UNL     1      49.488  34.131   0.207  1.00  0.00     0.049 A 
HETATM   16  C4  UNL     1      50.498  34.397  -0.713  1.00  0.00     0.022 A 
HETATM   17  C3  UNL     1      51.311  35.508  -0.587  1.00  0.00     0.057 A 
HETATM   18  C2  UNL     1      51.127  36.372   0.460  1.00  0.00     0.141 A 
HETATM   19  N4  UNL     1      50.160  36.127   1.350  1.00  0.00    -0.346 N 
HETATM   20  C10 UNL     1      49.362  35.053   1.242  1.00  0.00     0.107 A 
ATOM     21  H4  UNL     1      50.025  36.770   2.128  1.00  0.00     0.167 HD
BRANCH  18  22
HETATM   22  O1  UNL     1      51.913  37.473   0.608  1.00  0.00    -0.341 OA
HETATM   23  C1  UNL     1      51.650  38.431   1.609  1.00  0.00     0.211 C 
ENDBRANCH  18  22
ENDBRANCH   1  15
TORSDOF 6
ENDMDL
