MODEL 1
REMARK VINA RESULT: -8.634475036      0.000      0.000
REMARK  4 active torsions:
REMARK  status: ('A' for Active; 'I' for Inactive)
REMARK       I    between atoms: N2_4  and  C1_6 
REMARK       I    between atoms: C1_6  and  N4_11 
REMARK    1  A    between atoms: N3_7  and  O1_9 
REMARK    2  A    between atoms: C2_13  and  N5_14 
REMARK    3  A    between atoms: C2_13  and  C4_23 
REMARK    4  A    between atoms: N5_14  and  C3_16 
ROOT
HETATM    1  N1  UNL     1      50.868  34.563   1.611  1.00  0.00    -0.331 N 
ATOM      2  H11 UNL     1      51.706  34.356   2.154  1.00  0.00     0.177 HD
ATOM      3  H12 UNL     1      50.378  35.452   1.698  1.00  0.00     0.177 HD
HETATM    4  N2  UNL     1      50.432  33.674   0.802  1.00  0.00    -0.137 N 
ATOM      5  H2  UNL     1      50.911  32.778   0.703  1.00  0.00     0.205 HD
HETATM    6  C1  UNL     1      49.255  33.964   0.038  1.00  0.00     0.717 C 
HETATM    7  N3  UNL     1      49.101  35.192  -0.349  1.00  0.00    -0.097 N 
ATOM      8  H3  UNL     1      48.271  35.426  -0.893  1.00  0.00     0.213 HD
HETATM    9  N4  UNL     1      48.279  33.024  -0.320  1.00  0.00    -0.172 N 
ATOM     10  H4  UNL     1      48.627  32.242  -0.874  1.00  0.00     0.186 HD
HETATM   11  C2  UNL     1      47.043  32.982  -0.071  1.00  0.00     0.147 C 
ENDROOT
BRANCH  11  12
HETATM   12  N5  UNL     1      46.319  31.861  -0.598  1.00  0.00    -0.173 N 
ATOM     13  H5  UNL     1      46.302  30.988  -0.070  1.00  0.00     0.186 HD
BRANCH  12  14
HETATM   14  C3  UNL     1      45.690  31.928  -1.719  1.00  0.00     0.709 A 
HETATM   15  N6  UNL     1      46.241  32.184  -2.918  1.00  0.00    -0.117 N 
HETATM   16  N7  UNL     1      45.263  32.168  -3.826  1.00  0.00     0.006 NA
ATOM     17  H6  UNL     1      47.230  32.360  -3.100  1.00  0.00     0.202 HD
HETATM   18  N8  UNL     1      44.109  31.908  -3.238  1.00  0.00     0.006 NA
HETATM   19  N9  UNL     1      44.378  31.763  -1.951  1.00  0.00    -0.117 N 
ATOM     20  H9  UNL     1      43.684  31.554  -1.234  1.00  0.00     0.202 HD
ENDBRANCH  12  14
ENDBRANCH  11  12
BRANCH  11  21
HETATM   21  C4  UNL     1      46.312  33.970   0.715  1.00  0.00     0.009 A 
HETATM   22  C5  UNL     1      46.925  35.044   1.297  1.00  0.00     0.015 A 
HETATM   23  C6  UNL     1      46.224  35.981   2.026  1.00  0.00     0.001 A 
HETATM   24  C7  UNL     1      44.865  35.828   2.173  1.00  0.00     0.000 A 
HETATM   25  C8  UNL     1      44.220  34.752   1.596  1.00  0.00     0.001 A 
HETATM   26  C9  UNL     1      44.937  33.832   0.874  1.00  0.00     0.015 A 
ENDBRANCH  11  21
BRANCH   7  27
HETATM   27  O1  UNL     1      49.988  36.189  -0.066  1.00  0.00    -0.276 OA
ATOM     28  H1  UNL     1      49.737  37.097   0.057  1.00  0.00     0.245 HD
ENDBRANCH   7  27
TORSDOF 4
ENDMDL
MODEL 2
REMARK VINA RESULT: -8.547996980      0.161      1.092
REMARK  4 active torsions:
REMARK  status: ('A' for Active; 'I' for Inactive)
REMARK       I    between atoms: N2_4  and  C1_6 
REMARK       I    between atoms: C1_6  and  N4_11 
REMARK    1  A    between atoms: N3_7  and  O1_9 
REMARK    2  A    between atoms: C2_13  and  N5_14 
REMARK    3  A    between atoms: C2_13  and  C4_23 
REMARK    4  A    between atoms: N5_14  and  C3_16 
ROOT
HETATM    1  N1  UNL     1      50.925  34.539   1.563  1.00  0.00    -0.331 N 
ATOM      2  H11 UNL     1      51.775  34.323   2.084  1.00  0.00     0.177 HD
ATOM      3  H12 UNL     1      50.443  35.431   1.670  1.00  0.00     0.177 HD
HETATM    4  N2  UNL     1      50.463  33.659   0.759  1.00  0.00    -0.137 N 
ATOM      5  H2  UNL     1      50.934  32.761   0.640  1.00  0.00     0.205 HD
HETATM    6  C1  UNL     1      49.270  33.963   0.026  1.00  0.00     0.717 C 
HETATM    7  N3  UNL     1      49.114  35.195  -0.347  1.00  0.00    -0.097 N 
ATOM      8  H3  UNL     1      48.272  35.438  -0.869  1.00  0.00     0.213 HD
HETATM    9  N4  UNL     1      48.279  33.032  -0.315  1.00  0.00    -0.172 N 
ATOM     10  H4  UNL     1      48.608  32.252  -0.884  1.00  0.00     0.186 HD
HETATM   11  C2  UNL     1      47.049  32.995  -0.036  1.00  0.00     0.147 C 
ENDROOT
BRANCH  11  12
HETATM   12  N5  UNL     1      46.306  31.883  -0.553  1.00  0.00    -0.173 N 
ATOM     13  H5  UNL     1      46.263  31.019  -0.012  1.00  0.00     0.186 HD
BRANCH  12  14
HETATM   14  C3  UNL     1      45.690  31.947  -1.682  1.00  0.00     0.709 A 
HETATM   15  N6  UNL     1      46.248  32.242  -2.868  1.00  0.00    -0.117 N 
HETATM   16  N7  UNL     1      45.284  32.207  -3.791  1.00  0.00     0.006 NA
ATOM     17  H6  UNL     1      47.232  32.455  -3.034  1.00  0.00     0.202 HD
HETATM   18  N8  UNL     1      44.131  31.899  -3.223  1.00  0.00     0.006 NA
HETATM   19  N9  UNL     1      44.388  31.741  -1.935  1.00  0.00    -0.117 N 
ATOM     20  H9  UNL     1      43.692  31.496  -1.231  1.00  0.00     0.202 HD
ENDBRANCH  12  14
ENDBRANCH  11  12
BRANCH  11  21
HETATM   21  C4  UNL     1      46.345  33.981   0.776  1.00  0.00     0.009 A 
HETATM   22  C5  UNL     1      44.981  34.047   0.833  1.00  0.00     0.015 A 
HETATM   23  C6  UNL     1      44.323  34.972   1.615  1.00  0.00     0.001 A 
HETATM   24  C7  UNL     1      45.066  35.859   2.362  1.00  0.00     0.000 A 
HETATM   25  C8  UNL     1      46.445  35.815   2.323  1.00  0.00     0.001 A 
HETATM   26  C9  UNL     1      47.078  34.886   1.538  1.00  0.00     0.015 A 
ENDBRANCH  11  21
BRANCH   7  27
HETATM   27  O1  UNL     1      50.014  36.184  -0.078  1.00  0.00    -0.276 OA
ATOM     28  H1  UNL     1      50.939  36.026   0.074  1.00  0.00     0.245 HD
ENDBRANCH   7  27
TORSDOF 4
ENDMDL
MODEL 3
REMARK VINA RESULT: -8.348602995      3.179      5.336
REMARK  4 active torsions:
REMARK  status: ('A' for Active; 'I' for Inactive)
REMARK       I    between atoms: N2_4  and  C1_6 
REMARK       I    between atoms: C1_6  and  N4_11 
REMARK    1  A    between atoms: N3_7  and  O1_9 
REMARK    2  A    between atoms: C2_13  and  N5_14 
REMARK    3  A    between atoms: C2_13  and  C4_23 
REMARK    4  A    between atoms: N5_14  and  C3_16 
ROOT
HETATM    1  N1  UNL     1      45.037  34.666   3.805  1.00  0.00    -0.331 N 
ATOM      2  H11 UNL     1      45.040  34.715   4.823  1.00  0.00     0.177 HD
ATOM      3  H12 UNL     1      44.464  33.988   3.303  1.00  0.00     0.177 HD
HETATM    4  N2  UNL     1      45.775  35.481   3.153  1.00  0.00    -0.137 N 
ATOM      5  H2  UNL     1      46.355  36.165   3.641  1.00  0.00     0.205 HD
HETATM    6  C1  UNL     1      45.771  35.412   1.722  1.00  0.00     0.717 C 
HETATM    7  N3  UNL     1      44.644  35.110   1.158  1.00  0.00    -0.097 N 
ATOM      8  H3  UNL     1      44.613  35.054   0.140  1.00  0.00     0.213 HD
HETATM    9  N4  UNL     1      46.883  35.654   0.904  1.00  0.00    -0.172 N 
ATOM     10  H4  UNL     1      47.292  36.582   1.007  1.00  0.00     0.186 HD
HETATM   11  C2  UNL     1      47.465  34.915   0.062  1.00  0.00     0.147 C 
ENDROOT
BRANCH  11  12
HETATM   12  N5  UNL     1      48.594  35.481  -0.617  1.00  0.00    -0.173 N 
ATOM     13  H5  UNL     1      48.464  36.315  -1.190  1.00  0.00     0.186 HD
BRANCH  12  14
HETATM   14  C3  UNL     1      49.769  34.963  -0.523  1.00  0.00     0.709 A 
HETATM   15  N6  UNL     1      50.436  34.724   0.620  1.00  0.00    -0.117 N 
HETATM   16  N7  UNL     1      51.614  34.184   0.297  1.00  0.00     0.006 NA
ATOM     17  H6  UNL     1      50.101  34.920   1.563  1.00  0.00     0.202 HD
HETATM   18  N8  UNL     1      51.713  34.075  -1.016  1.00  0.00     0.006 NA
HETATM   19  N9  UNL     1      50.582  34.553  -1.509  1.00  0.00    -0.117 N 
ATOM     20  H9  UNL     1      50.358  34.602  -2.503  1.00  0.00     0.202 HD
ENDBRANCH  12  14
ENDBRANCH  11  12
BRANCH  11  21
HETATM   21  C4  UNL     1      47.084  33.542  -0.252  1.00  0.00     0.009 A 
HETATM   22  C5  UNL     1      45.826  33.206  -0.668  1.00  0.00     0.015 A 
HETATM   23  C6  UNL     1      45.480  31.908  -0.977  1.00  0.00     0.001 A 
HETATM   24  C7  UNL     1      46.431  30.920  -0.862  1.00  0.00     0.000 A 
HETATM   25  C8  UNL     1      47.709  31.232  -0.444  1.00  0.00     0.001 A 
HETATM   26  C9  UNL     1      48.033  32.530  -0.142  1.00  0.00     0.015 A 
ENDBRANCH  11  21
BRANCH   7  27
HETATM   27  O1  UNL     1      43.495  34.863   1.852  1.00  0.00    -0.276 OA
ATOM     28  H1  UNL     1      43.038  35.520   2.363  1.00  0.00     0.245 HD
ENDBRANCH   7  27
TORSDOF 4
ENDMDL
MODEL 4
REMARK VINA RESULT: -8.105127799      3.148      5.209
REMARK  4 active torsions:
REMARK  status: ('A' for Active; 'I' for Inactive)
REMARK       I    between atoms: N2_4  and  C1_6 
REMARK       I    between atoms: C1_6  and  N4_11 
REMARK    1  A    between atoms: N3_7  and  O1_9 
REMARK    2  A    between atoms: C2_13  and  N5_14 
REMARK    3  A    between atoms: C2_13  and  C4_23 
REMARK    4  A    between atoms: N5_14  and  C3_16 
ROOT
HETATM    1  N1  UNL     1      45.046  34.523   3.743  1.00  0.00    -0.331 N 
ATOM      2  H11 UNL     1      45.043  34.571   4.762  1.00  0.00     0.177 HD
ATOM      3  H12 UNL     1      44.503  33.824   3.238  1.00  0.00     0.177 HD
HETATM    4  N2  UNL     1      45.754  35.368   3.096  1.00  0.00    -0.137 N 
ATOM      5  H2  UNL     1      46.303  36.074   3.587  1.00  0.00     0.205 HD
HETATM    6  C1  UNL     1      45.758  35.301   1.664  1.00  0.00     0.717 C 
HETATM    7  N3  UNL     1      44.646  34.954   1.095  1.00  0.00    -0.097 N 
ATOM      8  H3  UNL     1      44.622  34.898   0.077  1.00  0.00     0.213 HD
HETATM    9  N4  UNL     1      46.862  35.588   0.851  1.00  0.00    -0.172 N 
ATOM     10  H4  UNL     1      47.233  36.532   0.956  1.00  0.00     0.186 HD
HETATM   11  C2  UNL     1      47.477  34.875   0.011  1.00  0.00     0.147 C 
ENDROOT
BRANCH  11  12
HETATM   12  N5  UNL     1      48.585  35.486  -0.664  1.00  0.00    -0.173 N 
ATOM     13  H5  UNL     1      48.452  36.389  -1.121  1.00  0.00     0.186 HD
BRANCH  12  14
HETATM   14  C3  UNL     1      49.743  34.926  -0.707  1.00  0.00     0.709 A 
HETATM   15  N6  UNL     1      50.546  34.692   0.346  1.00  0.00    -0.117 N 
HETATM   16  N7  UNL     1      51.651  34.098  -0.110  1.00  0.00     0.006 NA
ATOM     17  H6  UNL     1      50.345  34.926   1.318  1.00  0.00     0.202 HD
HETATM   18  N8  UNL     1      51.573  33.950  -1.420  1.00  0.00     0.006 NA
HETATM   19  N9  UNL     1      50.404  34.457  -1.777  1.00  0.00    -0.117 N 
ATOM     20  H9  UNL     1      50.054  34.488  -2.735  1.00  0.00     0.202 HD
ENDBRANCH  12  14
ENDBRANCH  11  12
BRANCH  11  21
HETATM   21  C4  UNL     1      47.153  33.488  -0.307  1.00  0.00     0.009 A 
HETATM   22  C5  UNL     1      48.008  32.455  -0.042  1.00  0.00     0.015 A 
HETATM   23  C6  UNL     1      47.687  31.146  -0.331  1.00  0.00     0.001 A 
HETATM   24  C7  UNL     1      46.467  30.872  -0.906  1.00  0.00     0.000 A 
HETATM   25  C8  UNL     1      45.585  31.896  -1.184  1.00  0.00     0.001 A 
HETATM   26  C9  UNL     1      45.924  33.191  -0.887  1.00  0.00     0.015 A 
ENDBRANCH  11  21
BRANCH   7  27
HETATM   27  O1  UNL     1      43.506  34.660   1.785  1.00  0.00    -0.276 OA
ATOM     28  H1  UNL     1      42.697  35.150   1.697  1.00  0.00     0.245 HD
ENDBRANCH   7  27
TORSDOF 4
ENDMDL
MODEL 5
REMARK VINA RESULT: -8.099611110      3.032      4.506
REMARK  4 active torsions:
REMARK  status: ('A' for Active; 'I' for Inactive)
REMARK       I    between atoms: N2_4  and  C1_6 
REMARK       I    between atoms: C1_6  and  N4_11 
REMARK    1  A    between atoms: N3_7  and  O1_9 
REMARK    2  A    between atoms: C2_13  and  N5_14 
REMARK    3  A    between atoms: C2_13  and  C4_23 
REMARK    4  A    between atoms: N5_14  and  C3_16 
ROOT
HETATM    1  N1  UNL     1      51.527  34.109  -1.827  1.00  0.00    -0.331 N 
ATOM      2  H11 UNL     1      52.268  34.483  -2.420  1.00  0.00     0.177 HD
ATOM      3  H12 UNL     1      51.226  33.137  -1.896  1.00  0.00     0.177 HD
HETATM    4  N2  UNL     1      50.970  34.890  -0.982  1.00  0.00    -0.137 N 
ATOM      5  H2  UNL     1      51.260  35.865  -0.902  1.00  0.00     0.205 HD
HETATM    6  C1  UNL     1      49.929  34.364  -0.150  1.00  0.00     0.717 C 
HETATM    7  N3  UNL     1      50.055  33.131   0.230  1.00  0.00    -0.097 N 
ATOM      8  H3  UNL     1      49.326  32.732   0.823  1.00  0.00     0.213 HD
HETATM    9  N4  UNL     1      48.805  35.083   0.279  1.00  0.00    -0.172 N 
ATOM     10  H4  UNL     1      49.019  35.921   0.821  1.00  0.00     0.186 HD
HETATM   11  C2  UNL     1      47.573  34.870   0.109  1.00  0.00     0.147 C 
ENDROOT
BRANCH  11  12
HETATM   12  N5  UNL     1      46.670  35.819   0.693  1.00  0.00    -0.173 N 
ATOM     13  H5  UNL     1      46.656  36.775   0.338  1.00  0.00     0.186 HD
BRANCH  12  14
HETATM   14  C3  UNL     1      45.876  35.495   1.653  1.00  0.00     0.709 A 
HETATM   15  N6  UNL     1      46.210  35.387   2.950  1.00  0.00    -0.117 N 
HETATM   16  N7  UNL     1      45.114  35.032   3.624  1.00  0.00     0.006 NA
ATOM     17  H6  UNL     1      47.136  35.548   3.348  1.00  0.00     0.202 HD
HETATM   18  N8  UNL     1      44.095  34.912   2.792  1.00  0.00     0.006 NA
HETATM   19  N9  UNL     1      44.569  35.196   1.590  1.00  0.00    -0.117 N 
ATOM     20  H9  UNL     1      44.016  35.189   0.733  1.00  0.00     0.202 HD
ENDBRANCH  12  14
ENDBRANCH  11  12
BRANCH  11  21
HETATM   21  C4  UNL     1      47.013  33.752  -0.643  1.00  0.00     0.009 A 
HETATM   22  C5  UNL     1      46.031  32.947  -0.138  1.00  0.00     0.015 A 
HETATM   23  C6  UNL     1      45.497  31.902  -0.862  1.00  0.00     0.001 A 
HETATM   24  C7  UNL     1      45.969  31.664  -2.132  1.00  0.00     0.000 A 
HETATM   25  C8  UNL     1      46.959  32.462  -2.666  1.00  0.00     0.001 A 
HETATM   26  C9  UNL     1      47.477  33.496  -1.930  1.00  0.00     0.015 A 
ENDBRANCH  11  21
BRANCH   7  27
HETATM   27  O1  UNL     1      51.108  32.338  -0.120  1.00  0.00    -0.276 OA
ATOM     28  H1  UNL     1      51.634  31.855   0.508  1.00  0.00     0.245 HD
ENDBRANCH   7  27
TORSDOF 4
ENDMDL
