MODEL 1
REMARK VINA RESULT: -6.132754716      0.000      0.000
REMARK  3 active torsions:
REMARK  status: ('A' for Active; 'I' for Inactive)
REMARK    1  A    between atoms: N2_5  and  C4_6 
REMARK    2  A    between atoms: C4_6  and  C5_7 
REMARK    3  A    between atoms: C7_11  and  N4_12 
ROOT
HETATM    1  N1  UNL     1      48.257  33.642  -4.450  1.00  0.00    -0.190 NA
HETATM    2  C1  UNL     1      48.857  33.621  -3.483  1.00  0.00     0.119 C 
HETATM    3  C2  UNL     1      49.615  33.595  -2.251  1.00  0.00     0.129 A 
HETATM    4  C3  UNL     1      49.266  34.379  -1.164  1.00  0.00     0.132 A 
HETATM    5  N2  UNL     1      49.957  34.368  -0.011  1.00  0.00    -0.355 N 
HETATM    6  C10 UNL     1      51.025  33.551   0.049  1.00  0.00     0.108 A 
HETATM    7  C11 UNL     1      51.406  32.751  -1.018  1.00  0.00     0.106 A 
HETATM    8  N8  UNL     1      50.690  32.788  -2.155  1.00  0.00    -0.355 N 
ATOM      9  H8  UNL     1      50.961  32.205  -2.946  1.00  0.00     0.166 HD
ENDROOT
BRANCH   5  10
HETATM   10  C4  UNL     1      49.634  35.160   1.136  1.00  0.00     0.204 C 
BRANCH  10  11
HETATM   11  C5  UNL     1      48.190  35.171   1.447  1.00  0.00     0.102 A 
HETATM   12  N3  UNL     1      47.251  34.401   0.868  1.00  0.00    -0.338 N 
HETATM   13  C6  UNL     1      46.044  34.694   1.413  1.00  0.00     0.122 A 
ATOM     14  H3  UNL     1      47.420  33.710   0.137  1.00  0.00     0.167 HD
HETATM   15  C7  UNL     1      44.767  34.224   1.207  1.00  0.00     0.131 A 
HETATM   16  C9  UNL     1      46.305  35.682   2.356  1.00  0.00     0.138 A 
HETATM   17  N5  UNL     1      43.750  34.717   1.916  1.00  0.00    -0.337 N 
HETATM   18  C8  UNL     1      43.986  35.669   2.826  1.00  0.00     0.183 A 
ATOM     19  H5  UNL     1      42.803  34.371   1.766  1.00  0.00     0.168 HD
HETATM   20  N6  UNL     1      45.231  36.127   3.028  1.00  0.00    -0.337 N 
ATOM     21  H6  UNL     1      45.369  36.855   3.730  1.00  0.00     0.168 HD
HETATM   22  N7  UNL     1      47.619  35.965   2.366  1.00  0.00    -0.329 N 
ATOM     23  H7  UNL     1      48.091  36.649   2.957  1.00  0.00     0.168 HD
BRANCH  15  24
HETATM   24  N4  UNL     1      44.518  33.308   0.335  1.00  0.00    -0.383 N 
ATOM     25  H42 UNL     1      45.154  33.206  -0.455  1.00  0.00     0.157 HD
ATOM     26  H41 UNL     1      43.708  32.694   0.422  1.00  0.00     0.157 HD
ENDBRANCH  15  24
ENDBRANCH  10  11
ENDBRANCH   5  10
TORSDOF 3
ENDMDL
MODEL 2
REMARK VINA RESULT: -5.580444080      1.435      3.326
REMARK  3 active torsions:
REMARK  status: ('A' for Active; 'I' for Inactive)
REMARK    1  A    between atoms: N2_5  and  C4_6 
REMARK    2  A    between atoms: C4_6  and  C5_7 
REMARK    3  A    between atoms: C7_11  and  N4_12 
ROOT
HETATM    1  N1  UNL     1      51.705  34.161  -1.483  1.00  0.00    -0.190 NA
HETATM    2  C1  UNL     1      50.697  33.888  -1.937  1.00  0.00     0.119 C 
HETATM    3  C2  UNL     1      49.413  33.544  -2.509  1.00  0.00     0.129 A 
HETATM    4  C3  UNL     1      48.369  33.075  -1.729  1.00  0.00     0.132 A 
HETATM    5  N2  UNL     1      47.170  32.751  -2.242  1.00  0.00    -0.355 N 
HETATM    6  C10 UNL     1      47.018  32.900  -3.571  1.00  0.00     0.108 A 
HETATM    7  C11 UNL     1      48.039  33.366  -4.385  1.00  0.00     0.106 A 
HETATM    8  N8  UNL     1      49.225  33.681  -3.836  1.00  0.00    -0.355 N 
ATOM      9  H8  UNL     1      49.983  34.025  -4.425  1.00  0.00     0.166 HD
ENDROOT
BRANCH   5  10
HETATM   10  C4  UNL     1      46.064  32.263  -1.475  1.00  0.00     0.204 C 
BRANCH  10  11
HETATM   11  C5  UNL     1      45.729  33.127  -0.324  1.00  0.00     0.102 A 
HETATM   12  N3  UNL     1      46.578  33.942   0.326  1.00  0.00    -0.338 N 
HETATM   13  C6  UNL     1      45.908  34.572   1.324  1.00  0.00     0.122 A 
ATOM     14  H3  UNL     1      47.566  34.067   0.105  1.00  0.00     0.167 HD
HETATM   15  C7  UNL     1      46.270  35.492   2.281  1.00  0.00     0.131 A 
HETATM   16  C9  UNL     1      44.605  34.093   1.239  1.00  0.00     0.138 A 
HETATM   17  N5  UNL     1      45.364  35.942   3.151  1.00  0.00    -0.337 N 
HETATM   18  C8  UNL     1      44.107  35.490   3.083  1.00  0.00     0.183 A 
ATOM     19  H5  UNL     1      45.629  36.625   3.861  1.00  0.00     0.168 HD
HETATM   20  N6  UNL     1      43.754  34.593   2.149  1.00  0.00    -0.337 N 
ATOM     21  H6  UNL     1      42.786  34.272   2.131  1.00  0.00     0.168 HD
HETATM   22  N7  UNL     1      44.509  33.211   0.229  1.00  0.00    -0.329 N 
ATOM     23  H7  UNL     1      43.673  32.705  -0.061  1.00  0.00     0.168 HD
BRANCH  15  24
HETATM   24  N4  UNL     1      47.475  35.940   2.364  1.00  0.00    -0.383 N 
ATOM     25  H42 UNL     1      47.918  36.297   1.518  1.00  0.00     0.157 HD
ATOM     26  H41 UNL     1      47.984  35.942   3.248  1.00  0.00     0.157 HD
ENDBRANCH  15  24
ENDBRANCH  10  11
ENDBRANCH   5  10
TORSDOF 3
ENDMDL
MODEL 3
REMARK VINA RESULT: -5.305002870      2.830      4.706
REMARK  3 active torsions:
REMARK  status: ('A' for Active; 'I' for Inactive)
REMARK    1  A    between atoms: N2_5  and  C4_6 
REMARK    2  A    between atoms: C4_6  and  C5_7 
REMARK    3  A    between atoms: C7_11  and  N4_12 
ROOT
HETATM    1  N1  UNL     1      51.026  38.138   1.606  1.00  0.00    -0.190 NA
HETATM    2  C1  UNL     1      50.915  37.067   1.238  1.00  0.00     0.119 C 
HETATM    3  C2  UNL     1      50.777  35.707   0.764  1.00  0.00     0.129 A 
HETATM    4  C3  UNL     1      50.340  35.422  -0.518  1.00  0.00     0.132 A 
HETATM    5  N2  UNL     1      50.205  34.166  -0.976  1.00  0.00    -0.355 N 
HETATM    6  C10 UNL     1      50.516  33.173  -0.123  1.00  0.00     0.108 A 
HETATM    7  C11 UNL     1      50.957  33.416   1.169  1.00  0.00     0.106 A 
HETATM    8  N8  UNL     1      51.080  34.687   1.591  1.00  0.00    -0.355 N 
ATOM      9  H8  UNL     1      51.403  34.879   2.539  1.00  0.00     0.166 HD
ENDROOT
BRANCH   5  10
HETATM   10  C4  UNL     1      49.757  33.825  -2.292  1.00  0.00     0.204 C 
BRANCH  10  11
HETATM   11  C5  UNL     1      48.369  33.321  -2.322  1.00  0.00     0.102 A 
HETATM   12  N3  UNL     1      47.609  33.034  -1.249  1.00  0.00    -0.338 N 
HETATM   13  C6  UNL     1      46.397  32.597  -1.672  1.00  0.00     0.122 A 
ATOM     14  H3  UNL     1      47.898  33.130  -0.276  1.00  0.00     0.167 HD
HETATM   15  C7  UNL     1      45.257  32.177  -1.026  1.00  0.00     0.131 A 
HETATM   16  C9  UNL     1      46.464  32.638  -3.061  1.00  0.00     0.138 A 
HETATM   17  N5  UNL     1      44.190  31.797  -1.730  1.00  0.00    -0.337 N 
HETATM   18  C8  UNL     1      44.240  31.830  -3.067  1.00  0.00     0.183 A 
ATOM     19  H5  UNL     1      43.344  31.486  -1.254  1.00  0.00     0.168 HD
HETATM   20  N6  UNL     1      45.352  32.239  -3.698  1.00  0.00    -0.337 N 
ATOM     21  H6  UNL     1      45.351  32.248  -4.718  1.00  0.00     0.168 HD
HETATM   22  N7  UNL     1      47.675  33.081  -3.445  1.00  0.00    -0.329 N 
ATOM     23  H7  UNL     1      48.001  33.209  -4.402  1.00  0.00     0.168 HD
BRANCH  15  24
HETATM   24  N4  UNL     1      45.188  32.138   0.260  1.00  0.00    -0.383 N 
ATOM     25  H42 UNL     1      46.055  32.183   0.794  1.00  0.00     0.157 HD
ATOM     26  H41 UNL     1      44.293  32.064   0.745  1.00  0.00     0.157 HD
ENDBRANCH  15  24
ENDBRANCH  10  11
ENDBRANCH   5  10
TORSDOF 3
ENDMDL
MODEL 4
REMARK VINA RESULT: -4.934796931      1.642      2.886
REMARK  3 active torsions:
REMARK  status: ('A' for Active; 'I' for Inactive)
REMARK    1  A    between atoms: N2_5  and  C4_6 
REMARK    2  A    between atoms: C4_6  and  C5_7 
REMARK    3  A    between atoms: C7_11  and  N4_12 
ROOT
HETATM    1  N1  UNL     1      53.179  35.549  -2.603  1.00  0.00    -0.190 NA
HETATM    2  C1  UNL     1      52.409  34.807  -2.212  1.00  0.00     0.119 C 
HETATM    3  C2  UNL     1      51.427  33.865  -1.721  1.00  0.00     0.129 A 
HETATM    4  C3  UNL     1      50.088  33.962  -2.063  1.00  0.00     0.132 A 
HETATM    5  N2  UNL     1      49.162  33.096  -1.617  1.00  0.00    -0.355 N 
HETATM    6  C10 UNL     1      49.593  32.110  -0.808  1.00  0.00     0.108 A 
HETATM    7  C11 UNL     1      50.924  31.980  -0.443  1.00  0.00     0.106 A 
HETATM    8  N8  UNL     1      51.822  32.865  -0.909  1.00  0.00    -0.355 N 
ATOM      9  H8  UNL     1      52.804  32.779  -0.648  1.00  0.00     0.166 HD
ENDROOT
BRANCH   5  10
HETATM   10  C4  UNL     1      47.770  33.158  -1.943  1.00  0.00     0.204 C 
BRANCH  10  11
HETATM   11  C5  UNL     1      46.927  33.595  -0.812  1.00  0.00     0.102 A 
HETATM   12  N3  UNL     1      47.297  34.436   0.171  1.00  0.00    -0.338 N 
HETATM   13  C6  UNL     1      46.257  34.599   1.027  1.00  0.00     0.122 A 
ATOM     14  H3  UNL     1      48.211  34.879   0.259  1.00  0.00     0.167 HD
HETATM   15  C7  UNL     1      46.077  35.328   2.179  1.00  0.00     0.131 A 
HETATM   16  C9  UNL     1      45.235  33.811   0.505  1.00  0.00     0.138 A 
HETATM   17  N5  UNL     1      44.908  35.289   2.820  1.00  0.00    -0.337 N 
HETATM   18  C8  UNL     1      43.916  34.535   2.331  1.00  0.00     0.183 A 
ATOM     19  H5  UNL     1      44.771  35.829   3.675  1.00  0.00     0.168 HD
HETATM   20  N6  UNL     1      44.091  33.823   1.207  1.00  0.00    -0.337 N 
ATOM     21  H6  UNL     1      43.311  33.260   0.868  1.00  0.00     0.168 HD
HETATM   22  N7  UNL     1      45.658  33.203  -0.617  1.00  0.00    -0.329 N 
ATOM     23  H7  UNL     1      45.120  32.568  -1.206  1.00  0.00     0.168 HD
BRANCH  15  24
HETATM   24  N4  UNL     1      47.018  36.061   2.667  1.00  0.00    -0.383 N 
ATOM     25  H42 UNL     1      46.978  37.068   2.513  1.00  0.00     0.157 HD
ATOM     26  H41 UNL     1      47.791  35.655   3.195  1.00  0.00     0.157 HD
ENDBRANCH  15  24
ENDBRANCH  10  11
ENDBRANCH   5  10
TORSDOF 3
ENDMDL
MODEL 5
REMARK VINA RESULT: -4.879552593      0.855      2.079
REMARK  3 active torsions:
REMARK  status: ('A' for Active; 'I' for Inactive)
REMARK    1  A    between atoms: N2_5  and  C4_6 
REMARK    2  A    between atoms: C4_6  and  C5_7 
REMARK    3  A    between atoms: C7_11  and  N4_12 
ROOT
HETATM    1  N1  UNL     1      52.373  30.387  -0.801  1.00  0.00    -0.190 NA
HETATM    2  C1  UNL     1      51.750  31.332  -0.930  1.00  0.00     0.119 C 
HETATM    3  C2  UNL     1      50.962  32.535  -1.088  1.00  0.00     0.129 A 
HETATM    4  C3  UNL     1      50.641  33.344  -0.011  1.00  0.00     0.132 A 
HETATM    5  N2  UNL     1      49.911  34.464  -0.138  1.00  0.00    -0.355 N 
HETATM    6  C10 UNL     1      49.492  34.778  -1.378  1.00  0.00     0.108 A 
HETATM    7  C11 UNL     1      49.792  33.994  -2.482  1.00  0.00     0.106 A 
HETATM    8  N8  UNL     1      50.526  32.880  -2.315  1.00  0.00    -0.355 N 
ATOM      9  H8  UNL     1      50.753  32.295  -3.119  1.00  0.00     0.166 HD
ENDROOT
BRANCH   5  10
HETATM   10  C4  UNL     1      49.555  35.329   0.945  1.00  0.00     0.204 C 
BRANCH  10  11
HETATM   11  C5  UNL     1      48.128  35.243   1.314  1.00  0.00     0.102 A 
HETATM   12  N3  UNL     1      47.208  34.450   0.736  1.00  0.00    -0.338 N 
HETATM   13  C6  UNL     1      46.011  34.647   1.342  1.00  0.00     0.122 A 
ATOM     14  H3  UNL     1      47.383  33.804  -0.035  1.00  0.00     0.167 HD
HETATM   15  C7  UNL     1      44.754  34.117   1.164  1.00  0.00     0.131 A 
HETATM   16  C9  UNL     1      46.258  35.604   2.322  1.00  0.00     0.138 A 
HETATM   17  N5  UNL     1      43.744  34.517   1.937  1.00  0.00    -0.337 N 
HETATM   18  C8  UNL     1      43.965  35.437   2.883  1.00  0.00     0.183 A 
ATOM     19  H5  UNL     1      42.811  34.126   1.808  1.00  0.00     0.168 HD
HETATM   20  N6  UNL     1      45.191  35.955   3.057  1.00  0.00    -0.337 N 
ATOM     21  H6  UNL     1      45.319  36.655   3.788  1.00  0.00     0.168 HD
HETATM   22  N7  UNL     1      47.554  35.959   2.294  1.00  0.00    -0.329 N 
ATOM     23  H7  UNL     1      48.012  36.641   2.898  1.00  0.00     0.168 HD
BRANCH  15  24
HETATM   24  N4  UNL     1      44.519  33.230   0.259  1.00  0.00    -0.383 N 
ATOM     25  H42 UNL     1      44.195  32.310   0.555  1.00  0.00     0.157 HD
ATOM     26  H41 UNL     1      44.651  33.431  -0.732  1.00  0.00     0.157 HD
ENDBRANCH  15  24
ENDBRANCH  10  11
ENDBRANCH   5  10
TORSDOF 3
ENDMDL
