MODEL 1
REMARK VINA RESULT: -5.585996857      0.000      0.000
REMARK  5 active torsions:
REMARK  status: ('A' for Active; 'I' for Inactive)
REMARK    1  A    between atoms: N2_3  and  C2_5 
REMARK    2  A    between atoms: C2_5  and  N3_7 
REMARK    3  A    between atoms: N3_7  and  N4_9 
REMARK       I    between atoms: N4_9  and  C3_11 
REMARK    4  A    between atoms: C3_11  and  C4_13 
REMARK    5  A    between atoms: C4_13  and  N5_14 
ROOT
HETATM    1  N1  UNL     1      45.804  32.429  -0.747  1.00  0.00    -0.172 NA
HETATM    2  C1  UNL     1      45.166  33.071  -0.007  1.00  0.00     0.184 C 
HETATM    3  N2  UNL     1      44.390  33.844   0.874  1.00  0.00    -0.269 N 
ATOM      4  H2  UNL     1      43.378  33.723   0.891  1.00  0.00     0.180 HD
ENDROOT
BRANCH   3   5
HETATM    5  C2  UNL     1      44.998  34.796   1.746  1.00  0.00     0.199 C 
HETATM    6  S1  UNL     1      44.392  34.995   3.242  1.00  0.00    -0.038 SA
BRANCH   5   7
HETATM    7  N3  UNL     1      46.114  35.554   1.309  1.00  0.00    -0.273 N 
ATOM      8  H3  UNL     1      45.939  36.373   0.729  1.00  0.00     0.189 HD
BRANCH   7   9
HETATM    9  N4  UNL     1      47.418  35.251   1.619  1.00  0.00    -0.266 N 
HETATM   10  C3  UNL     1      48.485  35.359   0.650  1.00  0.00     0.264 C 
HETATM   11  O1  UNL     1      48.199  35.743  -0.506  1.00  0.00    -0.270 OA
ATOM     12  H4  UNL     1      47.640  34.940   2.564  1.00  0.00     0.190 HD
BRANCH  10  13
HETATM   13  C4  UNL     1      49.858  35.026   1.021  1.00  0.00     0.377 C 
BRANCH  13  14
HETATM   14  N5  UNL     1      50.082  33.633   1.011  1.00  0.00     0.107 N 
HETATM   15  C5  UNL     1      51.395  33.294   0.622  1.00  0.00     0.284 C 
HETATM   16  C6  UNL     1      51.476  33.387  -0.919  1.00  0.00     0.105 C 
HETATM   17  S2  UNL     1      49.840  32.715  -1.344  1.00  0.00    -0.138 SA
HETATM   18  C7  UNL     1      49.114  32.834   0.340  1.00  0.00     0.346 C 
ENDBRANCH  13  14
ENDBRANCH  10  13
ENDBRANCH   7   9
ENDBRANCH   5   7
ENDBRANCH   3   5
TORSDOF 5
ENDMDL
MODEL 2
REMARK VINA RESULT: -5.504943643      1.257      1.390
REMARK  5 active torsions:
REMARK  status: ('A' for Active; 'I' for Inactive)
REMARK    1  A    between atoms: N2_3  and  C2_5 
REMARK    2  A    between atoms: C2_5  and  N3_7 
REMARK    3  A    between atoms: N3_7  and  N4_9 
REMARK       I    between atoms: N4_9  and  C3_11 
REMARK    4  A    between atoms: C3_11  and  C4_13 
REMARK    5  A    between atoms: C4_13  and  N5_14 
ROOT
HETATM    1  N1  UNL     1      45.545  32.627  -0.599  1.00  0.00    -0.172 NA
HETATM    2  C1  UNL     1      45.107  33.291   0.257  1.00  0.00     0.184 C 
HETATM    3  N2  UNL     1      44.569  34.092   1.280  1.00  0.00    -0.269 N 
ATOM      4  H2  UNL     1      43.619  33.917   1.607  1.00  0.00     0.180 HD
ENDROOT
BRANCH   3   5
HETATM    5  C2  UNL     1      45.332  35.145   1.867  1.00  0.00     0.199 C 
HETATM    6  S1  UNL     1      44.556  36.448   2.454  1.00  0.00    -0.038 SA
BRANCH   5   7
HETATM    7  N3  UNL     1      46.745  35.049   1.938  1.00  0.00    -0.273 N 
ATOM      8  H3  UNL     1      47.174  34.993   2.861  1.00  0.00     0.189 HD
BRANCH   7   9
HETATM    9  N4  UNL     1      47.571  35.027   0.841  1.00  0.00    -0.266 N 
HETATM   10  C3  UNL     1      48.900  35.592   0.866  1.00  0.00     0.264 C 
HETATM   11  O1  UNL     1      49.302  36.116   1.929  1.00  0.00    -0.270 OA
ATOM     12  H4  UNL     1      47.234  34.597  -0.021  1.00  0.00     0.190 HD
BRANCH  10  13
HETATM   13  C4  UNL     1      49.745  35.548  -0.325  1.00  0.00     0.377 C 
BRANCH  13  14
HETATM   14  N5  UNL     1      50.671  34.485  -0.275  1.00  0.00     0.107 N 
HETATM   15  C5  UNL     1      51.160  34.125  -1.547  1.00  0.00     0.284 C 
HETATM   16  C6  UNL     1      50.091  33.251  -2.242  1.00  0.00     0.105 C 
HETATM   17  S2  UNL     1      49.521  32.285  -0.810  1.00  0.00    -0.138 SA
HETATM   18  C7  UNL     1      50.291  33.342   0.483  1.00  0.00     0.346 C 
ENDBRANCH  13  14
ENDBRANCH  10  13
ENDBRANCH   7   9
ENDBRANCH   5   7
ENDBRANCH   3   5
TORSDOF 5
ENDMDL
MODEL 3
REMARK VINA RESULT: -5.373653082      1.800      2.454
REMARK  5 active torsions:
REMARK  status: ('A' for Active; 'I' for Inactive)
REMARK    1  A    between atoms: N2_3  and  C2_5 
REMARK    2  A    between atoms: C2_5  and  N3_7 
REMARK    3  A    between atoms: N3_7  and  N4_9 
REMARK       I    between atoms: N4_9  and  C3_11 
REMARK    4  A    between atoms: C3_11  and  C4_13 
REMARK    5  A    between atoms: C4_13  and  N5_14 
ROOT
HETATM    1  N1  UNL     1      44.294  36.892   3.147  1.00  0.00    -0.172 NA
HETATM    2  C1  UNL     1      44.344  35.941   2.469  1.00  0.00     0.184 C 
HETATM    3  N2  UNL     1      44.400  34.791   1.664  1.00  0.00    -0.269 N 
ATOM      4  H2  UNL     1      43.617  34.138   1.665  1.00  0.00     0.180 HD
ENDROOT
BRANCH   3   5
HETATM    5  C2  UNL     1      45.535  34.523   0.842  1.00  0.00     0.199 C 
HETATM    6  S1  UNL     1      45.554  33.172  -0.063  1.00  0.00    -0.038 SA
BRANCH   5   7
HETATM    7  N3  UNL     1      46.628  35.427   0.818  1.00  0.00    -0.273 N 
ATOM      8  H3  UNL     1      46.542  36.294   1.346  1.00  0.00     0.189 HD
BRANCH   7   9
HETATM    9  N4  UNL     1      47.794  35.206   0.127  1.00  0.00    -0.266 N 
HETATM   10  C3  UNL     1      49.088  35.558   0.667  1.00  0.00     0.264 C 
HETATM   11  O1  UNL     1      49.134  36.080   1.803  1.00  0.00    -0.270 OA
ATOM     12  H4  UNL     1      47.746  34.780  -0.799  1.00  0.00     0.190 HD
BRANCH  10  13
HETATM   13  C4  UNL     1      50.303  35.307  -0.103  1.00  0.00     0.377 C 
BRANCH  13  14
HETATM   14  N5  UNL     1      50.847  34.034   0.170  1.00  0.00     0.107 N 
HETATM   15  C5  UNL     1      51.490  33.463  -0.947  1.00  0.00     0.284 C 
HETATM   16  C6  UNL     1      50.403  32.873  -1.875  1.00  0.00     0.105 C 
HETATM   17  S2  UNL     1      49.267  32.209  -0.619  1.00  0.00    -0.138 SA
HETATM   18  C7  UNL     1      49.991  33.100   0.817  1.00  0.00     0.346 C 
ENDBRANCH  13  14
ENDBRANCH  10  13
ENDBRANCH   7   9
ENDBRANCH   5   7
ENDBRANCH   3   5
TORSDOF 5
ENDMDL
MODEL 4
REMARK VINA RESULT: -5.267610494      1.797      5.247
REMARK  5 active torsions:
REMARK  status: ('A' for Active; 'I' for Inactive)
REMARK    1  A    between atoms: N2_3  and  C2_5 
REMARK    2  A    between atoms: C2_5  and  N3_7 
REMARK    3  A    between atoms: N3_7  and  N4_9 
REMARK       I    between atoms: N4_9  and  C3_11 
REMARK    4  A    between atoms: C3_11  and  C4_13 
REMARK    5  A    between atoms: C4_13  and  N5_14 
ROOT
HETATM    1  N1  UNL     1      48.028  33.622  -2.997  1.00  0.00    -0.172 NA
HETATM    2  C1  UNL     1      49.028  33.844  -2.433  1.00  0.00     0.184 C 
HETATM    3  N2  UNL     1      50.236  34.112  -1.767  1.00  0.00    -0.269 N 
ATOM      4  H2  UNL     1      50.793  34.920  -2.044  1.00  0.00     0.180 HD
ENDROOT
BRANCH   3   5
HETATM    5  C2  UNL     1      50.694  33.272  -0.709  1.00  0.00     0.199 C 
HETATM    6  S1  UNL     1      51.246  31.784  -1.066  1.00  0.00    -0.038 SA
BRANCH   5   7
HETATM    7  N3  UNL     1      50.670  33.734   0.631  1.00  0.00    -0.273 N 
ATOM      8  H3  UNL     1      51.559  33.958   1.076  1.00  0.00     0.189 HD
BRANCH   7   9
HETATM    9  N4  UNL     1      49.522  33.899   1.367  1.00  0.00    -0.266 N 
HETATM   10  C3  UNL     1      48.731  35.107   1.300  1.00  0.00     0.264 C 
HETATM   11  O1  UNL     1      49.113  36.025   0.541  1.00  0.00    -0.270 OA
ATOM     12  H4  UNL     1      49.218  33.145   1.983  1.00  0.00     0.190 HD
BRANCH  10  13
HETATM   13  C4  UNL     1      47.517  35.241   2.101  1.00  0.00     0.377 C 
BRANCH  13  14
HETATM   14  N5  UNL     1      46.407  35.619   1.317  1.00  0.00     0.107 N 
HETATM   15  C5  UNL     1      45.431  36.321   2.053  1.00  0.00     0.284 C 
HETATM   16  C6  UNL     1      44.601  35.291   2.853  1.00  0.00     0.105 C 
HETATM   17  S2  UNL     1      44.507  33.960   1.617  1.00  0.00    -0.138 SA
HETATM   18  C7  UNL     1      45.823  34.605   0.507  1.00  0.00     0.346 C 
ENDBRANCH  13  14
ENDBRANCH  10  13
ENDBRANCH   7   9
ENDBRANCH   5   7
ENDBRANCH   3   5
TORSDOF 5
ENDMDL
MODEL 5
REMARK VINA RESULT: -4.950922316      1.784      5.399
REMARK  5 active torsions:
REMARK  status: ('A' for Active; 'I' for Inactive)
REMARK    1  A    between atoms: N2_3  and  C2_5 
REMARK    2  A    between atoms: C2_5  and  N3_7 
REMARK    3  A    between atoms: N3_7  and  N4_9 
REMARK       I    between atoms: N4_9  and  C3_11 
REMARK    4  A    between atoms: C3_11  and  C4_13 
REMARK    5  A    between atoms: C4_13  and  N5_14 
ROOT
HETATM    1  N1  UNL     1      51.782  34.692  -1.646  1.00  0.00    -0.172 NA
HETATM    2  C1  UNL     1      51.059  33.773  -1.655  1.00  0.00     0.184 C 
HETATM    3  N2  UNL     1      50.186  32.672  -1.677  1.00  0.00    -0.269 N 
ATOM      4  H2  UNL     1      50.192  32.043  -2.479  1.00  0.00     0.180 HD
ENDROOT
BRANCH   3   5
HETATM    5  C2  UNL     1      49.292  32.421  -0.594  1.00  0.00     0.199 C 
HETATM    6  S1  UNL     1      48.002  31.461  -0.841  1.00  0.00    -0.038 SA
BRANCH   5   7
HETATM    7  N3  UNL     1      49.531  33.000   0.679  1.00  0.00    -0.273 N 
ATOM      8  H3  UNL     1      50.480  32.963   1.050  1.00  0.00     0.189 HD
BRANCH   7   9
HETATM    9  N4  UNL     1      48.564  33.608   1.442  1.00  0.00    -0.266 N 
HETATM   10  C3  UNL     1      48.220  35.003   1.280  1.00  0.00     0.264 C 
HETATM   11  O1  UNL     1      48.829  35.668   0.413  1.00  0.00    -0.270 OA
ATOM     12  H4  UNL     1      48.073  33.058   2.146  1.00  0.00     0.190 HD
BRANCH  10  13
HETATM   13  C4  UNL     1      47.186  35.610   2.115  1.00  0.00     0.377 C 
BRANCH  13  14
HETATM   14  N5  UNL     1      46.000  35.851   1.391  1.00  0.00     0.107 N 
HETATM   15  C5  UNL     1      45.070  36.631   2.109  1.00  0.00     0.284 C 
HETATM   16  C6  UNL     1      44.348  35.707   3.117  1.00  0.00     0.105 C 
HETATM   17  S2  UNL     1      44.189  34.213   2.091  1.00  0.00    -0.138 SA
HETATM   18  C7  UNL     1      45.380  34.722   0.786  1.00  0.00     0.346 C 
ENDBRANCH  13  14
ENDBRANCH  10  13
ENDBRANCH   7   9
ENDBRANCH   5   7
ENDBRANCH   3   5
TORSDOF 5
ENDMDL
