MODEL 1
REMARK VINA RESULT: -8.061131233      0.000      0.000
REMARK  3 active torsions:
REMARK  status: ('A' for Active; 'I' for Inactive)
REMARK    1  A    between atoms: C2_3  and  N2_4 
REMARK    2  A    between atoms: C2_3  and  S1_9 
REMARK       I    between atoms: N2_4  and  C3_6 
REMARK    3  A    between atoms: S1_9  and  C4_12 
ROOT
HETATM    1  N1  UNL     1      50.867  32.247  -0.997  1.00  0.00    -0.194 NA
HETATM    2  C1  UNL     1      49.752  32.579  -0.888  1.00  0.00     0.101 C 
HETATM    3  C2  UNL     1      48.354  32.991  -0.766  1.00  0.00     0.321 C 
ENDROOT
BRANCH   3   4
HETATM    4  N2  UNL     1      47.683  33.028  -2.056  1.00  0.00    -0.316 N 
HETATM    5  C3  UNL     1      46.613  32.178  -2.392  1.00  0.00     0.330 C 
HETATM    6  N3  UNL     1      46.001  32.256  -3.656  1.00  0.00    -0.040 NA
HETATM    7  O1  UNL     1      46.196  31.343  -1.565  1.00  0.00    -0.251 OA
ATOM      8  H2  UNL     1      48.004  33.702  -2.750  1.00  0.00     0.166 HD
ENDBRANCH   3   4
BRANCH   3   9
HETATM    9  S1  UNL     1      48.175  34.455   0.162  1.00  0.00     0.210 S 
HETATM   10  O2  UNL     1      48.506  35.623  -0.723  1.00  0.00    -0.219 OA
HETATM   11  O3  UNL     1      49.243  34.447   1.249  1.00  0.00    -0.219 OA
BRANCH   9  12
HETATM   12  C4  UNL     1      46.661  34.722   0.903  1.00  0.00     0.062 A 
HETATM   13  C5  UNL     1      46.572  35.726   1.849  1.00  0.00     0.023 A 
HETATM   14  C6  UNL     1      45.394  36.012   2.497  1.00  0.00     0.002 A 
HETATM   15  C7  UNL     1      44.284  35.281   2.193  1.00  0.00     0.000 A 
HETATM   16  C8  UNL     1      44.324  34.268   1.254  1.00  0.00     0.002 A 
HETATM   17  C9  UNL     1      45.503  34.002   0.623  1.00  0.00     0.023 A 
ENDBRANCH   9  12
ENDBRANCH   3   9
TORSDOF 3
ENDMDL
MODEL 2
REMARK VINA RESULT: -8.027694586      0.202      1.197
REMARK  3 active torsions:
REMARK  status: ('A' for Active; 'I' for Inactive)
REMARK    1  A    between atoms: C2_3  and  N2_4 
REMARK    2  A    between atoms: C2_3  and  S1_9 
REMARK       I    between atoms: N2_4  and  C3_6 
REMARK    3  A    between atoms: S1_9  and  C4_12 
ROOT
HETATM    1  N1  UNL     1      50.756  32.242  -0.844  1.00  0.00    -0.194 NA
HETATM    2  C1  UNL     1      49.648  32.607  -0.774  1.00  0.00     0.101 C 
HETATM    3  C2  UNL     1      48.259  33.060  -0.701  1.00  0.00     0.321 C 
ENDROOT
BRANCH   3   4
HETATM    4  N2  UNL     1      47.631  33.100  -2.013  1.00  0.00    -0.316 N 
HETATM    5  C3  UNL     1      46.617  32.209  -2.409  1.00  0.00     0.330 C 
HETATM    6  N3  UNL     1      46.044  32.293  -3.691  1.00  0.00    -0.040 NA
HETATM    7  O1  UNL     1      46.214  31.332  -1.620  1.00  0.00    -0.251 OA
ATOM      8  H2  UNL     1      47.941  33.809  -2.678  1.00  0.00     0.166 HD
ENDBRANCH   3   4
BRANCH   3   9
HETATM    9  S1  UNL     1      48.093  34.539   0.204  1.00  0.00     0.210 S 
HETATM   10  O2  UNL     1      48.466  35.689  -0.690  1.00  0.00    -0.219 OA
HETATM   11  O3  UNL     1      49.139  34.523   1.312  1.00  0.00    -0.219 OA
BRANCH   9  12
HETATM   12  C4  UNL     1      46.571  34.847   0.910  1.00  0.00     0.062 A 
HETATM   13  C5  UNL     1      45.549  33.949   0.662  1.00  0.00     0.023 A 
HETATM   14  C6  UNL     1      44.291  34.116   1.190  1.00  0.00     0.002 A 
HETATM   15  C7  UNL     1      44.049  35.201   1.980  1.00  0.00     0.000 A 
HETATM   16  C8  UNL     1      45.038  36.126   2.256  1.00  0.00     0.002 A 
HETATM   17  C9  UNL     1      46.279  35.940   1.722  1.00  0.00     0.023 A 
ENDBRANCH   9  12
ENDBRANCH   3   9
TORSDOF 3
ENDMDL
MODEL 3
REMARK VINA RESULT: -7.489984697      1.663      1.775
REMARK  3 active torsions:
REMARK  status: ('A' for Active; 'I' for Inactive)
REMARK    1  A    between atoms: C2_3  and  N2_4 
REMARK    2  A    between atoms: C2_3  and  S1_9 
REMARK       I    between atoms: N2_4  and  C3_6 
REMARK    3  A    between atoms: S1_9  and  C4_12 
ROOT
HETATM    1  N1  UNL     1      51.578  33.858  -0.822  1.00  0.00    -0.194 NA
HETATM    2  C1  UNL     1      50.662  33.798  -0.098  1.00  0.00     0.101 C 
HETATM    3  C2  UNL     1      49.514  33.708   0.803  1.00  0.00     0.321 C 
ENDROOT
BRANCH   3   4
HETATM    4  N2  UNL     1      48.760  32.480   0.603  1.00  0.00    -0.316 N 
HETATM    5  C3  UNL     1      48.276  32.070  -0.653  1.00  0.00     0.330 C 
HETATM    6  N3  UNL     1      47.552  30.873  -0.791  1.00  0.00    -0.040 NA
HETATM    7  O1  UNL     1      48.488  32.771  -1.663  1.00  0.00    -0.251 OA
ATOM      8  H2  UNL     1      48.573  31.888   1.411  1.00  0.00     0.166 HD
ENDBRANCH   3   4
BRANCH   3   9
HETATM    9  S1  UNL     1      48.533  35.148   0.770  1.00  0.00     0.210 S 
HETATM   10  O2  UNL     1      48.607  35.743  -0.608  1.00  0.00    -0.219 OA
HETATM   11  O3  UNL     1      49.183  36.170   1.694  1.00  0.00    -0.219 OA
BRANCH   9  12
HETATM   12  C4  UNL     1      46.897  34.981   1.223  1.00  0.00     0.062 A 
HETATM   13  C5  UNL     1      46.483  35.597   2.390  1.00  0.00     0.023 A 
HETATM   14  C6  UNL     1      45.185  35.516   2.833  1.00  0.00     0.002 A 
HETATM   15  C7  UNL     1      44.283  34.808   2.096  1.00  0.00     0.000 A 
HETATM   16  C8  UNL     1      44.649  34.175   0.923  1.00  0.00     0.002 A 
HETATM   17  C9  UNL     1      45.943  34.269   0.503  1.00  0.00     0.023 A 
ENDBRANCH   9  12
ENDBRANCH   3   9
TORSDOF 3
ENDMDL
MODEL 4
REMARK VINA RESULT: -7.028519620      1.591      3.621
REMARK  3 active torsions:
REMARK  status: ('A' for Active; 'I' for Inactive)
REMARK    1  A    between atoms: C2_3  and  N2_4 
REMARK    2  A    between atoms: C2_3  and  S1_9 
REMARK       I    between atoms: N2_4  and  C3_6 
REMARK    3  A    between atoms: S1_9  and  C4_12 
ROOT
HETATM    1  N1  UNL     1      47.307  33.328  -4.689  1.00  0.00    -0.194 NA
HETATM    2  C1  UNL     1      47.691  33.535  -3.605  1.00  0.00     0.101 C 
HETATM    3  C2  UNL     1      48.187  33.793  -2.253  1.00  0.00     0.321 C 
ENDROOT
BRANCH   3   4
HETATM    4  N2  UNL     1      49.627  33.611  -2.158  1.00  0.00    -0.316 N 
HETATM    5  C3  UNL     1      50.457  34.435  -1.377  1.00  0.00     0.330 C 
HETATM    6  N3  UNL     1      51.845  34.215  -1.321  1.00  0.00    -0.040 NA
HETATM    7  O1  UNL     1      49.965  35.375  -0.721  1.00  0.00    -0.251 OA
ATOM      8  H2  UNL     1      50.056  32.850  -2.684  1.00  0.00     0.166 HD
ENDBRANCH   3   4
BRANCH   3   9
HETATM    9  S1  UNL     1      47.288  32.921  -1.042  1.00  0.00     0.210 S 
HETATM   10  O2  UNL     1      48.234  32.017  -0.304  1.00  0.00    -0.219 OA
HETATM   11  O3  UNL     1      46.315  31.997  -1.765  1.00  0.00    -0.219 OA
BRANCH   9  12
HETATM   12  C4  UNL     1      46.405  33.850   0.084  1.00  0.00     0.062 A 
HETATM   13  C5  UNL     1      45.128  33.429   0.411  1.00  0.00     0.023 A 
HETATM   14  C6  UNL     1      44.344  34.115   1.308  1.00  0.00     0.002 A 
HETATM   15  C7  UNL     1      44.846  35.241   1.890  1.00  0.00     0.000 A 
HETATM   16  C8  UNL     1      46.115  35.700   1.596  1.00  0.00     0.002 A 
HETATM   17  C9  UNL     1      46.876  35.004   0.703  1.00  0.00     0.023 A 
ENDBRANCH   9  12
ENDBRANCH   3   9
TORSDOF 3
ENDMDL
MODEL 5
REMARK VINA RESULT: -6.904246164      2.313      3.365
REMARK  3 active torsions:
REMARK  status: ('A' for Active; 'I' for Inactive)
REMARK    1  A    between atoms: C2_3  and  N2_4 
REMARK    2  A    between atoms: C2_3  and  S1_9 
REMARK       I    between atoms: N2_4  and  C3_6 
REMARK    3  A    between atoms: S1_9  and  C4_12 
ROOT
HETATM    1  N1  UNL     1      50.932  36.459   0.824  1.00  0.00    -0.194 NA
HETATM    2  C1  UNL     1      50.255  35.507   0.840  1.00  0.00     0.101 C 
HETATM    3  C2  UNL     1      49.420  34.306   0.860  1.00  0.00     0.321 C 
ENDROOT
BRANCH   3   4
HETATM    4  N2  UNL     1      50.183  33.109   0.538  1.00  0.00    -0.316 N 
HETATM    5  C3  UNL     1      50.964  32.983  -0.625  1.00  0.00     0.330 C 
HETATM    6  N3  UNL     1      51.681  31.802  -0.887  1.00  0.00    -0.040 NA
HETATM    7  O1  UNL     1      51.027  33.925  -1.439  1.00  0.00    -0.251 OA
ATOM      8  H2  UNL     1      50.149  32.323   1.188  1.00  0.00     0.166 HD
ENDBRANCH   3   4
BRANCH   3   9
HETATM    9  S1  UNL     1      47.972  34.492  -0.090  1.00  0.00     0.210 S 
HETATM   10  O2  UNL     1      47.780  33.251  -0.915  1.00  0.00    -0.219 OA
HETATM   11  O3  UNL     1      48.217  35.616  -1.090  1.00  0.00    -0.219 OA
BRANCH   9  12
HETATM   12  C4  UNL     1      46.530  34.834   0.756  1.00  0.00     0.062 A 
HETATM   13  C5  UNL     1      45.478  33.946   0.626  1.00  0.00     0.023 A 
HETATM   14  C6  UNL     1      44.280  34.140   1.270  1.00  0.00     0.002 A 
HETATM   15  C7  UNL     1      44.130  35.242   2.060  1.00  0.00     0.000 A 
HETATM   16  C8  UNL     1      45.153  36.157   2.221  1.00  0.00     0.002 A 
HETATM   17  C9  UNL     1      46.333  35.944   1.572  1.00  0.00     0.023 A 
ENDBRANCH   9  12
ENDBRANCH   3   9
TORSDOF 3
ENDMDL
