MODEL 1
REMARK VINA RESULT: -6.978584224      0.000      0.000
REMARK  5 active torsions:
REMARK  status: ('A' for Active; 'I' for Inactive)
REMARK    1  A    between atoms: C3_3  and  C4_4 
REMARK    2  A    between atoms: C3_3  and  C7_9 
REMARK       I    between atoms: C4_4  and  N1_6 
REMARK    3  A    between atoms: C7_9  and  C8_15 
REMARK    4  A    between atoms: N2_10  and  N3_12 
REMARK    5  A    between atoms: C13_20  and  N4_21 
ROOT
HETATM    1  C1  UNL     1      50.917  31.888  -0.812  1.00  0.00     0.013 C 
HETATM    2  C2  UNL     1      49.823  32.404  -0.909  1.00  0.00    -0.097 C 
HETATM    3  C3  UNL     1      48.500  33.043  -1.005  1.00  0.00     0.209 C 
ENDROOT
BRANCH   3   4
HETATM    4  C4  UNL     1      48.369  33.504  -2.398  1.00  0.00     0.240 C 
HETATM    5  O1  UNL     1      49.147  34.346  -2.860  1.00  0.00    -0.272 OA
HETATM    6  N1  UNL     1      47.332  32.968  -3.218  1.00  0.00    -0.359 N 
HETATM    7  C5  UNL     1      46.382  31.983  -2.756  1.00  0.00     0.152 C 
HETATM    8  C6  UNL     1      47.198  33.415  -4.591  1.00  0.00     0.152 C 
ENDBRANCH   3   4
BRANCH   3   9
HETATM    9  C7  UNL     1      48.279  34.067   0.021  1.00  0.00     0.076 C 
HETATM   10  N2  UNL     1      49.277  34.611   0.596  1.00  0.00    -0.307 N 
ATOM     11  H2  UNL     1      50.202  34.295   0.302  1.00  0.00     0.186 HD
BRANCH  10  12
HETATM   12  N3  UNL     1      49.237  35.585   1.575  1.00  0.00    -0.345 N 
ATOM     13  H32 UNL     1      49.895  36.355   1.456  1.00  0.00     0.176 HD
ATOM     14  H31 UNL     1      48.624  35.606   2.390  1.00  0.00     0.176 HD
ENDBRANCH  10  12
BRANCH   9  15
HETATM   15  C8  UNL     1      46.917  34.450   0.381  1.00  0.00     0.059 C 
HETATM   16  C9  UNL     1      45.900  33.627  -0.100  1.00  0.00     0.031 C 
HETATM   17  C10 UNL     1      44.679  33.299   0.468  1.00  0.00     0.002 C 
HETATM   18  C11 UNL     1      44.119  33.875   1.587  1.00  0.00     0.004 C 
HETATM   19  C12 UNL     1      44.560  34.993   2.266  1.00  0.00     0.048 C 
HETATM   20  C13 UNL     1      45.747  35.711   2.083  1.00  0.00     0.099 C 
HETATM   21  N5  UNL     1      46.715  35.544   1.138  1.00  0.00    -0.341 N 
ATOM     22  H5  UNL     1      47.350  36.327   0.989  1.00  0.00     0.167 HD
BRANCH  20  23
HETATM   23  N4  UNL     1      45.904  36.648   2.948  1.00  0.00    -0.385 N 
ATOM     24  H42 UNL     1      46.502  36.461   3.753  1.00  0.00     0.157 HD
ATOM     25  H41 UNL     1      45.390  37.497   2.713  1.00  0.00     0.157 HD
ENDBRANCH  20  23
ENDBRANCH   9  15
ENDBRANCH   3   9
TORSDOF 5
ENDMDL
MODEL 2
REMARK VINA RESULT: -6.580241528      1.252      1.909
REMARK  5 active torsions:
REMARK  status: ('A' for Active; 'I' for Inactive)
REMARK    1  A    between atoms: C3_3  and  C4_4 
REMARK    2  A    between atoms: C3_3  and  C7_9 
REMARK       I    between atoms: C4_4  and  N1_6 
REMARK    3  A    between atoms: C7_9  and  C8_15 
REMARK    4  A    between atoms: N2_10  and  N3_12 
REMARK    5  A    between atoms: C13_20  and  N4_21 
ROOT
HETATM    1  C1  UNL     1      51.312  31.709  -1.017  1.00  0.00     0.013 C 
HETATM    2  C2  UNL     1      50.252  32.299  -1.035  1.00  0.00    -0.097 C 
HETATM    3  C3  UNL     1      48.972  33.029  -1.035  1.00  0.00     0.209 C 
ENDROOT
BRANCH   3   4
HETATM    4  C4  UNL     1      48.775  33.508  -2.415  1.00  0.00     0.240 C 
HETATM    5  O1  UNL     1      49.606  34.251  -2.949  1.00  0.00    -0.272 OA
HETATM    6  N1  UNL     1      47.612  33.104  -3.136  1.00  0.00    -0.359 N 
HETATM    7  C5  UNL     1      46.595  32.240  -2.585  1.00  0.00     0.152 C 
HETATM    8  C6  UNL     1      47.413  33.570  -4.494  1.00  0.00     0.152 C 
ENDBRANCH   3   4
BRANCH   3   9
HETATM    9  C7  UNL     1      48.896  34.057   0.006  1.00  0.00     0.076 C 
HETATM   10  N2  UNL     1      49.889  34.829   0.206  1.00  0.00    -0.307 N 
ATOM     11  H2  UNL     1      50.707  34.685  -0.386  1.00  0.00     0.186 HD
BRANCH  10  12
HETATM   12  N3  UNL     1      49.974  35.842   1.142  1.00  0.00    -0.345 N 
ATOM     13  H32 UNL     1      49.313  35.780   1.917  1.00  0.00     0.176 HD
ATOM     14  H31 UNL     1      50.621  36.630   1.132  1.00  0.00     0.176 HD
ENDBRANCH  10  12
BRANCH   9  15
HETATM   15  C8  UNL     1      47.684  34.185   0.811  1.00  0.00     0.059 C 
HETATM   16  C9  UNL     1      47.705  35.168   1.799  1.00  0.00     0.031 C 
HETATM   17  C10 UNL     1      46.676  35.956   2.290  1.00  0.00     0.002 C 
HETATM   18  C11 UNL     1      45.333  35.809   2.016  1.00  0.00     0.004 C 
HETATM   19  C12 UNL     1      44.722  34.765   1.351  1.00  0.00     0.048 C 
HETATM   20  C13 UNL     1      45.318  33.699   0.669  1.00  0.00     0.099 C 
HETATM   21  N5  UNL     1      46.639  33.375   0.567  1.00  0.00    -0.341 N 
ATOM     22  H5  UNL     1      46.856  32.422   0.276  1.00  0.00     0.167 HD
BRANCH  20  23
HETATM   23  N4  UNL     1      44.465  32.946   0.071  1.00  0.00    -0.385 N 
ATOM     24  H42 UNL     1      43.534  32.860   0.479  1.00  0.00     0.157 HD
ATOM     25  H41 UNL     1      44.840  32.511  -0.771  1.00  0.00     0.157 HD
ENDBRANCH  20  23
ENDBRANCH   9  15
ENDBRANCH   3   9
TORSDOF 5
ENDMDL
MODEL 3
REMARK VINA RESULT: -6.406163249      1.838      3.283
REMARK  5 active torsions:
REMARK  status: ('A' for Active; 'I' for Inactive)
REMARK    1  A    between atoms: C3_3  and  C4_4 
REMARK    2  A    between atoms: C3_3  and  C7_9 
REMARK       I    between atoms: C4_4  and  N1_6 
REMARK    3  A    between atoms: C7_9  and  C8_15 
REMARK    4  A    between atoms: N2_10  and  N3_12 
REMARK    5  A    between atoms: C13_20  and  N4_21 
ROOT
HETATM    1  C1  UNL     1      47.243  33.059  -4.110  1.00  0.00     0.013 C 
HETATM    2  C2  UNL     1      47.483  33.175  -2.926  1.00  0.00    -0.097 C 
HETATM    3  C3  UNL     1      47.747  33.311  -1.484  1.00  0.00     0.209 C 
ENDROOT
BRANCH   3   4
HETATM    4  C4  UNL     1      48.892  32.429  -1.193  1.00  0.00     0.240 C 
HETATM    5  O1  UNL     1      48.714  31.243  -0.897  1.00  0.00    -0.272 OA
HETATM    6  N1  UNL     1      50.216  32.957  -1.258  1.00  0.00    -0.359 N 
HETATM    7  C5  UNL     1      50.509  34.331  -1.596  1.00  0.00     0.152 C 
HETATM    8  C6  UNL     1      51.347  32.095  -0.976  1.00  0.00     0.152 C 
ENDBRANCH   3   4
BRANCH   3   9
HETATM    9  C7  UNL     1      46.558  33.093  -0.656  1.00  0.00     0.076 C 
HETATM   10  N2  UNL     1      45.900  32.008  -0.769  1.00  0.00    -0.307 N 
ATOM     11  H2  UNL     1      46.248  31.331  -1.448  1.00  0.00     0.186 HD
BRANCH  10  12
HETATM   12  N3  UNL     1      44.765  31.653  -0.066  1.00  0.00    -0.345 N 
ATOM     13  H32 UNL     1      44.880  31.578   0.945  1.00  0.00     0.176 HD
ATOM     14  H31 UNL     1      43.842  31.461  -0.454  1.00  0.00     0.176 HD
ENDBRANCH  10  12
BRANCH   9  15
HETATM   15  C8  UNL     1      46.131  34.124   0.286  1.00  0.00     0.059 C 
HETATM   16  C9  UNL     1      44.777  34.128   0.619  1.00  0.00     0.031 C 
HETATM   17  C10 UNL     1      44.157  34.473   1.809  1.00  0.00     0.002 C 
HETATM   18  C11 UNL     1      44.754  35.072   2.898  1.00  0.00     0.004 C 
HETATM   19  C12 UNL     1      46.026  35.602   2.971  1.00  0.00     0.048 C 
HETATM   20  C13 UNL     1      47.057  35.525   2.028  1.00  0.00     0.099 C 
HETATM   21  N5  UNL     1      47.036  34.991   0.773  1.00  0.00    -0.341 N 
ATOM     22  H5  UNL     1      47.782  35.278   0.141  1.00  0.00     0.167 HD
BRANCH  20  23
HETATM   23  N4  UNL     1      48.157  36.042   2.444  1.00  0.00    -0.385 N 
ATOM     24  H42 UNL     1      49.031  35.679   2.064  1.00  0.00     0.157 HD
ATOM     25  H41 UNL     1      48.014  36.782   3.132  1.00  0.00     0.157 HD
ENDBRANCH  20  23
ENDBRANCH   9  15
ENDBRANCH   3   9
TORSDOF 5
ENDMDL
MODEL 4
REMARK VINA RESULT: -6.254122304      2.026      5.406
REMARK  5 active torsions:
REMARK  status: ('A' for Active; 'I' for Inactive)
REMARK    1  A    between atoms: C3_3  and  C4_4 
REMARK    2  A    between atoms: C3_3  and  C7_9 
REMARK       I    between atoms: C4_4  and  N1_6 
REMARK    3  A    between atoms: C7_9  and  C8_15 
REMARK    4  A    between atoms: N2_10  and  N3_12 
REMARK    5  A    between atoms: C13_20  and  N4_21 
ROOT
HETATM    1  C1  UNL     1      46.580  33.018  -0.460  1.00  0.00     0.013 C 
HETATM    2  C2  UNL     1      46.960  33.776   0.408  1.00  0.00    -0.097 C 
HETATM    3  C3  UNL     1      47.445  34.696   1.451  1.00  0.00     0.209 C 
ENDROOT
BRANCH   3   4
HETATM    4  C4  UNL     1      46.438  35.767   1.551  1.00  0.00     0.240 C 
HETATM    5  O1  UNL     1      46.478  36.743   0.794  1.00  0.00    -0.272 OA
HETATM    6  N1  UNL     1      45.408  35.669   2.533  1.00  0.00    -0.359 N 
HETATM    7  C5  UNL     1      45.291  34.563   3.455  1.00  0.00     0.152 C 
HETATM    8  C6  UNL     1      44.412  36.718   2.637  1.00  0.00     0.152 C 
ENDBRANCH   3   4
BRANCH   3   9
HETATM    9  C7  UNL     1      48.822  35.145   1.228  1.00  0.00     0.076 C 
HETATM   10  N2  UNL     1      49.286  36.121   1.902  1.00  0.00    -0.307 N 
ATOM     11  H2  UNL     1      48.655  36.549   2.580  1.00  0.00     0.186 HD
BRANCH  10  12
HETATM   12  N3  UNL     1      50.555  36.660   1.811  1.00  0.00    -0.345 N 
ATOM     13  H32 UNL     1      51.297  36.000   1.577  1.00  0.00     0.176 HD
ATOM     14  H31 UNL     1      50.815  37.636   1.953  1.00  0.00     0.176 HD
ENDBRANCH  10  12
BRANCH   9  15
HETATM   15  C8  UNL     1      49.651  34.475   0.229  1.00  0.00     0.059 C 
HETATM   16  C9  UNL     1      50.684  33.681   0.722  1.00  0.00     0.031 C 
HETATM   17  C10 UNL     1      51.227  32.512   0.212  1.00  0.00     0.002 C 
HETATM   18  C11 UNL     1      50.966  31.963  -1.026  1.00  0.00     0.004 C 
HETATM   19  C12 UNL     1      50.261  32.535  -2.066  1.00  0.00     0.048 C 
HETATM   20  C13 UNL     1      49.521  33.722  -2.067  1.00  0.00     0.099 C 
HETATM   21  N5  UNL     1      49.384  34.650  -1.078  1.00  0.00    -0.341 N 
ATOM     22  H5  UNL     1      49.044  35.570  -1.357  1.00  0.00     0.167 HD
BRANCH  20  23
HETATM   23  N4  UNL     1      48.900  33.924  -3.174  1.00  0.00    -0.385 N 
ATOM     24  H42 UNL     1      49.383  33.693  -4.042  1.00  0.00     0.157 HD
ATOM     25  H41 UNL     1      47.965  34.307  -3.041  1.00  0.00     0.157 HD
ENDBRANCH  20  23
ENDBRANCH   9  15
ENDBRANCH   3   9
TORSDOF 5
ENDMDL
MODEL 5
REMARK VINA RESULT: -6.010486460      1.987      3.570
REMARK  5 active torsions:
REMARK  status: ('A' for Active; 'I' for Inactive)
REMARK    1  A    between atoms: C3_3  and  C4_4 
REMARK    2  A    between atoms: C3_3  and  C7_9 
REMARK       I    between atoms: C4_4  and  N1_6 
REMARK    3  A    between atoms: C7_9  and  C8_15 
REMARK    4  A    between atoms: N2_10  and  N3_12 
REMARK    5  A    between atoms: C13_20  and  N4_21 
ROOT
HETATM    1  C1  UNL     1      47.779  33.426  -4.290  1.00  0.00     0.013 C 
HETATM    2  C2  UNL     1      47.875  33.431  -3.080  1.00  0.00    -0.097 C 
HETATM    3  C3  UNL     1      47.966  33.433  -1.610  1.00  0.00     0.209 C 
ENDROOT
BRANCH   3   4
HETATM    4  C4  UNL     1      49.058  32.505  -1.267  1.00  0.00     0.240 C 
HETATM    5  O1  UNL     1      48.819  31.324  -0.994  1.00  0.00    -0.272 OA
HETATM    6  N1  UNL     1      50.402  32.982  -1.252  1.00  0.00    -0.359 N 
HETATM    7  C5  UNL     1      50.766  34.347  -1.556  1.00  0.00     0.152 C 
HETATM    8  C6  UNL     1      51.482  32.074  -0.917  1.00  0.00     0.152 C 
ENDBRANCH   3   4
BRANCH   3   9
HETATM    9  C7  UNL     1      46.683  33.167  -0.953  1.00  0.00     0.076 C 
HETATM   10  N2  UNL     1      45.824  32.419  -1.524  1.00  0.00    -0.307 N 
ATOM     11  H2  UNL     1      46.084  32.035  -2.433  1.00  0.00     0.186 HD
BRANCH  10  12
HETATM   12  N3  UNL     1      44.577  32.074  -1.039  1.00  0.00    -0.345 N 
ATOM     13  H32 UNL     1      43.848  32.776  -1.162  1.00  0.00     0.176 HD
ATOM     14  H31 UNL     1      44.322  31.200  -0.579  1.00  0.00     0.176 HD
ENDBRANCH  10  12
BRANCH   9  15
HETATM   15  C8  UNL     1      46.396  33.767   0.347  1.00  0.00     0.059 C 
HETATM   16  C9  UNL     1      47.485  34.310   1.026  1.00  0.00     0.031 C 
HETATM   17  C10 UNL     1      47.547  35.404   1.875  1.00  0.00     0.002 C 
HETATM   18  C11 UNL     1      46.474  36.106   2.381  1.00  0.00     0.004 C 
HETATM   19  C12 UNL     1      45.137  35.773   2.295  1.00  0.00     0.048 C 
HETATM   20  C13 UNL     1      44.542  34.746   1.555  1.00  0.00     0.099 C 
HETATM   21  N5  UNL     1      45.133  33.769   0.811  1.00  0.00    -0.341 N 
ATOM     22  H5  UNL     1      44.561  32.956   0.583  1.00  0.00     0.167 HD
BRANCH  20  23
HETATM   23  N4  UNL     1      43.258  34.766   1.613  1.00  0.00    -0.385 N 
ATOM     24  H42 UNL     1      42.822  35.226   2.412  1.00  0.00     0.157 HD
ATOM     25  H41 UNL     1      42.817  34.299   0.821  1.00  0.00     0.157 HD
ENDBRANCH  20  23
ENDBRANCH   9  15
ENDBRANCH   3   9
TORSDOF 5
ENDMDL
