MODEL 1
REMARK VINA RESULT: -6.639717547      0.000      0.000
REMARK  5 active torsions:
REMARK  status: ('A' for Active; 'I' for Inactive)
REMARK    1  A    between atoms: C2_2  and  N2_5 
REMARK    2  A    between atoms: N2_5  and  C4_7 
REMARK    3  A    between atoms: C4_7  and  N3_9 
REMARK    4  A    between atoms: N3_9  and  N4_11 
REMARK       I    between atoms: N4_11  and  C5_13 
REMARK    5  A    between atoms: C5_13  and  C6_15 
ROOT
HETATM    1  C1  UNL     1      51.003  31.624  -1.192  1.00  0.00     0.048 C 
HETATM    2  C2  UNL     1      51.520  33.014  -0.988  1.00  0.00     0.187 C 
HETATM    3  C3  UNL     1      51.222  33.525   0.353  1.00  0.00     0.084 C 
HETATM    4  N1  UNL     1      50.997  33.928   1.413  1.00  0.00    -0.195 NA
ENDROOT
BRANCH   2   5
HETATM    5  N2  UNL     1      51.015  33.891  -2.015  1.00  0.00    -0.349 N 
ATOM      6  H2  UNL     1      51.642  34.251  -2.736  1.00  0.00     0.163 HD
BRANCH   5   7
HETATM    7  C4  UNL     1      49.622  34.257  -2.020  1.00  0.00     0.187 C 
HETATM    8  S1  UNL     1      48.619  33.583  -3.097  1.00  0.00    -0.040 SA
BRANCH   7   9
HETATM    9  N3  UNL     1      49.162  35.196  -1.082  1.00  0.00    -0.273 N 
ATOM     10  H3  UNL     1      49.730  36.011  -0.847  1.00  0.00     0.189 HD
BRANCH   9  11
HETATM   11  N4  UNL     1      47.922  35.003  -0.476  1.00  0.00    -0.262 N 
HETATM   12  C5  UNL     1      47.676  35.424   0.856  1.00  0.00     0.288 C 
HETATM   13  O1  UNL     1      48.593  35.979   1.494  1.00  0.00    -0.264 OA
ATOM     14  H4  UNL     1      47.175  34.548  -1.002  1.00  0.00     0.190 HD
BRANCH  12  15
HETATM   15  C6  UNL     1      46.368  35.220   1.494  1.00  0.00     0.117 A 
HETATM   16  C7  UNL     1      46.068  35.775   2.717  1.00  0.00     0.122 A 
HETATM   17  N5  UNL     1      44.848  35.558   3.265  1.00  0.00    -0.372 N 
HETATM   18  C8  UNL     1      43.899  34.816   2.666  1.00  0.00     0.104 A 
ATOM     19  H5  UNL     1      44.639  35.975   4.172  1.00  0.00     0.164 HD
HETATM   20  C9  UNL     1      44.207  34.263   1.440  1.00  0.00     0.105 A 
HETATM   21  N6  UNL     1      45.419  34.479   0.897  1.00  0.00    -0.359 N 
ATOM     22  H6  UNL     1      45.627  34.060  -0.009  1.00  0.00     0.165 HD
ENDBRANCH  12  15
ENDBRANCH   9  11
ENDBRANCH   7   9
ENDBRANCH   5   7
ENDBRANCH   2   5
TORSDOF 5
ENDMDL
MODEL 2
REMARK VINA RESULT: -6.605589767      0.699      1.145
REMARK  5 active torsions:
REMARK  status: ('A' for Active; 'I' for Inactive)
REMARK    1  A    between atoms: C2_2  and  N2_5 
REMARK    2  A    between atoms: N2_5  and  C4_7 
REMARK    3  A    between atoms: C4_7  and  N3_9 
REMARK    4  A    between atoms: N3_9  and  N4_11 
REMARK       I    between atoms: N4_11  and  C5_13 
REMARK    5  A    between atoms: C5_13  and  C6_15 
ROOT
HETATM    1  C1  UNL     1      51.027  31.555  -1.180  1.00  0.00     0.048 C 
HETATM    2  C2  UNL     1      51.545  32.937  -0.936  1.00  0.00     0.187 C 
HETATM    3  C3  UNL     1      51.187  33.438   0.395  1.00  0.00     0.084 C 
HETATM    4  N1  UNL     1      50.915  33.832   1.446  1.00  0.00    -0.195 NA
ENDROOT
BRANCH   2   5
HETATM    5  N2  UNL     1      51.098  33.830  -1.977  1.00  0.00    -0.349 N 
ATOM      6  H2  UNL     1      51.759  34.181  -2.671  1.00  0.00     0.163 HD
BRANCH   5   7
HETATM    7  C4  UNL     1      49.713  34.223  -2.034  1.00  0.00     0.187 C 
HETATM    8  S1  UNL     1      48.752  33.615  -3.186  1.00  0.00    -0.040 SA
BRANCH   7   9
HETATM    9  N3  UNL     1      49.225  35.131  -1.079  1.00  0.00    -0.273 N 
ATOM     10  H3  UNL     1      49.809  35.902  -0.754  1.00  0.00     0.189 HD
BRANCH   9  11
HETATM   11  N4  UNL     1      47.933  34.966  -0.582  1.00  0.00    -0.262 N 
HETATM   12  C5  UNL     1      47.587  35.386   0.728  1.00  0.00     0.288 C 
HETATM   13  O1  UNL     1      48.460  35.911   1.446  1.00  0.00    -0.264 OA
ATOM     14  H4  UNL     1      47.221  34.535  -1.172  1.00  0.00     0.190 HD
BRANCH  12  15
HETATM   15  C6  UNL     1      46.224  35.212   1.252  1.00  0.00     0.117 A 
HETATM   16  C7  UNL     1      45.386  34.233   0.768  1.00  0.00     0.122 A 
HETATM   17  N5  UNL     1      44.138  34.112   1.283  1.00  0.00    -0.372 N 
HETATM   18  C8  UNL     1      43.669  34.911   2.258  1.00  0.00     0.104 A 
ATOM     19  H5  UNL     1      43.528  33.382   0.916  1.00  0.00     0.164 HD
HETATM   20  C9  UNL     1      44.516  35.889   2.738  1.00  0.00     0.105 A 
HETATM   21  N6  UNL     1      45.754  36.009   2.226  1.00  0.00    -0.359 N 
ATOM     22  H6  UNL     1      46.363  36.739   2.593  1.00  0.00     0.165 HD
ENDBRANCH  12  15
ENDBRANCH   9  11
ENDBRANCH   7   9
ENDBRANCH   5   7
ENDBRANCH   2   5
TORSDOF 5
ENDMDL
MODEL 3
REMARK VINA RESULT: -6.240317152      2.406      3.166
REMARK  5 active torsions:
REMARK  status: ('A' for Active; 'I' for Inactive)
REMARK    1  A    between atoms: C2_2  and  N2_5 
REMARK    2  A    between atoms: N2_5  and  C4_7 
REMARK    3  A    between atoms: C4_7  and  N3_9 
REMARK    4  A    between atoms: N3_9  and  N4_11 
REMARK       I    between atoms: N4_11  and  C5_13 
REMARK    5  A    between atoms: C5_13  and  C6_15 
ROOT
HETATM    1  C1  UNL     1      47.723  30.881  -0.716  1.00  0.00     0.048 C 
HETATM    2  C2  UNL     1      47.503  32.230  -1.325  1.00  0.00     0.187 C 
HETATM    3  C3  UNL     1      46.568  32.184  -2.453  1.00  0.00     0.084 C 
HETATM    4  N1  UNL     1      45.824  32.153  -3.336  1.00  0.00    -0.195 NA
ENDROOT
BRANCH   2   5
HETATM    5  N2  UNL     1      48.764  32.820  -1.704  1.00  0.00    -0.349 N 
ATOM      6  H2  UNL     1      48.895  33.187  -2.647  1.00  0.00     0.163 HD
BRANCH   5   7
HETATM    7  C4  UNL     1      49.836  32.888  -0.745  1.00  0.00     0.187 C 
HETATM    8  S1  UNL     1      51.177  32.011  -0.976  1.00  0.00    -0.040 SA
BRANCH   7   9
HETATM    9  N3  UNL     1      49.693  33.721   0.378  1.00  0.00    -0.273 N 
ATOM     10  H3  UNL     1      50.504  34.191   0.779  1.00  0.00     0.189 HD
BRANCH   9  11
HETATM   11  N4  UNL     1      48.428  33.897   0.937  1.00  0.00    -0.262 N 
HETATM   12  C5  UNL     1      47.582  34.960   0.532  1.00  0.00     0.288 C 
HETATM   13  O1  UNL     1      47.983  35.753  -0.343  1.00  0.00    -0.264 OA
ATOM     14  H4  UNL     1      48.104  33.246   1.653  1.00  0.00     0.190 HD
BRANCH  12  15
HETATM   15  C6  UNL     1      46.248  35.145   1.123  1.00  0.00     0.117 A 
HETATM   16  C7  UNL     1      45.234  34.239   0.909  1.00  0.00     0.122 A 
HETATM   17  N5  UNL     1      44.022  34.453   1.476  1.00  0.00    -0.372 N 
HETATM   18  C8  UNL     1      43.754  35.521   2.248  1.00  0.00     0.104 A 
ATOM     19  H5  UNL     1      43.280  33.773   1.309  1.00  0.00     0.164 HD
HETATM   20  C9  UNL     1      44.776  36.424   2.458  1.00  0.00     0.105 A 
HETATM   21  N6  UNL     1      45.979  36.211   1.894  1.00  0.00    -0.359 N 
ATOM     22  H6  UNL     1      46.720  36.891   2.061  1.00  0.00     0.165 HD
ENDBRANCH  12  15
ENDBRANCH   9  11
ENDBRANCH   7   9
ENDBRANCH   5   7
ENDBRANCH   2   5
TORSDOF 5
ENDMDL
MODEL 4
REMARK VINA RESULT: -6.226013253      2.291      2.961
REMARK  5 active torsions:
REMARK  status: ('A' for Active; 'I' for Inactive)
REMARK    1  A    between atoms: C2_2  and  N2_5 
REMARK    2  A    between atoms: N2_5  and  C4_7 
REMARK    3  A    between atoms: C4_7  and  N3_9 
REMARK    4  A    between atoms: N3_9  and  N4_11 
REMARK       I    between atoms: N4_11  and  C5_13 
REMARK    5  A    between atoms: C5_13  and  C6_15 
ROOT
HETATM    1  C1  UNL     1      47.718  30.915  -0.715  1.00  0.00     0.048 C 
HETATM    2  C2  UNL     1      47.486  32.251  -1.348  1.00  0.00     0.187 C 
HETATM    3  C3  UNL     1      46.530  32.181  -2.457  1.00  0.00     0.084 C 
HETATM    4  N1  UNL     1      45.769  32.132  -3.324  1.00  0.00    -0.195 NA
ENDROOT
BRANCH   2   5
HETATM    5  N2  UNL     1      48.739  32.832  -1.764  1.00  0.00    -0.349 N 
ATOM      6  H2  UNL     1      48.839  33.219  -2.703  1.00  0.00     0.163 HD
BRANCH   5   7
HETATM    7  C4  UNL     1      49.850  32.864  -0.846  1.00  0.00     0.187 C 
HETATM    8  S1  UNL     1      51.124  31.896  -1.094  1.00  0.00    -0.040 SA
BRANCH   7   9
HETATM    9  N3  UNL     1      49.801  33.740   0.250  1.00  0.00    -0.273 N 
ATOM     10  H3  UNL     1      50.634  34.256   0.536  1.00  0.00     0.189 HD
BRANCH   9  11
HETATM   11  N4  UNL     1      48.602  33.897   0.944  1.00  0.00    -0.262 N 
HETATM   12  C5  UNL     1      47.696  34.942   0.627  1.00  0.00     0.288 C 
HETATM   13  O1  UNL     1      47.984  35.735  -0.292  1.00  0.00    -0.264 OA
ATOM     14  H4  UNL     1      48.371  33.246   1.695  1.00  0.00     0.190 HD
BRANCH  12  15
HETATM   15  C6  UNL     1      46.432  35.106   1.359  1.00  0.00     0.117 A 
HETATM   16  C7  UNL     1      46.345  35.904   2.477  1.00  0.00     0.122 A 
HETATM   17  N5  UNL     1      45.157  36.024   3.118  1.00  0.00    -0.372 N 
HETATM   18  C8  UNL     1      44.041  35.394   2.711  1.00  0.00     0.104 A 
ATOM     19  H5  UNL     1      45.107  36.619   3.944  1.00  0.00     0.164 HD
HETATM   20  C9  UNL     1      44.136  34.596   1.589  1.00  0.00     0.105 A 
HETATM   21  N6  UNL     1      45.315  34.478   0.954  1.00  0.00    -0.359 N 
ATOM     22  H6  UNL     1      45.365  33.882   0.128  1.00  0.00     0.165 HD
ENDBRANCH  12  15
ENDBRANCH   9  11
ENDBRANCH   7   9
ENDBRANCH   5   7
ENDBRANCH   2   5
TORSDOF 5
ENDMDL
MODEL 5
REMARK VINA RESULT: -6.217706128      2.069      2.890
REMARK  5 active torsions:
REMARK  status: ('A' for Active; 'I' for Inactive)
REMARK    1  A    between atoms: C2_2  and  N2_5 
REMARK    2  A    between atoms: N2_5  and  C4_7 
REMARK    3  A    between atoms: C4_7  and  N3_9 
REMARK    4  A    between atoms: N3_9  and  N4_11 
REMARK       I    between atoms: N4_11  and  C5_13 
REMARK    5  A    between atoms: C5_13  and  C6_15 
ROOT
HETATM    1  C1  UNL     1      48.145  31.570  -0.657  1.00  0.00     0.048 C 
HETATM    2  C2  UNL     1      47.803  32.709  -1.564  1.00  0.00     0.187 C 
HETATM    3  C3  UNL     1      46.789  32.344  -2.557  1.00  0.00     0.084 C 
HETATM    4  N1  UNL     1      45.982  32.062  -3.334  1.00  0.00    -0.195 NA
ENDROOT
BRANCH   2   5
HETATM    5  N2  UNL     1      48.996  33.225  -2.189  1.00  0.00    -0.349 N 
ATOM      6  H2  UNL     1      49.264  32.910  -3.122  1.00  0.00     0.163 HD
BRANCH   5   7
HETATM    7  C4  UNL     1      49.808  34.189  -1.491  1.00  0.00     0.187 C 
HETATM    8  S1  UNL     1      51.385  33.897  -1.265  1.00  0.00    -0.040 SA
BRANCH   7   9
HETATM    9  N3  UNL     1      49.209  35.368  -1.018  1.00  0.00    -0.273 N 
ATOM     10  H3  UNL     1      49.728  36.247  -1.017  1.00  0.00     0.189 HD
BRANCH   9  11
HETATM   11  N4  UNL     1      47.896  35.324  -0.550  1.00  0.00    -0.262 N 
HETATM   12  C5  UNL     1      47.602  35.419   0.834  1.00  0.00     0.288 C 
HETATM   13  O1  UNL     1      48.540  35.542   1.645  1.00  0.00    -0.264 OA
ATOM     14  H4  UNL     1      47.131  35.222  -1.218  1.00  0.00     0.190 HD
BRANCH  12  15
HETATM   15  C6  UNL     1      46.217  35.372   1.326  1.00  0.00     0.117 A 
HETATM   16  C7  UNL     1      45.360  34.354   0.973  1.00  0.00     0.122 A 
HETATM   17  N5  UNL     1      44.093  34.355   1.452  1.00  0.00    -0.372 N 
HETATM   18  C8  UNL     1      43.621  35.314   2.268  1.00  0.00     0.104 A 
ATOM     19  H5  UNL     1      43.470  33.594   1.183  1.00  0.00     0.164 HD
HETATM   20  C9  UNL     1      44.485  36.331   2.617  1.00  0.00     0.105 A 
HETATM   21  N6  UNL     1      45.743  36.330   2.140  1.00  0.00    -0.359 N 
ATOM     22  H6  UNL     1      46.366  37.091   2.409  1.00  0.00     0.165 HD
ENDBRANCH  12  15
ENDBRANCH   9  11
ENDBRANCH   7   9
ENDBRANCH   5   7
ENDBRANCH   2   5
TORSDOF 5
ENDMDL
