MODEL 1
REMARK VINA RESULT: 4.156268618      0.000      0.000
REMARK  2 active torsions:
REMARK  status: ('A' for Active; 'I' for Inactive)
REMARK    1  A    between atoms: C5_8  and  C6_9 
REMARK    2  A    between atoms: C7_10  and  C8_11 
ROOT
HETATM    1  N1  UNL     1       2.846  33.976   3.477  1.00  0.00    -0.190 NA
HETATM    2  C1  UNL     1       2.732  32.825   3.685  1.00  0.00     0.117 C 
HETATM    3  C2  UNL     1       2.589  31.419   3.921  1.00  0.00     0.116 A 
HETATM    4  C3  UNL     1       3.222  30.662   4.887  1.00  0.00     0.073 A 
HETATM    5  C4  UNL     1       2.794  29.337   4.761  1.00  0.00     0.062 A 
HETATM    6  N2  UNL     1       3.073  28.202   5.417  1.00  0.00    -0.347 N 
ATOM      7  H2  UNL     1       3.733  28.220   6.194  1.00  0.00     0.167 HD
HETATM    8  C5  UNL     1       2.493  27.041   5.063  1.00  0.00     0.087 A 
HETATM    9  C18 UNL     1       1.605  27.059   4.007  1.00  0.00     0.041 A 
HETATM   10  C19 UNL     1       1.289  28.196   3.306  1.00  0.00     0.035 A 
HETATM   11  C20 UNL     1       1.902  29.369   3.695  1.00  0.00     0.060 A 
HETATM   12  N3  UNL     1       1.793  30.609   3.209  1.00  0.00    -0.346 N 
ATOM     13  H3  UNL     1       1.202  30.892   2.427  1.00  0.00     0.167 HD
ENDROOT
BRANCH   8  14
HETATM   14  C6  UNL     1       2.801  25.831   5.776  1.00  0.00    -0.043 C 
HETATM   15  C7  UNL     1       3.040  24.810   6.381  1.00  0.00    -0.060 C 
BRANCH  15  16
HETATM   16  C8  UNL     1       3.302  23.599   7.109  1.00  0.00     0.018 A 
HETATM   17  C9  UNL     1       3.723  22.433   6.492  1.00  0.00     0.021 A 
HETATM   18  C10 UNL     1       3.973  21.274   7.194  1.00  0.00     0.013 A 
HETATM   19  C11 UNL     1       3.810  21.232   8.561  1.00  0.00    -0.026 A 
HETATM   20  C12 UNL     1       4.054  20.073   9.297  1.00  0.00     0.012 A 
HETATM   21  C16 UNL     1       3.385  22.400   9.195  1.00  0.00    -0.025 A 
HETATM   22  C13 UNL     1       3.880  20.069  10.660  1.00  0.00     0.001 A 
HETATM   23  C14 UNL     1       3.462  21.221  11.284  1.00  0.00     0.001 A 
HETATM   24  C15 UNL     1       3.215  22.379  10.558  1.00  0.00     0.012 A 
HETATM   25  C17 UNL     1       3.139  23.553   8.478  1.00  0.00     0.032 A 
ENDBRANCH  15  16
ENDBRANCH   8  14
TORSDOF 2
ENDMDL
MODEL 2
REMARK VINA RESULT: 4.570634939      1.395      1.709
REMARK  2 active torsions:
REMARK  status: ('A' for Active; 'I' for Inactive)
REMARK    1  A    between atoms: C5_8  and  C6_9 
REMARK    2  A    between atoms: C7_10  and  C8_11 
ROOT
HETATM    1  N1  UNL     1      -0.811  33.376   2.613  1.00  0.00    -0.190 NA
HETATM    2  C1  UNL     1      -0.150  32.488   3.005  1.00  0.00     0.117 C 
HETATM    3  C2  UNL     1       0.670  31.417   3.490  1.00  0.00     0.116 A 
HETATM    4  C3  UNL     1       0.251  30.205   4.000  1.00  0.00     0.073 A 
HETATM    5  C4  UNL     1       1.380  29.460   4.354  1.00  0.00     0.062 A 
HETATM    6  N2  UNL     1       1.564  28.243   4.883  1.00  0.00    -0.347 N 
ATOM      7  H2  UNL     1       0.754  27.664   5.108  1.00  0.00     0.167 HD
HETATM    8  C5  UNL     1       2.802  27.775   5.122  1.00  0.00     0.087 A 
HETATM    9  C18 UNL     1       3.871  28.587   4.804  1.00  0.00     0.041 A 
HETATM   10  C19 UNL     1       3.732  29.841   4.261  1.00  0.00     0.035 A 
HETATM   11  C20 UNL     1       2.448  30.289   4.029  1.00  0.00     0.060 A 
HETATM   12  N3  UNL     1       2.010  31.444   3.520  1.00  0.00    -0.346 N 
ATOM     13  H3  UNL     1       2.597  32.217   3.206  1.00  0.00     0.167 HD
ENDROOT
BRANCH   8  14
HETATM   14  C6  UNL     1       2.985  26.466   5.690  1.00  0.00    -0.043 C 
HETATM   15  C7  UNL     1       3.126  25.371   6.185  1.00  0.00    -0.060 C 
BRANCH  15  16
HETATM   16  C8  UNL     1       3.287  24.079   6.794  1.00  0.00     0.018 A 
HETATM   17  C9  UNL     1       3.429  22.918   6.054  1.00  0.00     0.021 A 
HETATM   18  C10 UNL     1       3.583  21.681   6.642  1.00  0.00     0.013 A 
HETATM   19  C11 UNL     1       3.601  21.553   8.013  1.00  0.00    -0.026 A 
HETATM   20  C12 UNL     1       3.754  20.314   8.636  1.00  0.00     0.012 A 
HETATM   21  C16 UNL     1       3.458  22.715   8.770  1.00  0.00    -0.025 A 
HETATM   22  C13 UNL     1       3.768  20.225  10.006  1.00  0.00     0.001 A 
HETATM   23  C14 UNL     1       3.627  21.373  10.753  1.00  0.00     0.001 A 
HETATM   24  C15 UNL     1       3.473  22.609  10.140  1.00  0.00     0.012 A 
HETATM   25  C17 UNL     1       3.306  23.947   8.167  1.00  0.00     0.032 A 
ENDBRANCH  15  16
ENDBRANCH   8  14
TORSDOF 2
ENDMDL
MODEL 3
REMARK VINA RESULT: 4.913749427      3.066      9.734
REMARK  2 active torsions:
REMARK  status: ('A' for Active; 'I' for Inactive)
REMARK    1  A    between atoms: C5_8  and  C6_9 
REMARK    2  A    between atoms: C7_10  and  C8_11 
ROOT
HETATM    1  N1  UNL     1       2.719  20.068  12.363  1.00  0.00    -0.190 NA
HETATM    2  C1  UNL     1       2.839  20.759  11.420  1.00  0.00     0.117 C 
HETATM    3  C2  UNL     1       2.986  21.586  10.259  1.00  0.00     0.116 A 
HETATM    4  C3  UNL     1       2.420  22.824  10.034  1.00  0.00     0.073 A 
HETATM    5  C4  UNL     1       2.826  23.274   8.774  1.00  0.00     0.062 A 
HETATM    6  N2  UNL     1       2.587  24.381   8.059  1.00  0.00    -0.347 N 
ATOM      7  H2  UNL     1       1.985  25.109   8.445  1.00  0.00     0.167 HD
HETATM    8  C5  UNL     1       3.129  24.546   6.839  1.00  0.00     0.087 A 
HETATM    9  C18 UNL     1       3.938  23.539   6.352  1.00  0.00     0.041 A 
HETATM   10  C19 UNL     1       4.211  22.387   7.048  1.00  0.00     0.035 A 
HETATM   11  C20 UNL     1       3.638  22.252   8.295  1.00  0.00     0.060 A 
HETATM   12  N3  UNL     1       3.722  21.260   9.187  1.00  0.00    -0.346 N 
ATOM     13  H3  UNL     1       4.256  20.399   9.070  1.00  0.00     0.167 HD
ENDROOT
BRANCH   8  14
HETATM   14  C6  UNL     1       2.864  25.740   6.083  1.00  0.00    -0.043 C 
HETATM   15  C7  UNL     1       2.629  26.752   5.463  1.00  0.00    -0.060 C 
BRANCH  15  16
HETATM   16  C8  UNL     1       2.331  27.960   4.742  1.00  0.00     0.018 A 
HETATM   17  C9  UNL     1       1.381  28.014   3.737  1.00  0.00     0.021 A 
HETATM   18  C10 UNL     1       1.098  29.174   3.049  1.00  0.00     0.013 A 
HETATM   19  C11 UNL     1       1.763  30.344   3.342  1.00  0.00    -0.026 A 
HETATM   20  C12 UNL     1       1.499  31.533   2.662  1.00  0.00     0.012 A 
HETATM   21  C16 UNL     1       2.724  30.303   4.353  1.00  0.00    -0.025 A 
HETATM   22  C13 UNL     1       2.182  32.680   2.981  1.00  0.00     0.001 A 
HETATM   23  C14 UNL     1       3.130  32.639   3.979  1.00  0.00     0.001 A 
HETATM   24  C15 UNL     1       3.400  31.459   4.660  1.00  0.00     0.012 A 
HETATM   25  C17 UNL     1       2.995  29.133   5.033  1.00  0.00     0.032 A 
ENDBRANCH  15  16
ENDBRANCH   8  14
TORSDOF 2
ENDMDL
MODEL 4
REMARK VINA RESULT: 5.697376769      3.142      9.744
REMARK  2 active torsions:
REMARK  status: ('A' for Active; 'I' for Inactive)
REMARK    1  A    between atoms: C5_8  and  C6_9 
REMARK    2  A    between atoms: C7_10  and  C8_11 
ROOT
HETATM    1  N1  UNL     1       2.716  20.068  12.351  1.00  0.00    -0.190 NA
HETATM    2  C1  UNL     1       2.838  20.753  11.405  1.00  0.00     0.117 C 
HETATM    3  C2  UNL     1       2.983  21.574  10.239  1.00  0.00     0.116 A 
HETATM    4  C3  UNL     1       2.674  22.914  10.113  1.00  0.00     0.073 A 
HETATM    5  C4  UNL     1       2.970  23.315   8.806  1.00  0.00     0.062 A 
HETATM    6  N2  UNL     1       2.872  24.475   8.144  1.00  0.00    -0.347 N 
ATOM      7  H2  UNL     1       2.512  25.300   8.625  1.00  0.00     0.167 HD
HETATM    8  C5  UNL     1       3.243  24.567   6.855  1.00  0.00     0.087 A 
HETATM    9  C18 UNL     1       3.726  23.430   6.240  1.00  0.00     0.041 A 
HETATM   10  C19 UNL     1       3.844  22.220   6.878  1.00  0.00     0.035 A 
HETATM   11  C20 UNL     1       3.455  22.162   8.200  1.00  0.00     0.060 A 
HETATM   12  N3  UNL     1       3.455  21.140   9.062  1.00  0.00    -0.346 N 
ATOM     13  H3  UNL     1       3.763  20.190   8.857  1.00  0.00     0.167 HD
ENDROOT
BRANCH   8  14
HETATM   14  C6  UNL     1       3.133  25.820   6.156  1.00  0.00    -0.043 C 
HETATM   15  C7  UNL     1       3.038  26.883   5.587  1.00  0.00    -0.060 C 
BRANCH  15  16
HETATM   16  C8  UNL     1       2.915  28.157   4.932  1.00  0.00     0.018 A 
HETATM   17  C9  UNL     1       4.012  28.919   4.571  1.00  0.00     0.021 A 
HETATM   18  C10 UNL     1       3.890  30.139   3.942  1.00  0.00     0.013 A 
HETATM   19  C11 UNL     1       2.648  30.654   3.644  1.00  0.00    -0.026 A 
HETATM   20  C12 UNL     1       2.494  31.887   3.009  1.00  0.00     0.012 A 
HETATM   21  C16 UNL     1       1.534  29.896   4.003  1.00  0.00    -0.025 A 
HETATM   22  C13 UNL     1       1.239  32.368   2.728  1.00  0.00     0.001 A 
HETATM   23  C14 UNL     1       0.140  31.620   3.082  1.00  0.00     0.001 A 
HETATM   24  C15 UNL     1       0.285  30.392   3.716  1.00  0.00     0.012 A 
HETATM   25  C17 UNL     1       1.673  28.675   4.632  1.00  0.00     0.032 A 
ENDBRANCH  15  16
ENDBRANCH   8  14
TORSDOF 2
ENDMDL
MODEL 5
REMARK VINA RESULT: 7.959504770      3.515     10.758
REMARK  2 active torsions:
REMARK  status: ('A' for Active; 'I' for Inactive)
REMARK    1  A    between atoms: C5_8  and  C6_9 
REMARK    2  A    between atoms: C7_10  and  C8_11 
ROOT
HETATM    1  N1  UNL     1       4.502  22.893   7.056  1.00  0.00    -0.190 NA
HETATM    2  C1  UNL     1       4.015  23.806   6.501  1.00  0.00     0.117 C 
HETATM    3  C2  UNL     1       3.409  24.909   5.815  1.00  0.00     0.116 A 
HETATM    4  C3  UNL     1       3.164  26.174   6.312  1.00  0.00     0.073 A 
HETATM    5  C4  UNL     1       2.559  26.935   5.306  1.00  0.00     0.062 A 
HETATM    6  N2  UNL     1       2.116  28.196   5.233  1.00  0.00    -0.347 N 
ATOM      7  H2  UNL     1       2.200  28.807   6.046  1.00  0.00     0.167 HD
HETATM    8  C5  UNL     1       1.562  28.668   4.101  1.00  0.00     0.087 A 
HETATM    9  C18 UNL     1       1.467  27.812   3.024  1.00  0.00     0.041 A 
HETATM   10  C19 UNL     1       1.907  26.511   3.052  1.00  0.00     0.035 A 
HETATM   11  C20 UNL     1       2.470  26.061   4.228  1.00  0.00     0.060 A 
HETATM   12  N3  UNL     1       2.976  24.865   4.547  1.00  0.00    -0.346 N 
ATOM     13  H3  UNL     1       3.026  24.056   3.929  1.00  0.00     0.167 HD
ENDROOT
BRANCH   8  14
HETATM   14  C6  UNL     1       1.091  30.026   4.037  1.00  0.00    -0.043 C 
HETATM   15  C7  UNL     1       0.689  31.167   4.003  1.00  0.00    -0.060 C 
BRANCH  15  16
HETATM   16  C8  UNL     1       0.201  32.519   3.985  1.00  0.00     0.018 A 
HETATM   17  C9  UNL     1       1.041  33.616   4.059  1.00  0.00     0.021 A 
HETATM   18  C10 UNL     1       0.568  34.911   4.041  1.00  0.00     0.013 A 
HETATM   19  C11 UNL     1      -0.782  35.164   3.946  1.00  0.00    -0.026 A 
HETATM   20  C12 UNL     1      -1.289  36.464   3.926  1.00  0.00     0.012 A 
HETATM   21  C16 UNL     1      -1.639  34.066   3.870  1.00  0.00    -0.025 A 
HETATM   22  C13 UNL     1      -2.642  36.677   3.830  1.00  0.00     0.001 A 
HETATM   23  C14 UNL     1      -3.487  35.594   3.755  1.00  0.00     0.001 A 
HETATM   24  C15 UNL     1      -2.990  34.297   3.776  1.00  0.00     0.012 A 
HETATM   25  C17 UNL     1      -1.151  32.776   3.889  1.00  0.00     0.032 A 
ENDBRANCH  15  16
ENDBRANCH   8  14
TORSDOF 2
ENDMDL
