MODEL 1
REMARK VINA RESULT: 2.193564936      0.000      0.000
REMARK  2 active torsions:
REMARK  status: ('A' for Active; 'I' for Inactive)
REMARK    1  A    between atoms: C7_9  and  C8_10 
REMARK    2  A    between atoms: C9_11  and  C10_12 
ROOT
HETATM    1  C8  UNL     1       3.181  24.841   6.334  1.00  0.00    -0.042 C 
HETATM    2  C9  UNL     1       3.032  25.920   5.815  1.00  0.00    -0.042 C 
ENDROOT
BRANCH   1   3
HETATM    3  C7  UNL     1       3.347  23.555   6.977  1.00  0.00     0.087 A 
HETATM    4  C6  UNL     1       3.398  22.383   6.251  1.00  0.00     0.041 A 
HETATM    5  C5  UNL     1       3.553  21.148   6.835  1.00  0.00     0.035 A 
HETATM    6  C4  UNL     1       3.662  21.106   8.217  1.00  0.00     0.059 A 
HETATM    7  N1  UNL     1       3.819  20.118   9.115  1.00  0.00    -0.363 N 
HETATM    8  C19 UNL     1       3.610  22.281   8.932  1.00  0.00     0.067 A 
HETATM    9  C3  UNL     1       3.868  20.625  10.355  1.00  0.00     0.097 A 
ATOM     10  H1  UNL     1       3.892  19.126   8.886  1.00  0.00     0.165 HD
HETATM   11  C2  UNL     1       3.739  21.995  10.295  1.00  0.00    -0.018 A 
HETATM   12  C1  UNL     1       3.731  22.998  11.392  1.00  0.00     0.052 C 
HETATM   13  N3  UNL     1       3.454  23.479   8.314  1.00  0.00    -0.347 N 
ATOM     14  H3  UNL     1       3.418  24.333   8.871  1.00  0.00     0.167 HD
ENDBRANCH   1   3
BRANCH   2  15
HETATM   15  C10 UNL     1       2.842  27.210   5.218  1.00  0.00     0.087 A 
HETATM   16  C11 UNL     1       1.564  27.606   4.898  1.00  0.00     0.051 A 
HETATM   17  C12 UNL     1       1.341  28.838   4.324  1.00  0.00    -0.022 A 
HETATM   18  C13 UNL     1       0.058  29.229   4.004  1.00  0.00     0.012 A 
HETATM   19  C17 UNL     1       2.404  29.670   4.072  1.00  0.00    -0.010 A 
HETATM   20  C14 UNL     1      -0.100  30.472   3.432  1.00  0.00     0.001 A 
HETATM   21  C15 UNL     1       0.957  31.324   3.171  1.00  0.00     0.001 A 
HETATM   22  C16 UNL     1       2.231  30.919   3.495  1.00  0.00     0.013 A 
HETATM   23  C18 UNL     1       3.667  29.262   4.396  1.00  0.00     0.101 A 
HETATM   24  N2  UNL     1       3.860  28.065   4.952  1.00  0.00    -0.358 N 
ATOM     25  H2  UNL     1       4.811  27.781   5.186  1.00  0.00     0.166 HD
ENDBRANCH   2  15
TORSDOF 2
ENDMDL
MODEL 2
REMARK VINA RESULT: 2.524095935      0.903      1.599
REMARK  2 active torsions:
REMARK  status: ('A' for Active; 'I' for Inactive)
REMARK    1  A    between atoms: C7_9  and  C8_10 
REMARK    2  A    between atoms: C9_11  and  C10_12 
ROOT
HETATM    1  C8  UNL     1       3.052  24.849   6.302  1.00  0.00    -0.042 C 
HETATM    2  C9  UNL     1       2.811  25.878   5.719  1.00  0.00    -0.042 C 
ENDROOT
BRANCH   1   3
HETATM    3  C7  UNL     1       3.316  23.612   7.004  1.00  0.00     0.087 A 
HETATM    4  C6  UNL     1       3.474  22.416   6.334  1.00  0.00     0.041 A 
HETATM    5  C5  UNL     1       3.724  21.226   6.976  1.00  0.00     0.035 A 
HETATM    6  C4  UNL     1       3.818  21.257   8.359  1.00  0.00     0.059 A 
HETATM    7  N1  UNL     1       4.046  20.327   9.303  1.00  0.00    -0.363 N 
HETATM    8  C19 UNL     1       3.659  22.454   9.019  1.00  0.00     0.067 A 
HETATM    9  C3  UNL     1       4.035  20.892  10.519  1.00  0.00     0.097 A 
ATOM     10  H1  UNL     1       4.203  19.335   9.121  1.00  0.00     0.165 HD
HETATM   11  C2  UNL     1       3.793  22.242  10.395  1.00  0.00    -0.018 A 
HETATM   12  C1  UNL     1       3.688  23.289  11.444  1.00  0.00     0.052 C 
HETATM   13  N3  UNL     1       3.411  23.605   8.345  1.00  0.00    -0.347 N 
ATOM     14  H3  UNL     1       3.297  24.477   8.862  1.00  0.00     0.167 HD
ENDBRANCH   1   3
BRANCH   2  15
HETATM   15  C10 UNL     1       2.501  27.098   5.032  1.00  0.00     0.087 A 
HETATM   16  C11 UNL     1       3.263  28.212   5.293  1.00  0.00     0.051 A 
HETATM   17  C12 UNL     1       2.997  29.403   4.653  1.00  0.00    -0.022 A 
HETATM   18  C13 UNL     1       3.763  30.517   4.919  1.00  0.00     0.012 A 
HETATM   19  C17 UNL     1       1.964  29.469   3.750  1.00  0.00    -0.010 A 
HETATM   20  C14 UNL     1       3.447  31.678   4.247  1.00  0.00     0.001 A 
HETATM   21  C15 UNL     1       2.412  31.765   3.335  1.00  0.00     0.001 A 
HETATM   22  C16 UNL     1       1.656  30.644   3.081  1.00  0.00     0.013 A 
HETATM   23  C18 UNL     1       1.216  28.353   3.502  1.00  0.00     0.101 A 
HETATM   24  N2  UNL     1       1.492  27.211   4.134  1.00  0.00    -0.358 N 
ATOM     25  H2  UNL     1       0.921  26.390   3.932  1.00  0.00     0.166 HD
ENDBRANCH   2  15
TORSDOF 2
ENDMDL
MODEL 3
REMARK VINA RESULT: 3.762393908      1.282      2.439
REMARK  2 active torsions:
REMARK  status: ('A' for Active; 'I' for Inactive)
REMARK    1  A    between atoms: C7_9  and  C8_10 
REMARK    2  A    between atoms: C9_11  and  C10_12 
ROOT
HETATM    1  C8  UNL     1       2.781  25.242   6.721  1.00  0.00    -0.042 C 
HETATM    2  C9  UNL     1       2.504  26.150   5.976  1.00  0.00    -0.042 C 
ENDROOT
BRANCH   1   3
HETATM    3  C7  UNL     1       3.110  24.168   7.633  1.00  0.00     0.087 A 
HETATM    4  C6  UNL     1       3.010  24.322   9.001  1.00  0.00     0.041 A 
HETATM    5  C5  UNL     1       3.317  23.320   9.890  1.00  0.00     0.035 A 
HETATM    6  C4  UNL     1       3.742  22.109   9.364  1.00  0.00     0.059 A 
HETATM    7  N1  UNL     1       4.118  20.935   9.900  1.00  0.00    -0.363 N 
HETATM    8  C19 UNL     1       3.838  21.965   7.998  1.00  0.00     0.067 A 
HETATM    9  C3  UNL     1       4.444  20.068   8.930  1.00  0.00     0.097 A 
ATOM     10  H1  UNL     1       4.152  20.733  10.900  1.00  0.00     0.165 HD
HETATM   11  C2  UNL     1       4.284  20.673   7.703  1.00  0.00    -0.018 A 
HETATM   12  C1  UNL     1       4.514  20.130   6.339  1.00  0.00     0.052 C 
HETATM   13  N3  UNL     1       3.526  22.983   7.157  1.00  0.00    -0.347 N 
ATOM     14  H3  UNL     1       3.609  22.846   6.149  1.00  0.00     0.167 HD
ENDBRANCH   1   3
BRANCH   2  15
HETATM   15  C10 UNL     1       2.172  27.244   5.110  1.00  0.00     0.087 A 
HETATM   16  C11 UNL     1       2.884  28.415   5.228  1.00  0.00     0.051 A 
HETATM   17  C12 UNL     1       2.596  29.489   4.414  1.00  0.00    -0.022 A 
HETATM   18  C13 UNL     1       3.312  30.661   4.536  1.00  0.00     0.012 A 
HETATM   19  C17 UNL     1       1.591  29.383   3.484  1.00  0.00    -0.010 A 
HETATM   20  C14 UNL     1       2.976  31.699   3.695  1.00  0.00     0.001 A 
HETATM   21  C15 UNL     1       1.968  31.611   2.753  1.00  0.00     0.001 A 
HETATM   22  C16 UNL     1       1.262  30.436   2.644  1.00  0.00     0.013 A 
HETATM   23  C18 UNL     1       0.892  28.213   3.381  1.00  0.00     0.101 A 
HETATM   24  N2  UNL     1       1.190  27.186   4.179  1.00  0.00    -0.358 N 
ATOM     25  H2  UNL     1       0.656  26.322   4.084  1.00  0.00     0.166 HD
ENDBRANCH   2  15
TORSDOF 2
ENDMDL
MODEL 4
REMARK VINA RESULT: 3.912469677      1.299      8.956
REMARK  2 active torsions:
REMARK  status: ('A' for Active; 'I' for Inactive)
REMARK    1  A    between atoms: C7_9  and  C8_10 
REMARK    2  A    between atoms: C9_11  and  C10_12 
ROOT
HETATM    1  C8  UNL     1       3.141  26.342   5.662  1.00  0.00    -0.042 C 
HETATM    2  C9  UNL     1       3.244  25.251   6.168  1.00  0.00    -0.042 C 
ENDROOT
BRANCH   1   3
HETATM    3  C7  UNL     1       3.009  27.659   5.079  1.00  0.00     0.087 A 
HETATM    4  C6  UNL     1       4.111  28.441   4.796  1.00  0.00     0.041 A 
HETATM    5  C5  UNL     1       4.016  29.695   4.243  1.00  0.00     0.035 A 
HETATM    6  C4  UNL     1       2.744  30.174   3.965  1.00  0.00     0.059 A 
HETATM    7  N1  UNL     1       2.267  31.316   3.440  1.00  0.00    -0.363 N 
HETATM    8  C19 UNL     1       1.651  29.387   4.250  1.00  0.00     0.067 A 
HETATM    9  C3  UNL     1       0.927  31.274   3.386  1.00  0.00     0.097 A 
ATOM     10  H1  UNL     1       2.840  32.100   3.128  1.00  0.00     0.165 HD
HETATM   11  C2  UNL     1       0.486  30.071   3.889  1.00  0.00    -0.018 A 
HETATM   12  C1  UNL     1      -0.900  29.555   4.040  1.00  0.00     0.052 C 
HETATM   13  N3  UNL     1       1.792  28.154   4.798  1.00  0.00    -0.347 N 
ATOM     14  H3  UNL     1       0.963  27.594   4.999  1.00  0.00     0.167 HD
ENDBRANCH   1   3
BRANCH   2  15
HETATM   15  C10 UNL     1       3.360  23.964   6.790  1.00  0.00     0.087 A 
HETATM   16  C11 UNL     1       3.307  23.890   8.162  1.00  0.00     0.051 A 
HETATM   17  C12 UNL     1       3.414  22.672   8.798  1.00  0.00    -0.022 A 
HETATM   18  C13 UNL     1       3.361  22.603  10.174  1.00  0.00     0.012 A 
HETATM   19  C17 UNL     1       3.574  21.531   8.051  1.00  0.00    -0.010 A 
HETATM   20  C14 UNL     1       3.474  21.357  10.750  1.00  0.00     0.001 A 
HETATM   21  C15 UNL     1       3.635  20.197  10.015  1.00  0.00     0.001 A 
HETATM   22  C16 UNL     1       3.687  20.282   8.643  1.00  0.00     0.013 A 
HETATM   23  C18 UNL     1       3.625  21.622   6.689  1.00  0.00     0.101 A 
HETATM   24  N2  UNL     1       3.519  22.812   6.095  1.00  0.00    -0.358 N 
ATOM     25  H2  UNL     1       3.558  22.856   5.076  1.00  0.00     0.166 HD
ENDBRANCH   2  15
TORSDOF 2
ENDMDL
MODEL 5
REMARK VINA RESULT: 4.202023252      1.304      8.879
REMARK  2 active torsions:
REMARK  status: ('A' for Active; 'I' for Inactive)
REMARK    1  A    between atoms: C7_9  and  C8_10 
REMARK    2  A    between atoms: C9_11  and  C10_12 
ROOT
HETATM    1  C8  UNL     1       2.712  25.948   5.654  1.00  0.00    -0.042 C 
HETATM    2  C9  UNL     1       2.979  24.938   6.258  1.00  0.00    -0.042 C 
ENDROOT
BRANCH   1   3
HETATM    3  C7  UNL     1       2.370  27.158   4.938  1.00  0.00     0.087 A 
HETATM    4  C6  UNL     1       1.292  27.213   4.079  1.00  0.00     0.041 A 
HETATM    5  C5  UNL     1       0.944  28.348   3.386  1.00  0.00     0.035 A 
HETATM    6  C4  UNL     1       1.729  29.475   3.578  1.00  0.00     0.059 A 
HETATM    7  N1  UNL     1       1.703  30.728   3.091  1.00  0.00    -0.363 N 
HETATM    8  C19 UNL     1       2.803  29.411   4.437  1.00  0.00     0.067 A 
HETATM    9  C3  UNL     1       2.710  31.445   3.609  1.00  0.00     0.097 A 
ATOM     10  H1  UNL     1       1.016  31.082   2.425  1.00  0.00     0.165 HD
HETATM   11  C2  UNL     1       3.440  30.655   4.469  1.00  0.00    -0.018 A 
HETATM   12  C1  UNL     1       4.641  30.989   5.279  1.00  0.00     0.052 C 
HETATM   13  N3  UNL     1       3.110  28.268   5.100  1.00  0.00    -0.347 N 
ATOM     14  H3  UNL     1       3.913  28.251   5.729  1.00  0.00     0.167 HD
ENDBRANCH   1   3
BRANCH   2  15
HETATM   15  C10 UNL     1       3.272  23.737   6.986  1.00  0.00     0.087 A 
HETATM   16  C11 UNL     1       3.181  23.760   8.358  1.00  0.00     0.051 A 
HETATM   17  C12 UNL     1       3.455  22.627   9.092  1.00  0.00    -0.022 A 
HETATM   18  C13 UNL     1       3.364  22.655  10.467  1.00  0.00     0.012 A 
HETATM   19  C17 UNL     1       3.818  21.472   8.444  1.00  0.00    -0.010 A 
HETATM   20  C14 UNL     1       3.649  21.490  11.145  1.00  0.00     0.001 A 
HETATM   21  C15 UNL     1       4.016  20.318  10.511  1.00  0.00     0.001 A 
HETATM   22  C16 UNL     1       4.104  20.306   9.138  1.00  0.00     0.013 A 
HETATM   23  C18 UNL     1       3.903  21.465   7.080  1.00  0.00     0.101 A 
HETATM   24  N2  UNL     1       3.633  22.575   6.390  1.00  0.00    -0.358 N 
ATOM     25  H2  UNL     1       3.703  22.547   5.373  1.00  0.00     0.166 HD
ENDBRANCH   2  15
TORSDOF 2
ENDMDL
