MODEL 1
REMARK VINA RESULT: -1.377417661      0.000      0.000
REMARK  2 active torsions:
REMARK  status: ('A' for Active; 'I' for Inactive)
REMARK    1  A    between atoms: C10_13  and  C11_14 
REMARK    2  A    between atoms: C12_15  and  C13_16 
ROOT
HETATM    1  O1  UNL     1       5.497  30.512   5.150  1.00  0.00    -0.266 OA
HETATM    2  C1  UNL     1       4.427  29.891   4.845  1.00  0.00     0.273 A 
HETATM    3  N1  UNL     1       4.348  28.561   4.803  1.00  0.00    -0.321 N 
ATOM      4  H1  UNL     1       5.181  28.016   5.025  1.00  0.00     0.169 HD
HETATM    5  C2  UNL     1       3.231  27.913   4.485  1.00  0.00     0.046 A 
HETATM    6  C3  UNL     1       3.235  26.546   4.465  1.00  0.00     0.030 A 
HETATM    7  C4  UNL     1       2.100  25.840   4.141  1.00  0.00     0.002 A 
HETATM    8  C5  UNL     1       0.949  26.524   3.834  1.00  0.00     0.001 A 
HETATM    9  C6  UNL     1       0.911  27.896   3.844  1.00  0.00     0.014 A 
HETATM   10  C7  UNL     1       2.045  28.589   4.168  1.00  0.00     0.003 A 
HETATM   11  C8  UNL     1       2.077  29.954   4.198  1.00  0.00     0.010 A 
HETATM   12  C9  UNL     1       0.964  30.702   3.903  1.00  0.00     0.037 A 
HETATM   13  C10 UNL     1       1.068  32.063   3.952  1.00  0.00     0.034 A 
HETATM   14  C19 UNL     1       2.261  32.642   4.290  1.00  0.00     0.109 A 
HETATM   15  N2  UNL     1       3.351  31.927   4.580  1.00  0.00    -0.359 N 
ATOM     16  H2  UNL     1       4.225  32.390   4.828  1.00  0.00     0.165 HD
HETATM   17  C20 UNL     1       3.277  30.589   4.539  1.00  0.00     0.112 A 
ENDROOT
BRANCH  13  18
HETATM   18  C11 UNL     1      -0.104  32.869   3.641  1.00  0.00    -0.060 C 
HETATM   19  C12 UNL     1      -1.087  33.520   3.385  1.00  0.00    -0.061 C 
BRANCH  19  20
HETATM   20  C13 UNL     1      -2.272  34.276   3.090  1.00  0.00     0.018 A 
HETATM   21  C14 UNL     1      -2.895  34.249   1.850  1.00  0.00     0.020 A 
HETATM   22  C15 UNL     1      -4.032  34.982   1.586  1.00  0.00     0.001 A 
HETATM   23  C16 UNL     1      -4.604  35.780   2.549  1.00  0.00     0.000 A 
HETATM   24  C17 UNL     1      -3.982  35.812   3.797  1.00  0.00     0.001 A 
HETATM   25  C18 UNL     1      -2.846  35.076   4.052  1.00  0.00     0.020 A 
ENDBRANCH  19  20
ENDBRANCH  13  18
TORSDOF 2
ENDMDL
MODEL 2
REMARK VINA RESULT: -0.303209184      2.392      8.022
REMARK  2 active torsions:
REMARK  status: ('A' for Active; 'I' for Inactive)
REMARK    1  A    between atoms: C10_13  and  C11_14 
REMARK    2  A    between atoms: C12_15  and  C13_16 
ROOT
HETATM    1  O1  UNL     1       0.941  36.649   5.255  1.00  0.00    -0.266 OA
HETATM    2  C1  UNL     1       0.196  35.854   4.594  1.00  0.00     0.273 A 
HETATM    3  N1  UNL     1      -0.902  36.255   3.952  1.00  0.00    -0.321 N 
ATOM      4  H1  UNL     1      -1.157  37.242   3.993  1.00  0.00     0.169 HD
HETATM    5  C2  UNL     1      -1.679  35.425   3.263  1.00  0.00     0.046 A 
HETATM    6  C3  UNL     1      -2.789  35.918   2.634  1.00  0.00     0.030 A 
HETATM    7  C4  UNL     1      -3.617  35.093   1.911  1.00  0.00     0.002 A 
HETATM    8  C5  UNL     1      -3.321  33.754   1.823  1.00  0.00     0.001 A 
HETATM    9  C6  UNL     1      -2.216  33.226   2.443  1.00  0.00     0.014 A 
HETATM   10  C7  UNL     1      -1.397  34.056   3.159  1.00  0.00     0.003 A 
HETATM   11  C8  UNL     1      -0.281  33.599   3.800  1.00  0.00     0.010 A 
HETATM   12  C9  UNL     1       0.076  32.274   3.755  1.00  0.00     0.037 A 
HETATM   13  C10 UNL     1       1.205  31.886   4.419  1.00  0.00     0.034 A 
HETATM   14  C19 UNL     1       1.943  32.812   5.104  1.00  0.00     0.109 A 
HETATM   15  N2  UNL     1       1.607  34.104   5.155  1.00  0.00    -0.359 N 
ATOM     16  H2  UNL     1       2.181  34.768   5.675  1.00  0.00     0.165 HD
HETATM   17  C20 UNL     1       0.504  34.512   4.513  1.00  0.00     0.112 A 
ENDROOT
BRANCH  13  18
HETATM   18  C11 UNL     1       1.595  30.483   4.380  1.00  0.00    -0.060 C 
HETATM   19  C12 UNL     1       1.900  29.316   4.345  1.00  0.00    -0.061 C 
BRANCH  19  20
HETATM   20  C13 UNL     1       2.239  27.922   4.292  1.00  0.00     0.018 A 
HETATM   21  C14 UNL     1       3.117  27.325   5.186  1.00  0.00     0.020 A 
HETATM   22  C15 UNL     1       3.430  25.984   5.119  1.00  0.00     0.001 A 
HETATM   23  C16 UNL     1       2.881  25.172   4.154  1.00  0.00     0.000 A 
HETATM   24  C17 UNL     1       1.998  25.767   3.252  1.00  0.00     0.001 A 
HETATM   25  C18 UNL     1       1.691  27.107   3.326  1.00  0.00     0.020 A 
ENDBRANCH  19  20
ENDBRANCH  13  18
TORSDOF 2
ENDMDL
MODEL 3
REMARK VINA RESULT: 0.305567031      2.362      7.965
REMARK  2 active torsions:
REMARK  status: ('A' for Active; 'I' for Inactive)
REMARK    1  A    between atoms: C10_13  and  C11_14 
REMARK    2  A    between atoms: C12_15  and  C13_16 
ROOT
HETATM    1  O1  UNL     1       2.220  36.837   4.155  1.00  0.00    -0.266 OA
HETATM    2  C1  UNL     1       1.195  36.079   4.133  1.00  0.00     0.273 A 
HETATM    3  N1  UNL     1      -0.052  36.548   4.096  1.00  0.00    -0.321 N 
ATOM      4  H1  UNL     1      -0.193  37.558   4.084  1.00  0.00     0.169 HD
HETATM    5  C2  UNL     1      -1.120  35.757   4.073  1.00  0.00     0.046 A 
HETATM    6  C3  UNL     1      -2.366  36.319   4.035  1.00  0.00     0.030 A 
HETATM    7  C4  UNL     1      -3.495  35.535   4.011  1.00  0.00     0.002 A 
HETATM    8  C5  UNL     1      -3.364  34.167   4.025  1.00  0.00     0.001 A 
HETATM    9  C6  UNL     1      -2.128  33.571   4.063  1.00  0.00     0.014 A 
HETATM   10  C7  UNL     1      -1.011  34.360   4.087  1.00  0.00     0.003 A 
HETATM   11  C8  UNL     1       0.249  33.833   4.125  1.00  0.00     0.010 A 
HETATM   12  C9  UNL     1       0.456  32.476   4.140  1.00  0.00     0.037 A 
HETATM   13  C10 UNL     1       1.742  32.018   4.178  1.00  0.00     0.034 A 
HETATM   14  C19 UNL     1       2.780  32.909   4.200  1.00  0.00     0.109 A 
HETATM   15  N2  UNL     1       2.593  34.231   4.185  1.00  0.00    -0.359 N 
ATOM     16  H2  UNL     1       3.390  34.868   4.201  1.00  0.00     0.165 HD
HETATM   17  C20 UNL     1       1.341  34.708   4.147  1.00  0.00     0.112 A 
ENDROOT
BRANCH  13  18
HETATM   18  C11 UNL     1       1.976  30.581   4.196  1.00  0.00    -0.060 C 
HETATM   19  C12 UNL     1       2.150  29.387   4.206  1.00  0.00    -0.061 C 
BRANCH  19  20
HETATM   20  C13 UNL     1       2.336  27.963   4.206  1.00  0.00     0.018 A 
HETATM   21  C14 UNL     1       3.136  27.306   5.130  1.00  0.00     0.020 A 
HETATM   22  C15 UNL     1       3.302  25.938   5.113  1.00  0.00     0.001 A 
HETATM   23  C16 UNL     1       2.675  25.157   4.171  1.00  0.00     0.000 A 
HETATM   24  C17 UNL     1       1.869  25.811   3.239  1.00  0.00     0.001 A 
HETATM   25  C18 UNL     1       1.710  27.178   3.262  1.00  0.00     0.020 A 
ENDBRANCH  19  20
ENDBRANCH  13  18
TORSDOF 2
ENDMDL
MODEL 4
REMARK VINA RESULT: 0.613661199      0.501      1.101
REMARK  2 active torsions:
REMARK  status: ('A' for Active; 'I' for Inactive)
REMARK    1  A    between atoms: C10_13  and  C11_14 
REMARK    2  A    between atoms: C12_15  and  C13_16 
ROOT
HETATM    1  O1  UNL     1       5.520  31.225   5.065  1.00  0.00    -0.266 OA
HETATM    2  C1  UNL     1       4.490  30.501   4.869  1.00  0.00     0.273 A 
HETATM    3  N1  UNL     1       4.520  29.169   4.918  1.00  0.00    -0.321 N 
ATOM      4  H1  UNL     1       5.407  28.709   5.122  1.00  0.00     0.169 HD
HETATM    5  C2  UNL     1       3.444  28.415   4.713  1.00  0.00     0.046 A 
HETATM    6  C3  UNL     1       3.562  27.054   4.781  1.00  0.00     0.030 A 
HETATM    7  C4  UNL     1       2.473  26.239   4.575  1.00  0.00     0.002 A 
HETATM    8  C5  UNL     1       1.253  26.806   4.296  1.00  0.00     0.001 A 
HETATM    9  C6  UNL     1       1.101  28.169   4.219  1.00  0.00     0.014 A 
HETATM   10  C7  UNL     1       2.190  28.970   4.426  1.00  0.00     0.003 A 
HETATM   11  C8  UNL     1       2.111  30.332   4.365  1.00  0.00     0.010 A 
HETATM   12  C9  UNL     1       0.924  30.967   4.092  1.00  0.00     0.037 A 
HETATM   13  C10 UNL     1       0.917  32.332   4.047  1.00  0.00     0.034 A 
HETATM   14  C19 UNL     1       2.075  33.027   4.271  1.00  0.00     0.109 A 
HETATM   15  N2  UNL     1       3.235  32.422   4.539  1.00  0.00    -0.359 N 
ATOM     16  H2  UNL     1       4.080  32.970   4.702  1.00  0.00     0.165 HD
HETATM   17  C20 UNL     1       3.271  31.082   4.589  1.00  0.00     0.112 A 
ENDROOT
BRANCH  13  18
HETATM   18  C11 UNL     1      -0.334  33.019   3.757  1.00  0.00    -0.060 C 
HETATM   19  C12 UNL     1      -1.367  33.601   3.532  1.00  0.00    -0.061 C 
BRANCH  19  20
HETATM   20  C13 UNL     1      -2.587  34.314   3.277  1.00  0.00     0.018 A 
HETATM   21  C14 UNL     1      -3.279  35.003   4.264  1.00  0.00     0.020 A 
HETATM   22  C15 UNL     1      -4.449  35.681   4.000  1.00  0.00     0.001 A 
HETATM   23  C16 UNL     1      -4.987  35.706   2.734  1.00  0.00     0.000 A 
HETATM   24  C17 UNL     1      -4.296  35.016   1.738  1.00  0.00     0.001 A 
HETATM   25  C18 UNL     1      -3.128  34.340   2.010  1.00  0.00     0.020 A 
ENDBRANCH  19  20
ENDBRANCH  13  18
TORSDOF 2
ENDMDL
MODEL 5
REMARK VINA RESULT: 1.199544236      3.402      8.330
REMARK  2 active torsions:
REMARK  status: ('A' for Active; 'I' for Inactive)
REMARK    1  A    between atoms: C10_13  and  C11_14 
REMARK    2  A    between atoms: C12_15  and  C13_16 
ROOT
HETATM    1  O1  UNL     1      -3.684  34.564   4.472  1.00  0.00    -0.266 OA
HETATM    2  C1  UNL     1      -2.411  34.590   4.408  1.00  0.00     0.273 A 
HETATM    3  N1  UNL     1      -1.712  35.724   4.360  1.00  0.00    -0.321 N 
ATOM      4  H1  UNL     1      -2.217  36.610   4.375  1.00  0.00     0.169 HD
HETATM    5  C2  UNL     1      -0.384  35.751   4.293  1.00  0.00     0.046 A 
HETATM    6  C3  UNL     1       0.257  36.958   4.247  1.00  0.00     0.030 A 
HETATM    7  C4  UNL     1       1.629  37.028   4.177  1.00  0.00     0.002 A 
HETATM    8  C5  UNL     1       2.361  35.865   4.154  1.00  0.00     0.001 A 
HETATM    9  C6  UNL     1       1.748  34.637   4.198  1.00  0.00     0.014 A 
HETATM   10  C7  UNL     1       0.383  34.578   4.267  1.00  0.00     0.003 A 
HETATM   11  C8  UNL     1      -0.290  33.391   4.315  1.00  0.00     0.010 A 
HETATM   12  C9  UNL     1       0.375  32.190   4.296  1.00  0.00     0.037 A 
HETATM   13  C10 UNL     1      -0.362  31.042   4.346  1.00  0.00     0.034 A 
HETATM   14  C19 UNL     1      -1.727  31.112   4.414  1.00  0.00     0.109 A 
HETATM   15  N2  UNL     1      -2.387  32.273   4.434  1.00  0.00    -0.359 N 
ATOM     16  H2  UNL     1      -3.405  32.289   4.485  1.00  0.00     0.165 HD
HETATM   17  C20 UNL     1      -1.688  33.416   4.385  1.00  0.00     0.112 A 
ENDROOT
BRANCH  13  18
HETATM   18  C11 UNL     1       0.331  29.761   4.326  1.00  0.00    -0.060 C 
HETATM   19  C12 UNL     1       0.923  28.710   4.305  1.00  0.00    -0.061 C 
BRANCH  19  20
HETATM   20  C13 UNL     1       1.649  27.471   4.283  1.00  0.00     0.018 A 
HETATM   21  C14 UNL     1       1.567  26.567   3.233  1.00  0.00     0.020 A 
HETATM   22  C15 UNL     1       2.272  25.383   3.230  1.00  0.00     0.001 A 
HETATM   23  C16 UNL     1       3.095  25.042   4.278  1.00  0.00     0.000 A 
HETATM   24  C17 UNL     1       3.182  25.947   5.336  1.00  0.00     0.001 A 
HETATM   25  C18 UNL     1       2.474  27.127   5.331  1.00  0.00     0.020 A 
ENDBRANCH  19  20
ENDBRANCH  13  18
TORSDOF 2
ENDMDL
