MODEL 1
REMARK VINA RESULT: -3.609337074      0.000      0.000
REMARK  2 active torsions:
REMARK  status: ('A' for Active; 'I' for Inactive)
REMARK    1  A    between atoms: C6_8  and  C7_9 
REMARK    2  A    between atoms: C8_10  and  C9_11 
ROOT
HETATM    1  C1  UNL     1      -5.150  35.556   1.307  1.00  0.00     0.089 C 
HETATM    2  C2  UNL     1      -3.899  35.133   2.001  1.00  0.00     0.079 A 
HETATM    3  N1  UNL     1      -3.186  35.857   2.874  1.00  0.00    -0.343 N 
ATOM      4  H1  UNL     1      -3.419  36.805   3.172  1.00  0.00     0.167 HD
HETATM    5  C3  UNL     1      -2.108  35.153   3.306  1.00  0.00     0.078 A 
HETATM    6  C4  UNL     1      -1.080  35.407   4.175  1.00  0.00     0.036 A 
HETATM    7  C5  UNL     1      -0.125  34.444   4.390  1.00  0.00     0.041 A 
HETATM    8  C6  UNL     1      -0.233  33.244   3.718  1.00  0.00     0.088 A 
HETATM    9  N2  UNL     1      -1.255  33.028   2.873  1.00  0.00    -0.334 N 
ATOM     10  H2  UNL     1      -1.314  32.133   2.388  1.00  0.00     0.168 HD
HETATM   11  C19 UNL     1      -2.194  33.945   2.646  1.00  0.00     0.134 A 
HETATM   12  N3  UNL     1      -3.285  33.946   1.859  1.00  0.00    -0.330 N 
ATOM     13  H3  UNL     1      -3.593  33.180   1.258  1.00  0.00     0.168 HD
ENDROOT
BRANCH   8  14
HETATM   14  C7  UNL     1       0.777  32.254   3.960  1.00  0.00    -0.043 C 
HETATM   15  C8  UNL     1       1.621  31.399   4.160  1.00  0.00    -0.059 C 
BRANCH  15  16
HETATM   16  C9  UNL     1       2.596  30.375   4.390  1.00  0.00     0.029 A 
HETATM   17  C10 UNL     1       3.910  30.683   4.676  1.00  0.00     0.021 A 
HETATM   18  C11 UNL     1       4.836  29.669   4.894  1.00  0.00     0.002 A 
HETATM   19  C12 UNL     1       4.444  28.348   4.828  1.00  0.00     0.012 A 
HETATM   20  C13 UNL     1       3.115  28.057   4.540  1.00  0.00    -0.025 A 
HETATM   21  C14 UNL     1       2.759  26.725   4.481  1.00  0.00     0.012 A 
HETATM   22  C18 UNL     1       2.180  29.065   4.319  1.00  0.00    -0.007 A 
HETATM   23  C15 UNL     1       1.446  26.413   4.197  1.00  0.00     0.001 A 
HETATM   24  C16 UNL     1       0.509  27.399   3.976  1.00  0.00     0.001 A 
HETATM   25  C17 UNL     1       0.867  28.718   4.035  1.00  0.00     0.014 A 
ENDBRANCH  15  16
ENDBRANCH   8  14
TORSDOF 2
ENDMDL
MODEL 2
REMARK VINA RESULT: -2.447647619      3.130      8.187
REMARK  2 active torsions:
REMARK  status: ('A' for Active; 'I' for Inactive)
REMARK    1  A    between atoms: C6_8  and  C7_9 
REMARK    2  A    between atoms: C8_10  and  C9_11 
ROOT
HETATM    1  C1  UNL     1       3.855  24.497   5.668  1.00  0.00     0.089 C 
HETATM    2  C2  UNL     1       3.121  25.686   5.146  1.00  0.00     0.079 A 
HETATM    3  N1  UNL     1       2.217  25.696   4.157  1.00  0.00    -0.343 N 
ATOM      4  H1  UNL     1       1.918  24.872   3.634  1.00  0.00     0.167 HD
HETATM    5  C3  UNL     1       1.754  26.956   3.949  1.00  0.00     0.078 A 
HETATM    6  C4  UNL     1       0.848  27.516   3.089  1.00  0.00     0.036 A 
HETATM    7  C5  UNL     1       0.609  28.867   3.147  1.00  0.00     0.041 A 
HETATM    8  C6  UNL     1       1.296  29.620   4.076  1.00  0.00     0.088 A 
HETATM    9  N2  UNL     1       2.179  29.037   4.905  1.00  0.00    -0.334 N 
ATOM     10  H2  UNL     1       2.674  29.616   5.584  1.00  0.00     0.168 HD
HETATM   11  C19 UNL     1       2.429  27.730   4.870  1.00  0.00     0.134 A 
HETATM   12  N3  UNL     1       3.254  26.948   5.589  1.00  0.00    -0.330 N 
ATOM     13  H3  UNL     1       3.873  27.258   6.339  1.00  0.00     0.168 HD
ENDROOT
BRANCH   8  14
HETATM   14  C7  UNL     1       1.029  31.030   4.117  1.00  0.00    -0.043 C 
HETATM   15  C8  UNL     1       0.785  32.222   4.165  1.00  0.00    -0.059 C 
BRANCH  15  16
HETATM   16  C9  UNL     1       0.479  33.620   4.237  1.00  0.00     0.029 A 
HETATM   17  C10 UNL     1       1.315  34.507   4.884  1.00  0.00     0.021 A 
HETATM   18  C11 UNL     1       0.994  35.859   4.938  1.00  0.00     0.002 A 
HETATM   19  C12 UNL     1      -0.163  36.320   4.345  1.00  0.00     0.012 A 
HETATM   20  C13 UNL     1      -0.993  35.411   3.698  1.00  0.00    -0.025 A 
HETATM   21  C14 UNL     1      -2.141  35.907   3.116  1.00  0.00     0.012 A 
HETATM   22  C18 UNL     1      -0.681  34.055   3.638  1.00  0.00    -0.007 A 
HETATM   23  C15 UNL     1      -2.979  35.023   2.469  1.00  0.00     0.001 A 
HETATM   24  C16 UNL     1      -2.684  33.679   2.400  1.00  0.00     0.001 A 
HETATM   25  C17 UNL     1      -1.544  33.191   2.979  1.00  0.00     0.014 A 
ENDBRANCH  15  16
ENDBRANCH   8  14
TORSDOF 2
ENDMDL
MODEL 3
REMARK VINA RESULT: -2.411326098      3.176      8.370
REMARK  2 active torsions:
REMARK  status: ('A' for Active; 'I' for Inactive)
REMARK    1  A    between atoms: C6_8  and  C7_9 
REMARK    2  A    between atoms: C8_10  and  C9_11 
ROOT
HETATM    1  C1  UNL     1       3.949  24.878   5.834  1.00  0.00     0.089 C 
HETATM    2  C2  UNL     1       3.049  25.869   5.177  1.00  0.00     0.079 A 
HETATM    3  N1  UNL     1       2.331  25.678   4.062  1.00  0.00    -0.343 N 
ATOM      4  H1  UNL     1       2.315  24.814   3.520  1.00  0.00     0.167 HD
HETATM    5  C3  UNL     1       1.625  26.798   3.754  1.00  0.00     0.078 A 
HETATM    6  C4  UNL     1       0.757  27.140   2.752  1.00  0.00     0.036 A 
HETATM    7  C5  UNL     1       0.205  28.398   2.739  1.00  0.00     0.041 A 
HETATM    8  C6  UNL     1       0.546  29.280   3.743  1.00  0.00     0.088 A 
HETATM    9  N2  UNL     1       1.402  28.910   4.711  1.00  0.00    -0.334 N 
ATOM     10  H2  UNL     1       1.639  29.581   5.443  1.00  0.00     0.168 HD
HETATM   11  C19 UNL     1       1.951  27.698   4.747  1.00  0.00     0.134 A 
HETATM   12  N3  UNL     1       2.815  27.122   5.603  1.00  0.00    -0.330 N 
ATOM     13  H3  UNL     1       3.222  27.559   6.431  1.00  0.00     0.168 HD
ENDROOT
BRANCH   8  14
HETATM   14  C7  UNL     1      -0.045  30.588   3.707  1.00  0.00    -0.043 C 
HETATM   15  C8  UNL     1      -0.528  31.705   3.686  1.00  0.00    -0.059 C 
BRANCH  15  16
HETATM   16  C9  UNL     1      -1.076  33.029   3.672  1.00  0.00     0.029 A 
HETATM   17  C10 UNL     1      -2.396  33.258   3.341  1.00  0.00     0.021 A 
HETATM   18  C11 UNL     1      -2.901  34.554   3.336  1.00  0.00     0.002 A 
HETATM   19  C12 UNL     1      -2.085  35.617   3.662  1.00  0.00     0.012 A 
HETATM   20  C13 UNL     1      -0.758  35.366   3.992  1.00  0.00    -0.025 A 
HETATM   21  C14 UNL     1       0.029  36.452   4.313  1.00  0.00     0.012 A 
HETATM   22  C18 UNL     1      -0.241  34.073   4.001  1.00  0.00    -0.007 A 
HETATM   23  C15 UNL     1       1.349  36.228   4.644  1.00  0.00     0.001 A 
HETATM   24  C16 UNL     1       1.874  34.954   4.657  1.00  0.00     0.001 A 
HETATM   25  C17 UNL     1       1.091  33.879   4.339  1.00  0.00     0.014 A 
ENDBRANCH  15  16
ENDBRANCH   8  14
TORSDOF 2
ENDMDL
MODEL 4
REMARK VINA RESULT: -1.274181454      2.714      7.952
REMARK  2 active torsions:
REMARK  status: ('A' for Active; 'I' for Inactive)
REMARK    1  A    between atoms: C6_8  and  C7_9 
REMARK    2  A    between atoms: C8_10  and  C9_11 
ROOT
HETATM    1  C1  UNL     1       2.363  24.476   3.682  1.00  0.00     0.089 C 
HETATM    2  C2  UNL     1       2.475  25.933   3.982  1.00  0.00     0.079 A 
HETATM    3  N1  UNL     1       3.498  26.546   4.591  1.00  0.00    -0.343 N 
ATOM      4  H1  UNL     1       4.340  26.078   4.929  1.00  0.00     0.167 HD
HETATM    5  C3  UNL     1       3.259  27.879   4.696  1.00  0.00     0.078 A 
HETATM    6  C4  UNL     1       3.950  28.941   5.215  1.00  0.00     0.036 A 
HETATM    7  C5  UNL     1       3.400  30.198   5.155  1.00  0.00     0.041 A 
HETATM    8  C6  UNL     1       2.160  30.350   4.568  1.00  0.00     0.088 A 
HETATM    9  N2  UNL     1       1.510  29.285   4.069  1.00  0.00    -0.334 N 
ATOM     10  H2  UNL     1       0.594  29.423   3.640  1.00  0.00     0.168 HD
HETATM   11  C19 UNL     1       2.020  28.056   4.115  1.00  0.00     0.134 A 
HETATM   12  N3  UNL     1       1.556  26.868   3.686  1.00  0.00    -0.330 N 
ATOM     13  H3  UNL     1       0.664  26.705   3.219  1.00  0.00     0.168 HD
ENDROOT
BRANCH   8  14
HETATM   14  C7  UNL     1       1.608  31.673   4.517  1.00  0.00    -0.043 C 
HETATM   15  C8  UNL     1       1.119  32.788   4.469  1.00  0.00    -0.059 C 
BRANCH  15  16
HETATM   16  C9  UNL     1       0.523  34.089   4.405  1.00  0.00     0.029 A 
HETATM   17  C10 UNL     1       1.093  35.174   5.039  1.00  0.00     0.021 A 
HETATM   18  C11 UNL     1       0.492  36.426   4.961  1.00  0.00     0.002 A 
HETATM   19  C12 UNL     1      -0.677  36.589   4.247  1.00  0.00     0.012 A 
HETATM   20  C13 UNL     1      -1.236  35.485   3.614  1.00  0.00    -0.025 A 
HETATM   21  C14 UNL     1      -2.405  35.684   2.909  1.00  0.00     0.012 A 
HETATM   22  C18 UNL     1      -0.643  34.226   3.686  1.00  0.00    -0.007 A 
HETATM   23  C15 UNL     1      -2.977  34.603   2.274  1.00  0.00     0.001 A 
HETATM   24  C16 UNL     1      -2.403  33.352   2.336  1.00  0.00     0.001 A 
HETATM   25  C17 UNL     1      -1.243  33.157   3.036  1.00  0.00     0.014 A 
ENDBRANCH  15  16
ENDBRANCH   8  14
TORSDOF 2
ENDMDL
MODEL 5
REMARK VINA RESULT: -0.580559084      1.091      2.530
REMARK  2 active torsions:
REMARK  status: ('A' for Active; 'I' for Inactive)
REMARK    1  A    between atoms: C6_8  and  C7_9 
REMARK    2  A    between atoms: C8_10  and  C9_11 
ROOT
HETATM    1  C1  UNL     1      -4.915  36.064   1.419  1.00  0.00     0.089 C 
HETATM    2  C2  UNL     1      -4.064  35.155   2.240  1.00  0.00     0.079 A 
HETATM    3  N1  UNL     1      -3.795  35.277   3.548  1.00  0.00    -0.343 N 
ATOM      4  H1  UNL     1      -4.149  36.023   4.147  1.00  0.00     0.167 HD
HETATM    5  C3  UNL     1      -2.986  34.269   3.962  1.00  0.00     0.078 A 
HETATM    6  C4  UNL     1      -2.422  33.921   5.160  1.00  0.00     0.036 A 
HETATM    7  C5  UNL     1      -1.627  32.803   5.233  1.00  0.00     0.041 A 
HETATM    8  C6  UNL     1      -1.422  32.063   4.086  1.00  0.00     0.088 A 
HETATM    9  N2  UNL     1      -1.991  32.433   2.927  1.00  0.00    -0.334 N 
ATOM     10  H2  UNL     1      -1.825  31.869   2.093  1.00  0.00     0.168 HD
HETATM   11  C19 UNL     1      -2.765  33.512   2.830  1.00  0.00     0.134 A 
HETATM   12  N3  UNL     1      -3.425  34.061   1.793  1.00  0.00    -0.330 N 
ATOM     13  H3  UNL     1      -3.438  33.708   0.836  1.00  0.00     0.168 HD
ENDROOT
BRANCH   8  14
HETATM   14  C7  UNL     1      -0.588  30.899   4.189  1.00  0.00    -0.043 C 
HETATM   15  C8  UNL     1       0.135  29.922   4.264  1.00  0.00    -0.059 C 
BRANCH  15  16
HETATM   16  C9  UNL     1       1.003  28.784   4.340  1.00  0.00     0.029 A 
HETATM   17  C10 UNL     1       0.513  27.498   4.248  1.00  0.00     0.021 A 
HETATM   18  C11 UNL     1       1.379  26.412   4.325  1.00  0.00     0.002 A 
HETATM   19  C12 UNL     1       2.733  26.617   4.491  1.00  0.00     0.012 A 
HETATM   20  C13 UNL     1       3.207  27.920   4.581  1.00  0.00    -0.025 A 
HETATM   21  C14 UNL     1       4.567  28.088   4.748  1.00  0.00     0.012 A 
HETATM   22  C18 UNL     1       2.349  29.015   4.506  1.00  0.00    -0.007 A 
HETATM   23  C15 UNL     1       5.060  29.372   4.839  1.00  0.00     0.001 A 
HETATM   24  C16 UNL     1       4.224  30.465   4.767  1.00  0.00     0.001 A 
HETATM   25  C17 UNL     1       2.876  30.295   4.601  1.00  0.00     0.014 A 
ENDBRANCH  15  16
ENDBRANCH   8  14
TORSDOF 2
ENDMDL
