MODEL 1
REMARK VINA RESULT: -7.260114489      0.000      0.000
REMARK  6 active torsions:
REMARK  status: ('A' for Active; 'I' for Inactive)
REMARK    1  A    between atoms: N1_2  and  C2_4 
REMARK    2  A    between atoms: C2_4  and  N2_6 
REMARK    3  A    between atoms: C5_9  and  C6_10 
REMARK    4  A    between atoms: C5_9  and  C15_23 
REMARK    5  A    between atoms: C7_11  and  C8_12 
REMARK    6  A    between atoms: C12_16  and  C13_17 
ROOT
HETATM    1  N2  UNL     1      43.528  -0.882  24.992  1.00  0.00    -0.357 N 
HETATM    2  C3  UNL     1      42.463  -1.580  25.630  1.00  0.00     0.127 C 
HETATM    3  C4  UNL     1      42.399  -1.542  27.087  1.00  0.00     0.049 C 
HETATM    4  C5  UNL     1      43.000  -0.351  27.797  1.00  0.00     0.070 C 
HETATM    5  C21 UNL     1      43.970   0.459  27.036  1.00  0.00     0.125 C 
HETATM    6 CL2  UNL     1      43.311   2.134  26.944  1.00  0.00    -0.121 Cl
HETATM    7  C22 UNL     1      44.373   0.022  25.689  1.00  0.00     0.147 C 
ENDROOT
BRANCH   4   8
HETATM    8  C6  UNL     1      43.734  -0.975  28.938  1.00  0.00    -0.083 C 
HETATM    9  C7  UNL     1      44.301  -1.458  29.911  1.00  0.00    -0.047 C 
BRANCH   9  10
HETATM   10  C8  UNL     1      44.937  -1.987  31.097  1.00  0.00     0.089 A 
HETATM   11  C9  UNL     1      44.198  -2.597  32.089  1.00  0.00     0.039 A 
HETATM   12  C10 UNL     1      44.805  -3.137  33.178  1.00  0.00     0.005 A 
HETATM   13  C11 UNL     1      46.181  -3.062  33.264  1.00  0.00     0.034 A 
HETATM   14  C12 UNL     1      46.942  -2.451  32.273  1.00  0.00     0.119 A 
HETATM   15  N3  UNL     1      46.286  -1.927  31.211  1.00  0.00    -0.341 N 
HETATM   16  C14 UNL     1      47.074  -1.288  30.202  1.00  0.00     0.157 C 
BRANCH  14  17
HETATM   17  C13 UNL     1      48.390  -2.410  32.403  1.00  0.00     0.432 C 
HETATM   18  F1  UNL     1      48.746  -2.981  33.636  1.00  0.00    -0.165 F 
HETATM   19  F2  UNL     1      48.963  -1.166  32.385  1.00  0.00    -0.165 F 
HETATM   20  F3  UNL     1      48.950  -3.284  31.459  1.00  0.00    -0.165 F 
ENDBRANCH  14  17
ENDBRANCH   9  10
ENDBRANCH   4   8
BRANCH   4  21
HETATM   21  C15 UNL     1      41.916   0.480  28.385  1.00  0.00    -0.034 A 
HETATM   22  C16 UNL     1      40.705   0.752  27.790  1.00  0.00     0.009 A 
HETATM   23  C17 UNL     1      39.752   1.562  28.392  1.00  0.00     0.002 A 
HETATM   24  C18 UNL     1      40.051   2.095  29.623  1.00  0.00     0.024 A 
HETATM   25  C19 UNL     1      41.274   1.833  30.255  1.00  0.00     0.034 A 
HETATM   26 CL1  UNL     1      41.556   2.542  31.827  1.00  0.00    -0.084 Cl
HETATM   27  C20 UNL     1      42.197   1.032  29.636  1.00  0.00     0.032 A 
ENDBRANCH   4  21
BRANCH   1  28
HETATM   28  C2  UNL     1      43.693  -1.140  23.572  1.00  0.00     0.169 C 
HETATM   29  S1  UNL     1      43.433   0.060  22.503  1.00  0.00    -0.041 SA
BRANCH  28  30
HETATM   30  N1  UNL     1      44.071  -2.421  23.105  1.00  0.00    -0.371 N 
HETATM   31  C1  UNL     1      43.237  -3.090  22.126  1.00  0.00     0.148 C 
ATOM     32  H1  UNL     1      44.920  -2.868  23.452  1.00  0.00     0.161 HD
ENDBRANCH  28  30
ENDBRANCH   1  28
TORSDOF 6
ENDMDL
MODEL 2
REMARK VINA RESULT: -7.243090466      4.756      6.725
REMARK  6 active torsions:
REMARK  status: ('A' for Active; 'I' for Inactive)
REMARK    1  A    between atoms: N1_2  and  C2_4 
REMARK    2  A    between atoms: C2_4  and  N2_6 
REMARK    3  A    between atoms: C5_9  and  C6_10 
REMARK    4  A    between atoms: C5_9  and  C15_23 
REMARK    5  A    between atoms: C7_11  and  C8_12 
REMARK    6  A    between atoms: C12_16  and  C13_17 
ROOT
HETATM    1  N2  UNL     1      42.470   0.875  24.996  1.00  0.00    -0.357 N 
HETATM    2  C3  UNL     1      43.535   1.573  25.635  1.00  0.00     0.127 C 
HETATM    3  C4  UNL     1      43.600   1.532  27.092  1.00  0.00     0.049 C 
HETATM    4  C5  UNL     1      42.999   0.339  27.801  1.00  0.00     0.070 C 
HETATM    5  C21 UNL     1      42.029  -0.469  27.038  1.00  0.00     0.125 C 
HETATM    6 CL2  UNL     1      42.688  -2.144  26.944  1.00  0.00    -0.121 Cl
HETATM    7  C22 UNL     1      41.626  -0.030  25.693  1.00  0.00     0.147 C 
ENDROOT
BRANCH   4   8
HETATM    8  C6  UNL     1      42.266   0.962  28.943  1.00  0.00    -0.083 C 
HETATM    9  C7  UNL     1      41.701   1.445  29.917  1.00  0.00    -0.047 C 
BRANCH   9  10
HETATM   10  C8  UNL     1      41.071   1.979  31.104  1.00  0.00     0.089 A 
HETATM   11  C9  UNL     1      41.815   2.580  32.097  1.00  0.00     0.039 A 
HETATM   12  C10 UNL     1      41.215   3.124  33.187  1.00  0.00     0.005 A 
HETATM   13  C11 UNL     1      39.838   3.062  33.274  1.00  0.00     0.034 A 
HETATM   14  C12 UNL     1      39.070   2.459  32.281  1.00  0.00     0.119 A 
HETATM   15  N3  UNL     1      39.721   1.931  31.219  1.00  0.00    -0.341 N 
HETATM   16  C14 UNL     1      38.927   1.301  30.208  1.00  0.00     0.157 C 
BRANCH  14  17
HETATM   17  C13 UNL     1      37.622   2.431  32.412  1.00  0.00     0.432 C 
HETATM   18  F1  UNL     1      37.270   3.037  33.630  1.00  0.00    -0.165 F 
HETATM   19  F2  UNL     1      37.041   1.192  32.427  1.00  0.00    -0.165 F 
HETATM   20  F3  UNL     1      37.068   3.285  31.446  1.00  0.00    -0.165 F 
ENDBRANCH  14  17
ENDBRANCH   9  10
ENDBRANCH   4   8
BRANCH   4  21
HETATM   21  C15 UNL     1      44.083  -0.493  28.387  1.00  0.00    -0.034 A 
HETATM   22  C16 UNL     1      45.291  -0.770  27.788  1.00  0.00     0.009 A 
HETATM   23  C17 UNL     1      46.244  -1.581  28.389  1.00  0.00     0.002 A 
HETATM   24  C18 UNL     1      45.949  -2.108  29.623  1.00  0.00     0.024 A 
HETATM   25  C19 UNL     1      44.729  -1.841  30.259  1.00  0.00     0.034 A 
HETATM   26 CL1  UNL     1      44.452  -2.543  31.835  1.00  0.00    -0.084 Cl
HETATM   27  C20 UNL     1      43.806  -1.039  29.641  1.00  0.00     0.032 A 
ENDBRANCH   4  21
BRANCH   1  28
HETATM   28  C2  UNL     1      42.306   1.135  23.577  1.00  0.00     0.169 C 
HETATM   29  S1  UNL     1      42.541  -0.069  22.508  1.00  0.00    -0.041 SA
BRANCH  28  30
HETATM   30  N1  UNL     1      41.947   2.423  23.111  1.00  0.00    -0.371 N 
HETATM   31  C1  UNL     1      42.770   3.063  22.104  1.00  0.00     0.148 C 
ATOM     32  H1  UNL     1      41.121   2.894  23.478  1.00  0.00     0.161 HD
ENDBRANCH  28  30
ENDBRANCH   1  28
TORSDOF 6
ENDMDL
MODEL 3
REMARK VINA RESULT: -7.144832507      1.288      2.015
REMARK  6 active torsions:
REMARK  status: ('A' for Active; 'I' for Inactive)
REMARK    1  A    between atoms: N1_2  and  C2_4 
REMARK    2  A    between atoms: C2_4  and  N2_6 
REMARK    3  A    between atoms: C5_9  and  C6_10 
REMARK    4  A    between atoms: C5_9  and  C15_23 
REMARK    5  A    between atoms: C7_11  and  C8_12 
REMARK    6  A    between atoms: C12_16  and  C13_17 
ROOT
HETATM    1  N2  UNL     1      43.431  -0.795  24.796  1.00  0.00    -0.357 N 
HETATM    2  C3  UNL     1      42.461  -1.567  25.497  1.00  0.00     0.127 C 
HETATM    3  C4  UNL     1      42.486  -1.532  26.956  1.00  0.00     0.049 C 
HETATM    4  C5  UNL     1      43.045  -0.301  27.631  1.00  0.00     0.070 C 
HETATM    5  C21 UNL     1      43.905   0.575  26.813  1.00  0.00     0.125 C 
HETATM    6 CL2  UNL     1      43.125   2.199  26.770  1.00  0.00    -0.121 Cl
HETATM    7  C22 UNL     1      44.252   0.167  25.442  1.00  0.00     0.147 C 
ENDROOT
BRANCH   4   8
HETATM    8  C6  UNL     1      43.892  -0.871  28.721  1.00  0.00    -0.083 C 
HETATM    9  C7  UNL     1      44.631  -1.306  29.596  1.00  0.00    -0.047 C 
BRANCH   9  10
HETATM   10  C8  UNL     1      45.554  -1.788  30.600  1.00  0.00     0.089 A 
HETATM   11  C9  UNL     1      46.909  -1.847  30.353  1.00  0.00     0.039 A 
HETATM   12  C10 UNL     1      47.777  -2.254  31.316  1.00  0.00     0.005 A 
HETATM   13  C11 UNL     1      47.266  -2.604  32.550  1.00  0.00     0.034 A 
HETATM   14  C12 UNL     1      45.901  -2.550  32.818  1.00  0.00     0.119 A 
HETATM   15  N3  UNL     1      45.082  -2.141  31.821  1.00  0.00    -0.341 N 
HETATM   16  C14 UNL     1      43.678  -2.101  32.098  1.00  0.00     0.157 C 
BRANCH  14  17
HETATM   17  C13 UNL     1      45.413  -2.916  34.138  1.00  0.00     0.432 C 
HETATM   18  F1  UNL     1      46.507  -3.314  34.926  1.00  0.00    -0.165 F 
HETATM   19  F2  UNL     1      44.519  -3.951  34.186  1.00  0.00    -0.165 F 
HETATM   20  F3  UNL     1      44.947  -1.759  34.780  1.00  0.00    -0.165 F 
ENDBRANCH  14  17
ENDBRANCH   9  10
ENDBRANCH   4   8
BRANCH   4  21
HETATM   21  C15 UNL     1      41.944   0.451  28.290  1.00  0.00    -0.034 A 
HETATM   22  C16 UNL     1      40.700   0.683  27.750  1.00  0.00     0.009 A 
HETATM   23  C17 UNL     1      39.732   1.421  28.416  1.00  0.00     0.002 A 
HETATM   24  C18 UNL     1      40.050   1.922  29.655  1.00  0.00     0.024 A 
HETATM   25  C19 UNL     1      41.308   1.700  30.232  1.00  0.00     0.034 A 
HETATM   26 CL1  UNL     1      41.613   2.363  31.820  1.00  0.00    -0.084 Cl
HETATM   27  C20 UNL     1      42.245   0.970  29.550  1.00  0.00     0.032 A 
ENDBRANCH   4  21
BRANCH   1  28
HETATM   28  C2  UNL     1      43.523  -1.042  23.367  1.00  0.00     0.169 C 
HETATM   29  S1  UNL     1      43.024   0.102  22.322  1.00  0.00    -0.041 SA
BRANCH  28  30
HETATM   30  N1  UNL     1      44.037  -2.264  22.872  1.00  0.00    -0.371 N 
HETATM   31  C1  UNL     1      43.155  -3.160  22.152  1.00  0.00     0.148 C 
ATOM     32  H1  UNL     1      45.016  -2.511  23.020  1.00  0.00     0.161 HD
ENDBRANCH  28  30
ENDBRANCH   1  28
TORSDOF 6
ENDMDL
MODEL 4
REMARK VINA RESULT: -7.129387893      3.991      6.096
REMARK  6 active torsions:
REMARK  status: ('A' for Active; 'I' for Inactive)
REMARK    1  A    between atoms: N1_2  and  C2_4 
REMARK    2  A    between atoms: C2_4  and  N2_6 
REMARK    3  A    between atoms: C5_9  and  C6_10 
REMARK    4  A    between atoms: C5_9  and  C15_23 
REMARK    5  A    between atoms: C7_11  and  C8_12 
REMARK    6  A    between atoms: C12_16  and  C13_17 
ROOT
HETATM    1  N2  UNL     1      42.566   0.792  24.814  1.00  0.00    -0.357 N 
HETATM    2  C3  UNL     1      43.537   1.562  25.517  1.00  0.00     0.127 C 
HETATM    3  C4  UNL     1      43.510   1.527  26.975  1.00  0.00     0.049 C 
HETATM    4  C5  UNL     1      42.947   0.297  27.649  1.00  0.00     0.070 C 
HETATM    5  C21 UNL     1      42.086  -0.578  26.830  1.00  0.00     0.125 C 
HETATM    6 CL2  UNL     1      42.864  -2.203  26.787  1.00  0.00    -0.121 Cl
HETATM    7  C22 UNL     1      41.743  -0.169  25.459  1.00  0.00     0.147 C 
ENDROOT
BRANCH   4   8
HETATM    8  C6  UNL     1      42.100   0.868  28.738  1.00  0.00    -0.083 C 
HETATM    9  C7  UNL     1      41.360   1.303  29.612  1.00  0.00    -0.047 C 
BRANCH   9  10
HETATM   10  C8  UNL     1      40.437   1.787  30.616  1.00  0.00     0.089 A 
HETATM   11  C9  UNL     1      39.084   1.859  30.363  1.00  0.00     0.039 A 
HETATM   12  C10 UNL     1      38.215   2.266  31.325  1.00  0.00     0.005 A 
HETATM   13  C11 UNL     1      38.724   2.603  32.564  1.00  0.00     0.034 A 
HETATM   14  C12 UNL     1      40.087   2.536  32.837  1.00  0.00     0.119 A 
HETATM   15  N3  UNL     1      40.906   2.126  31.842  1.00  0.00    -0.341 N 
HETATM   16  C14 UNL     1      42.308   2.072  32.124  1.00  0.00     0.157 C 
BRANCH  14  17
HETATM   17  C13 UNL     1      40.571   2.888  34.162  1.00  0.00     0.432 C 
HETATM   18  F1  UNL     1      39.486   3.342  34.931  1.00  0.00    -0.165 F 
HETATM   19  F2  UNL     1      41.512   3.881  34.217  1.00  0.00    -0.165 F 
HETATM   20  F3  UNL     1      40.974   1.715  34.819  1.00  0.00    -0.165 F 
ENDBRANCH  14  17
ENDBRANCH   9  10
ENDBRANCH   4   8
BRANCH   4  21
HETATM   21  C15 UNL     1      44.045  -0.458  28.309  1.00  0.00    -0.034 A 
HETATM   22  C16 UNL     1      45.290  -0.692  27.771  1.00  0.00     0.009 A 
HETATM   23  C17 UNL     1      46.256  -1.432  28.439  1.00  0.00     0.002 A 
HETATM   24  C18 UNL     1      45.935  -1.933  29.677  1.00  0.00     0.024 A 
HETATM   25  C19 UNL     1      44.677  -1.708  30.253  1.00  0.00     0.034 A 
HETATM   26 CL1  UNL     1      44.368  -2.371  31.840  1.00  0.00    -0.084 Cl
HETATM   27  C20 UNL     1      43.742  -0.976  29.569  1.00  0.00     0.032 A 
ENDBRANCH   4  21
BRANCH   1  28
HETATM   28  C2  UNL     1      42.477   1.039  23.385  1.00  0.00     0.169 C 
HETATM   29  S1  UNL     1      42.979  -0.103  22.340  1.00  0.00    -0.041 SA
BRANCH  28  30
HETATM   30  N1  UNL     1      41.963   2.262  22.890  1.00  0.00    -0.371 N 
HETATM   31  C1  UNL     1      42.845   3.157  22.168  1.00  0.00     0.148 C 
ATOM     32  H1  UNL     1      40.985   2.510  23.039  1.00  0.00     0.161 HD
ENDBRANCH  28  30
ENDBRANCH   1  28
TORSDOF 6
ENDMDL
MODEL 5
REMARK VINA RESULT: -6.404825723      4.832      6.883
REMARK  6 active torsions:
REMARK  status: ('A' for Active; 'I' for Inactive)
REMARK    1  A    between atoms: N1_2  and  C2_4 
REMARK    2  A    between atoms: C2_4  and  N2_6 
REMARK    3  A    between atoms: C5_9  and  C6_10 
REMARK    4  A    between atoms: C5_9  and  C15_23 
REMARK    5  A    between atoms: C7_11  and  C8_12 
REMARK    6  A    between atoms: C12_16  and  C13_17 
ROOT
HETATM    1  N2  UNL     1      42.350   0.994  24.981  1.00  0.00    -0.357 N 
HETATM    2  C3  UNL     1      43.489   1.551  25.629  1.00  0.00     0.127 C 
HETATM    3  C4  UNL     1      43.553   1.470  27.085  1.00  0.00     0.049 C 
HETATM    4  C5  UNL     1      42.824   0.338  27.770  1.00  0.00     0.070 C 
HETATM    5  C21 UNL     1      41.765  -0.338  26.995  1.00  0.00     0.125 C 
HETATM    6 CL2  UNL     1      42.230  -2.074  26.859  1.00  0.00    -0.121 Cl
HETATM    7  C22 UNL     1      41.411   0.174  25.662  1.00  0.00     0.147 C 
ENDROOT
BRANCH   4   8
HETATM    8  C6  UNL     1      42.169   1.013  28.930  1.00  0.00    -0.083 C 
HETATM    9  C7  UNL     1      41.650   1.523  29.915  1.00  0.00    -0.047 C 
BRANCH   9  10
HETATM   10  C8  UNL     1      41.051   2.071  31.112  1.00  0.00     0.089 A 
HETATM   11  C9  UNL     1      41.814   2.728  32.054  1.00  0.00     0.039 A 
HETATM   12  C10 UNL     1      41.240   3.284  33.153  1.00  0.00     0.005 A 
HETATM   13  C11 UNL     1      39.871   3.177  33.300  1.00  0.00     0.034 A 
HETATM   14  C12 UNL     1      39.085   2.518  32.359  1.00  0.00     0.119 A 
HETATM   15  N3  UNL     1      39.709   1.980  31.286  1.00  0.00    -0.341 N 
HETATM   16  C14 UNL     1      38.897   1.292  30.329  1.00  0.00     0.157 C 
BRANCH  14  17
HETATM   17  C13 UNL     1      37.646   2.444  32.552  1.00  0.00     0.432 C 
HETATM   18  F1  UNL     1      37.323   3.069  33.770  1.00  0.00    -0.165 F 
HETATM   19  F2  UNL     1      37.109   1.186  32.621  1.00  0.00    -0.165 F 
HETATM   20  F3  UNL     1      37.022   3.254  31.590  1.00  0.00    -0.165 F 
ENDBRANCH  14  17
ENDBRANCH   9  10
ENDBRANCH   4   8
BRANCH   4  21
HETATM   21  C15 UNL     1      43.808  -0.625  28.331  1.00  0.00    -0.034 A 
HETATM   22  C16 UNL     1      43.890  -1.004  29.652  1.00  0.00     0.009 A 
HETATM   23  C17 UNL     1      44.858  -1.890  30.107  1.00  0.00     0.002 A 
HETATM   24  C18 UNL     1      45.747  -2.392  29.188  1.00  0.00     0.024 A 
HETATM   25  C19 UNL     1      45.686  -2.027  27.836  1.00  0.00     0.034 A 
HETATM   26 CL1  UNL     1      46.850  -2.732  26.740  1.00  0.00    -0.084 Cl
HETATM   27  C20 UNL     1      44.722  -1.149  27.416  1.00  0.00     0.032 A 
ENDBRANCH   4  21
BRANCH   1  28
HETATM   28  C2  UNL     1      42.211   1.303  23.569  1.00  0.00     0.169 C 
HETATM   29  S1  UNL     1      42.371   0.115  22.467  1.00  0.00    -0.041 SA
BRANCH  28  30
HETATM   30  N1  UNL     1      41.943   2.624  23.137  1.00  0.00    -0.371 N 
HETATM   31  C1  UNL     1      42.773   3.211  22.103  1.00  0.00     0.148 C 
ATOM     32  H1  UNL     1      41.177   3.157  23.548  1.00  0.00     0.161 HD
ENDBRANCH  28  30
ENDBRANCH   1  28
TORSDOF 6
ENDMDL
