MODEL 1
REMARK VINA RESULT: -5.290336372      0.000      0.000
REMARK  2 active torsions:
REMARK  status: ('A' for Active; 'I' for Inactive)
REMARK    1  A    between atoms: C7_7  and  C8_8 
REMARK       I    between atoms: C8_8  and  N1_10 
REMARK    2  A    between atoms: N1_10  and  C9_12 
ROOT
HETATM    1  C1  UNL     1      44.889  -0.805  22.907  1.00  0.00     0.045 C 
HETATM    2  C2  UNL     1      44.138   0.414  23.366  1.00  0.00    -0.064 C 
HETATM    3  C3  UNL     1      42.879   0.611  22.661  1.00  0.00     0.004 C 
HETATM    4  C4  UNL     1      41.614   0.796  22.933  1.00  0.00     0.000 C 
HETATM    5  C5  UNL     1      40.854   0.892  24.151  1.00  0.00    -0.003 C 
HETATM    6  C6  UNL     1      41.098   0.627  25.392  1.00  0.00    -0.006 C 
HETATM    7  C7  UNL     1      42.129   0.127  26.329  1.00  0.00     0.083 C 
HETATM    8  C14 UNL     1      41.474  -1.140  26.922  1.00  0.00     0.027 C 
HETATM    9  C15 UNL     1      42.309  -1.758  27.973  1.00  0.00     0.019 C 
HETATM   10  C16 UNL     1      43.722  -1.925  27.610  1.00  0.00     0.078 C 
HETATM   11 BR1  UNL     1      44.743  -1.709  29.275  1.00  0.00    -0.090 Br
HETATM   12  C17 UNL     1      44.336  -1.025  26.616  1.00  0.00     0.123 C 
HETATM   13 CL1  UNL     1      45.615   0.001  27.307  1.00  0.00    -0.122 Cl
HETATM   14  C18 UNL     1      43.382  -0.313  25.694  1.00  0.00     0.095 C 
HETATM   15 CL2  UNL     1      42.805  -1.716  24.658  1.00  0.00    -0.114 Cl
HETATM   16  C19 UNL     1      44.126   0.641  24.846  1.00  0.00     0.137 C 
HETATM   17 CL3  UNL     1      43.660   2.360  25.059  1.00  0.00    -0.118 Cl
ENDROOT
BRANCH   7  18
HETATM   18  C8  UNL     1      42.172   1.077  27.453  1.00  0.00     0.237 C 
HETATM   19  O1  UNL     1      43.143   1.602  27.995  1.00  0.00    -0.272 OA
HETATM   20  N1  UNL     1      40.918   1.449  27.997  1.00  0.00    -0.312 N 
ATOM     21  H1  UNL     1      40.176   1.580  27.310  1.00  0.00     0.170 HD
BRANCH  20  22
HETATM   22  C9  UNL     1      40.572   1.643  29.190  1.00  0.00     0.110 A 
HETATM   23  C10 UNL     1      39.308   1.811  29.676  1.00  0.00     0.090 A 
HETATM   24  C11 UNL     1      39.085   2.011  31.010  1.00  0.00     0.121 A 
HETATM   25  F1  UNL     1      37.828   2.182  31.528  1.00  0.00    -0.206 F 
HETATM   26  C12 UNL     1      40.128   2.048  31.901  1.00  0.00     0.059 A 
HETATM   27  C13 UNL     1      41.396   1.876  31.388  1.00  0.00     0.092 A 
HETATM   28  N2  UNL     1      41.597   1.684  30.095  1.00  0.00    -0.352 N 
ATOM     29  H2  UNL     1      42.553   1.562  29.759  1.00  0.00     0.166 HD
ENDBRANCH  20  22
ENDBRANCH   7  18
TORSDOF 2
ENDMDL
MODEL 2
REMARK VINA RESULT: -5.279533446      3.457      4.981
REMARK  2 active torsions:
REMARK  status: ('A' for Active; 'I' for Inactive)
REMARK    1  A    between atoms: C7_7  and  C8_8 
REMARK       I    between atoms: C8_8  and  N1_10 
REMARK    2  A    between atoms: N1_10  and  C9_12 
ROOT
HETATM    1  C1  UNL     1      41.112   0.802  22.909  1.00  0.00     0.045 C 
HETATM    2  C2  UNL     1      41.863  -0.417  23.368  1.00  0.00    -0.064 C 
HETATM    3  C3  UNL     1      43.122  -0.613  22.661  1.00  0.00     0.004 C 
HETATM    4  C4  UNL     1      44.387  -0.798  22.932  1.00  0.00     0.000 C 
HETATM    5  C5  UNL     1      45.148  -0.893  24.150  1.00  0.00    -0.003 C 
HETATM    6  C6  UNL     1      44.904  -0.629  25.392  1.00  0.00    -0.006 C 
HETATM    7  C7  UNL     1      43.873  -0.130  26.330  1.00  0.00     0.083 C 
HETATM    8  C14 UNL     1      44.529   1.137  26.923  1.00  0.00     0.027 C 
HETATM    9  C15 UNL     1      43.693   1.754  27.974  1.00  0.00     0.019 C 
HETATM   10  C16 UNL     1      42.280   1.920  27.612  1.00  0.00     0.078 C 
HETATM   11 BR1  UNL     1      41.260   1.703  29.277  1.00  0.00    -0.090 Br
HETATM   12  C17 UNL     1      41.666   1.021  26.618  1.00  0.00     0.123 C 
HETATM   13 CL1  UNL     1      40.388  -0.006  27.309  1.00  0.00    -0.122 Cl
HETATM   14  C18 UNL     1      42.620   0.309  25.695  1.00  0.00     0.095 C 
HETATM   15 CL2  UNL     1      43.195   1.713  24.659  1.00  0.00    -0.114 Cl
HETATM   16  C19 UNL     1      41.876  -0.645  24.847  1.00  0.00     0.137 C 
HETATM   17 CL3  UNL     1      42.343  -2.363  25.059  1.00  0.00    -0.118 Cl
ENDROOT
BRANCH   7  18
HETATM   18  C8  UNL     1      43.832  -1.080  27.452  1.00  0.00     0.237 C 
HETATM   19  O1  UNL     1      42.862  -1.607  27.995  1.00  0.00    -0.272 OA
HETATM   20  N1  UNL     1      45.086  -1.450  27.997  1.00  0.00    -0.312 N 
ATOM     21  H1  UNL     1      45.828  -1.580  27.310  1.00  0.00     0.170 HD
BRANCH  20  22
HETATM   22  C9  UNL     1      45.432  -1.644  29.191  1.00  0.00     0.110 A 
HETATM   23  C10 UNL     1      46.696  -1.812  29.677  1.00  0.00     0.090 A 
HETATM   24  C11 UNL     1      46.919  -2.011  31.011  1.00  0.00     0.121 A 
HETATM   25  F1  UNL     1      48.176  -2.181  31.529  1.00  0.00    -0.206 F 
HETATM   26  C12 UNL     1      45.875  -2.049  31.901  1.00  0.00     0.059 A 
HETATM   27  C13 UNL     1      44.608  -1.877  31.388  1.00  0.00     0.092 A 
HETATM   28  N2  UNL     1      44.407  -1.686  30.095  1.00  0.00    -0.352 N 
ATOM     29  H2  UNL     1      43.451  -1.564  29.758  1.00  0.00     0.166 HD
ENDBRANCH  20  22
ENDBRANCH   7  18
TORSDOF 2
ENDMDL
MODEL 3
REMARK VINA RESULT: -5.000008771      3.162      4.691
REMARK  2 active torsions:
REMARK  status: ('A' for Active; 'I' for Inactive)
REMARK    1  A    between atoms: C7_7  and  C8_8 
REMARK       I    between atoms: C8_8  and  N1_10 
REMARK    2  A    between atoms: N1_10  and  C9_12 
ROOT
HETATM    1  C1  UNL     1      41.208   0.899  22.828  1.00  0.00     0.045 C 
HETATM    2  C2  UNL     1      41.895  -0.354  23.298  1.00  0.00    -0.064 C 
HETATM    3  C3  UNL     1      43.162  -0.600  22.624  1.00  0.00     0.004 C 
HETATM    4  C4  UNL     1      44.410  -0.839  22.927  1.00  0.00     0.000 C 
HETATM    5  C5  UNL     1      45.134  -0.975  24.164  1.00  0.00    -0.003 C 
HETATM    6  C6  UNL     1      44.869  -0.709  25.401  1.00  0.00    -0.006 C 
HETATM    7  C7  UNL     1      43.835  -0.171  26.314  1.00  0.00     0.083 C 
HETATM    8  C14 UNL     1      44.528   1.063  26.934  1.00  0.00     0.027 C 
HETATM    9  C15 UNL     1      43.691   1.708  27.967  1.00  0.00     0.019 C 
HETATM   10  C16 UNL     1      42.297   1.937  27.569  1.00  0.00     0.078 C 
HETATM   11 BR1  UNL     1      41.224   1.754  29.205  1.00  0.00    -0.090 Br
HETATM   12  C17 UNL     1      41.672   1.071  26.553  1.00  0.00     0.123 C 
HETATM   13 CL1  UNL     1      40.334   0.095  27.202  1.00  0.00    -0.122 Cl
HETATM   14  C18 UNL     1      42.619   0.325  25.650  1.00  0.00     0.095 C 
HETATM   15 CL2  UNL     1      43.281   1.709  24.640  1.00  0.00    -0.114 Cl
HETATM   16  C19 UNL     1      41.858  -0.592  24.776  1.00  0.00     0.137 C 
HETATM   17 CL3  UNL     1      42.246  -2.329  24.987  1.00  0.00    -0.118 Cl
ENDROOT
BRANCH   7  18
HETATM   18  C8  UNL     1      43.723  -1.126  27.429  1.00  0.00     0.237 C 
HETATM   19  O1  UNL     1      42.719  -1.633  27.925  1.00  0.00    -0.272 OA
HETATM   20  N1  UNL     1      44.943  -1.527  28.025  1.00  0.00    -0.312 N 
ATOM     21  H1  UNL     1      45.712  -1.670  27.371  1.00  0.00     0.170 HD
BRANCH  20  22
HETATM   22  C9  UNL     1      45.232  -1.735  29.232  1.00  0.00     0.110 A 
HETATM   23  C10 UNL     1      44.383  -2.051  30.251  1.00  0.00     0.090 A 
HETATM   24  C11 UNL     1      44.848  -2.254  31.521  1.00  0.00     0.121 A 
HETATM   25  F1  UNL     1      44.021  -2.574  32.566  1.00  0.00    -0.206 F 
HETATM   26  C12 UNL     1      46.186  -2.145  31.806  1.00  0.00     0.059 A 
HETATM   27  C13 UNL     1      47.025  -1.825  30.761  1.00  0.00     0.092 A 
HETATM   28  N2  UNL     1      46.561  -1.631  29.538  1.00  0.00    -0.352 N 
ATOM     29  H2  UNL     1      47.219  -1.394  28.794  1.00  0.00     0.166 HD
ENDBRANCH  20  22
ENDBRANCH   7  18
TORSDOF 2
ENDMDL
MODEL 4
REMARK VINA RESULT: -4.950794976      0.959      1.215
REMARK  2 active torsions:
REMARK  status: ('A' for Active; 'I' for Inactive)
REMARK    1  A    between atoms: C7_7  and  C8_8 
REMARK       I    between atoms: C8_8  and  N1_10 
REMARK    2  A    between atoms: N1_10  and  C9_12 
ROOT
HETATM    1  C1  UNL     1      44.801  -0.929  22.877  1.00  0.00     0.045 C 
HETATM    2  C2  UNL     1      44.118   0.325  23.349  1.00  0.00    -0.064 C 
HETATM    3  C3  UNL     1      42.852   0.577  22.675  1.00  0.00     0.004 C 
HETATM    4  C4  UNL     1      41.604   0.820  22.980  1.00  0.00     0.000 C 
HETATM    5  C5  UNL     1      40.881   0.956  24.216  1.00  0.00    -0.003 C 
HETATM    6  C6  UNL     1      41.146   0.687  25.453  1.00  0.00    -0.006 C 
HETATM    7  C7  UNL     1      42.178   0.144  26.365  1.00  0.00     0.083 C 
HETATM    8  C14 UNL     1      41.481  -1.089  26.983  1.00  0.00     0.027 C 
HETATM    9  C15 UNL     1      42.316  -1.739  28.015  1.00  0.00     0.019 C 
HETATM   10  C16 UNL     1      43.710  -1.972  27.616  1.00  0.00     0.078 C 
HETATM   11 BR1  UNL     1      44.783  -1.795  29.252  1.00  0.00    -0.090 Br
HETATM   12  C17 UNL     1      44.337  -1.106  26.601  1.00  0.00     0.123 C 
HETATM   13 CL1  UNL     1      45.679  -0.136  27.252  1.00  0.00    -0.122 Cl
HETATM   14  C18 UNL     1      43.392  -0.355  25.700  1.00  0.00     0.095 C 
HETATM   15 CL2  UNL     1      42.725  -1.735  24.688  1.00  0.00    -0.114 Cl
HETATM   16  C19 UNL     1      44.156   0.560  24.828  1.00  0.00     0.137 C 
HETATM   17 CL3  UNL     1      43.774   2.299  25.042  1.00  0.00    -0.118 Cl
ENDROOT
BRANCH   7  18
HETATM   18  C8  UNL     1      42.294   1.097  27.481  1.00  0.00     0.237 C 
HETATM   19  O1  UNL     1      43.301   1.574  28.000  1.00  0.00    -0.272 OA
HETATM   20  N1  UNL     1      41.073   1.534  28.051  1.00  0.00    -0.312 N 
ATOM     21  H1  UNL     1      40.323   1.700  27.379  1.00  0.00     0.170 HD
BRANCH  20  22
HETATM   22  C9  UNL     1      40.763   1.752  29.250  1.00  0.00     0.110 A 
HETATM   23  C10 UNL     1      41.586   2.133  30.269  1.00  0.00     0.090 A 
HETATM   24  C11 UNL     1      41.101   2.338  31.531  1.00  0.00     0.121 A 
HETATM   25  F1  UNL     1      41.902   2.721  32.575  1.00  0.00    -0.206 F 
HETATM   26  C12 UNL     1      39.768   2.167  31.808  1.00  0.00     0.059 A 
HETATM   27  C13 UNL     1      38.955   1.783  30.764  1.00  0.00     0.092 A 
HETATM   28  N2  UNL     1      39.439   1.587  29.548  1.00  0.00    -0.352 N 
ATOM     29  H2  UNL     1      38.801   1.303  28.805  1.00  0.00     0.166 HD
ENDBRANCH  20  22
ENDBRANCH   7  18
TORSDOF 2
ENDMDL
MODEL 5
REMARK VINA RESULT: -4.693869248      1.102      1.208
REMARK  2 active torsions:
REMARK  status: ('A' for Active; 'I' for Inactive)
REMARK    1  A    between atoms: C7_7  and  C8_8 
REMARK       I    between atoms: C8_8  and  N1_10 
REMARK    2  A    between atoms: N1_10  and  C9_12 
ROOT
HETATM    1  C1  UNL     1      44.150  -1.096  22.509  1.00  0.00     0.045 C 
HETATM    2  C2  UNL     1      43.623   0.180  23.105  1.00  0.00    -0.064 C 
HETATM    3  C3  UNL     1      42.258   0.483  22.695  1.00  0.00     0.004 C 
HETATM    4  C4  UNL     1      41.106   0.772  23.239  1.00  0.00     0.000 C 
HETATM    5  C5  UNL     1      40.647   0.928  24.594  1.00  0.00    -0.003 C 
HETATM    6  C6  UNL     1      41.141   0.641  25.755  1.00  0.00    -0.006 C 
HETATM    7  C7  UNL     1      42.312   0.054  26.446  1.00  0.00     0.083 C 
HETATM    8  C14 UNL     1      41.704  -1.155  27.191  1.00  0.00     0.027 C 
HETATM    9  C15 UNL     1      42.700  -1.842  28.038  1.00  0.00     0.019 C 
HETATM   10  C16 UNL     1      43.978  -2.125  27.373  1.00  0.00     0.078 C 
HETATM   11 BR1  UNL     1      45.360  -1.999  28.763  1.00  0.00    -0.090 Br
HETATM   12  C17 UNL     1      44.425  -1.278  26.252  1.00  0.00     0.123 C 
HETATM   13 CL1  UNL     1      45.905  -0.363  26.623  1.00  0.00    -0.122 Cl
HETATM   14  C18 UNL     1      43.350  -0.486  25.554  1.00  0.00     0.095 C 
HETATM   15 CL2  UNL     1      42.444  -1.835  24.696  1.00  0.00    -0.114 Cl
HETATM   16  C19 UNL     1      43.961   0.404  24.547  1.00  0.00     0.137 C 
HETATM   17 CL3  UNL     1      43.696   2.155  24.829  1.00  0.00    -0.118 Cl
ENDROOT
BRANCH   7  18
HETATM   18  C8  UNL     1      42.682   0.995  27.515  1.00  0.00     0.237 C 
HETATM   19  O1  UNL     1      43.751   1.570  27.715  1.00  0.00    -0.272 OA
HETATM   20  N1  UNL     1      41.668   1.290  28.459  1.00  0.00    -0.312 N 
ATOM     21  H1  UNL     1      40.732   1.385  28.065  1.00  0.00     0.170 HD
BRANCH  20  22
HETATM   22  C9  UNL     1      41.734   1.453  29.704  1.00  0.00     0.110 A 
HETATM   23  C10 UNL     1      41.153   2.437  30.450  1.00  0.00     0.090 A 
HETATM   24  C11 UNL     1      41.312   2.484  31.807  1.00  0.00     0.121 A 
HETATM   25  F1  UNL     1      40.740   3.458  32.582  1.00  0.00    -0.206 F 
HETATM   26  C12 UNL     1      42.063   1.538  32.460  1.00  0.00     0.059 A 
HETATM   27  C13 UNL     1      42.641   0.554  31.687  1.00  0.00     0.092 A 
HETATM   28  N2  UNL     1      42.478   0.523  30.375  1.00  0.00    -0.352 N 
ATOM     29  H2  UNL     1      42.925  -0.224  29.842  1.00  0.00     0.166 HD
ENDBRANCH  20  22
ENDBRANCH   7  18
TORSDOF 2
ENDMDL
