MODEL 1
REMARK VINA RESULT: -4.236855784      0.000      0.000
REMARK  1 active torsions:
REMARK  status: ('A' for Active; 'I' for Inactive)
REMARK    1  A    between atoms: C2_2  and  O1_3 
ROOT
HETATM    1  C1  UNL     1      44.880  -1.049  22.887  1.00  0.00     0.046 C 
HETATM    2  C2  UNL     1      43.528  -0.472  23.349  1.00  0.00     0.060 C 
HETATM    3  C3  UNL     1      43.662   1.005  23.309  1.00  0.00     0.059 C 
HETATM    4  C4  UNL     1      42.299   1.588  23.000  1.00  0.00     0.104 C 
HETATM    5 CL1  UNL     1      42.541   3.321  22.648  1.00  0.00    -0.123 Cl
HETATM    6  C5  UNL     1      41.378   1.349  24.139  1.00  0.00     0.115 C 
HETATM    7 CL2  UNL     1      40.071   0.181  23.742  1.00  0.00    -0.122 Cl
HETATM    8  C6  UNL     1      42.026   1.013  25.436  1.00  0.00     0.083 C 
HETATM    9 BR1  UNL     1      40.611   1.367  26.758  1.00  0.00    -0.089 Br
HETATM   10  C7  UNL     1      42.382  -0.410  25.617  1.00  0.00     0.017 C 
HETATM   11  C8  UNL     1      43.210  -1.090  24.639  1.00  0.00     0.026 C 
HETATM   12  C9  UNL     1      44.511  -1.383  25.405  1.00  0.00     0.019 C 
HETATM   13  C10 UNL     1      43.900  -1.776  26.741  1.00  0.00     0.068 C 
HETATM   14  C11 UNL     1      44.985  -2.025  27.698  1.00  0.00     0.261 C 
HETATM   15  F1  UNL     1      45.918  -2.873  27.080  1.00  0.00    -0.205 F 
HETATM   16  F2  UNL     1      44.630  -2.645  28.864  1.00  0.00    -0.205 F 
HETATM   17  C12 UNL     1      45.764  -0.778  28.070  1.00  0.00     0.130 C 
HETATM   18 BR2  UNL     1      46.940  -1.217  29.525  1.00  0.00    -0.085 Br
HETATM   19  C13 UNL     1      44.756   0.216  28.556  1.00  0.00     0.022 C 
HETATM   20  C14 UNL     1      43.787   0.587  27.442  1.00  0.00     0.011 C 
HETATM   21  C15 UNL     1      43.002  -0.612  27.005  1.00  0.00    -0.029 C 
HETATM   22  C16 UNL     1      41.981  -0.990  28.038  1.00  0.00     0.016 C 
ENDROOT
BRANCH   2  23
HETATM   23  O1  UNL     1      42.641  -0.840  22.307  1.00  0.00    -0.390 OA
ATOM     24  H1  UNL     1      43.206  -0.901  21.547  1.00  0.00     0.210 HD
ENDBRANCH   2  23
TORSDOF 1
ENDMDL
MODEL 2
REMARK VINA RESULT: -4.236399442      2.932      4.579
REMARK  1 active torsions:
REMARK  status: ('A' for Active; 'I' for Inactive)
REMARK    1  A    between atoms: C2_2  and  O1_3 
ROOT
HETATM    1  C1  UNL     1      41.115   1.077  22.900  1.00  0.00     0.046 C 
HETATM    2  C2  UNL     1      42.469   0.504  23.361  1.00  0.00     0.060 C 
HETATM    3  C3  UNL     1      42.342  -0.974  23.315  1.00  0.00     0.059 C 
HETATM    4  C4  UNL     1      43.708  -1.549  23.006  1.00  0.00     0.104 C 
HETATM    5 CL1  UNL     1      43.475  -3.282  22.647  1.00  0.00    -0.123 Cl
HETATM    6  C5  UNL     1      44.626  -1.311  24.147  1.00  0.00     0.115 C 
HETATM    7 CL2  UNL     1      45.928  -0.135  23.756  1.00  0.00    -0.122 Cl
HETATM    8  C6  UNL     1      43.975  -0.982  25.444  1.00  0.00     0.083 C 
HETATM    9 BR1  UNL     1      45.390  -1.336  26.767  1.00  0.00    -0.089 Br
HETATM   10  C7  UNL     1      43.613   0.438  25.631  1.00  0.00     0.017 C 
HETATM   11  C8  UNL     1      42.783   1.118  24.654  1.00  0.00     0.026 C 
HETATM   12  C9  UNL     1      41.479   1.402  25.419  1.00  0.00     0.019 C 
HETATM   13  C10 UNL     1      42.086   1.793  26.758  1.00  0.00     0.068 C 
HETATM   14  C11 UNL     1      40.999   2.033  27.715  1.00  0.00     0.261 C 
HETATM   15  F1  UNL     1      40.063   2.879  27.099  1.00  0.00    -0.205 F 
HETATM   16  F2  UNL     1      41.350   2.649  28.884  1.00  0.00    -0.205 F 
HETATM   17  C12 UNL     1      40.225   0.780  28.081  1.00  0.00     0.130 C 
HETATM   18 BR2  UNL     1      39.046   1.209  29.536  1.00  0.00    -0.085 Br
HETATM   19  C13 UNL     1      41.237  -0.210  28.564  1.00  0.00     0.022 C 
HETATM   20  C14 UNL     1      42.209  -0.573  27.450  1.00  0.00     0.011 C 
HETATM   21  C15 UNL     1      42.989   0.631  27.018  1.00  0.00    -0.029 C 
HETATM   22  C16 UNL     1      44.007   1.010  28.054  1.00  0.00     0.016 C 
ENDROOT
BRANCH   2  23
HETATM   23  O1  UNL     1      43.356   0.880  22.322  1.00  0.00    -0.390 OA
ATOM     24  H1  UNL     1      43.402   0.102  21.780  1.00  0.00     0.210 HD
ENDBRANCH   2  23
TORSDOF 1
ENDMDL
MODEL 3
REMARK VINA RESULT: -3.990633466      8.020     10.002
REMARK  1 active torsions:
REMARK  status: ('A' for Active; 'I' for Inactive)
REMARK    1  A    between atoms: C2_2  and  O1_3 
ROOT
HETATM    1  C1  UNL     1      39.151   1.310  29.849  1.00  0.00     0.046 C 
HETATM    2  C2  UNL     1      40.099   1.894  30.914  1.00  0.00     0.060 C 
HETATM    3  C3  UNL     1      40.921   0.764  31.416  1.00  0.00     0.059 C 
HETATM    4  C4  UNL     1      42.270   1.316  31.825  1.00  0.00     0.104 C 
HETATM    5 CL1  UNL     1      43.336  -0.084  32.123  1.00  0.00    -0.123 Cl
HETATM    6  C5  UNL     1      42.117   2.193  33.012  1.00  0.00     0.115 C 
HETATM    7 CL2  UNL     1      42.429   3.924  32.640  1.00  0.00    -0.122 Cl
HETATM    8  C6  UNL     1      40.855   2.026  33.783  1.00  0.00     0.083 C 
HETATM    9 BR1  UNL     1      41.271   2.851  35.521  1.00  0.00    -0.089 Br
HETATM   10  C7  UNL     1      39.691   2.775  33.264  1.00  0.00     0.017 C 
HETATM   11  C8  UNL     1      39.270   2.613  31.885  1.00  0.00     0.026 C 
HETATM   12  C9  UNL     1      37.899   1.924  32.003  1.00  0.00     0.019 C 
HETATM   13  C10 UNL     1      37.362   2.698  33.197  1.00  0.00     0.068 C 
HETATM   14  C11 UNL     1      36.055   2.142  33.567  1.00  0.00     0.261 C 
HETATM   15  F1  UNL     1      35.285   2.039  32.398  1.00  0.00    -0.205 F 
HETATM   16  F2  UNL     1      35.311   2.883  34.443  1.00  0.00    -0.205 F 
HETATM   17  C12 UNL     1      36.130   0.731  34.121  1.00  0.00     0.130 C 
HETATM   18 BR2  UNL     1      34.399   0.267  34.815  1.00  0.00    -0.085 Br
HETATM   19  C13 UNL     1      37.101   0.780  35.259  1.00  0.00     0.022 C 
HETATM   20  C14 UNL     1      38.490   1.160  34.764  1.00  0.00     0.011 C 
HETATM   21  C15 UNL     1      38.481   2.538  34.175  1.00  0.00    -0.029 C 
HETATM   22  C16 UNL     1      38.361   3.580  35.249  1.00  0.00     0.016 C 
ENDROOT
BRANCH   2  23
HETATM   23  O1  UNL     1      40.957   2.735  30.165  1.00  0.00    -0.390 OA
ATOM     24  H1  UNL     1      40.760   3.603  30.497  1.00  0.00     0.210 HD
ENDBRANCH   2  23
TORSDOF 1
ENDMDL
MODEL 4
REMARK VINA RESULT: -3.976931244      6.757      8.570
REMARK  1 active torsions:
REMARK  status: ('A' for Active; 'I' for Inactive)
REMARK    1  A    between atoms: C2_2  and  O1_3 
ROOT
HETATM    1  C1  UNL     1      46.770  -1.312  29.789  1.00  0.00     0.046 C 
HETATM    2  C2  UNL     1      45.851  -1.893  30.881  1.00  0.00     0.060 C 
HETATM    3  C3  UNL     1      45.033  -0.764  31.390  1.00  0.00     0.059 C 
HETATM    4  C4  UNL     1      43.697  -1.321  31.835  1.00  0.00     0.104 C 
HETATM    5 CL1  UNL     1      42.627   0.073  32.143  1.00  0.00    -0.123 Cl
HETATM    6  C5  UNL     1      43.883  -2.187  33.026  1.00  0.00     0.115 C 
HETATM    7 CL2  UNL     1      43.575  -3.923  32.678  1.00  0.00    -0.122 Cl
HETATM    8  C6  UNL     1      45.160  -2.003  33.766  1.00  0.00     0.083 C 
HETATM    9 BR1  UNL     1      44.789  -2.814  35.522  1.00  0.00    -0.089 Br
HETATM   10  C7  UNL     1      46.318  -2.749  33.229  1.00  0.00     0.017 C 
HETATM   11  C8  UNL     1      46.707  -2.596  31.840  1.00  0.00     0.026 C 
HETATM   12  C9  UNL     1      48.075  -1.897  31.920  1.00  0.00     0.019 C 
HETATM   13  C10 UNL     1      48.644  -2.655  33.109  1.00  0.00     0.068 C 
HETATM   14  C11 UNL     1      49.955  -2.086  33.445  1.00  0.00     0.261 C 
HETATM   15  F1  UNL     1      50.698  -1.990  32.258  1.00  0.00    -0.205 F 
HETATM   16  F2  UNL     1      50.724  -2.814  34.311  1.00  0.00    -0.205 F 
HETATM   17  C12 UNL     1      49.882  -0.671  33.987  1.00  0.00     0.130 C 
HETATM   18 BR2  UNL     1      51.624  -0.188  34.637  1.00  0.00    -0.085 Br
HETATM   19  C13 UNL     1      48.937  -0.716  35.146  1.00  0.00     0.022 C 
HETATM   20  C14 UNL     1      47.540  -1.111  34.686  1.00  0.00     0.011 C 
HETATM   21  C15 UNL     1      47.546  -2.494  34.110  1.00  0.00    -0.029 C 
HETATM   22  C16 UNL     1      47.698  -3.524  35.191  1.00  0.00     0.016 C 
ENDROOT
BRANCH   2  23
HETATM   23  O1  UNL     1      44.982  -2.747  30.159  1.00  0.00    -0.390 OA
ATOM     24  H1  UNL     1      45.324  -2.712  29.274  1.00  0.00     0.210 HD
ENDBRANCH   2  23
TORSDOF 1
ENDMDL
MODEL 5
REMARK VINA RESULT: -3.752631753      2.759      4.217
REMARK  1 active torsions:
REMARK  status: ('A' for Active; 'I' for Inactive)
REMARK    1  A    between atoms: C2_2  and  O1_3 
ROOT
HETATM    1  C1  UNL     1      40.969   0.568  27.755  1.00  0.00     0.046 C 
HETATM    2  C2  UNL     1      42.180   0.357  26.827  1.00  0.00     0.060 C 
HETATM    3  C3  UNL     1      41.869  -0.825  25.985  1.00  0.00     0.059 C 
HETATM    4  C4  UNL     1      42.560  -0.641  24.651  1.00  0.00     0.104 C 
HETATM    5 CL1  UNL     1      41.924  -1.901  23.557  1.00  0.00    -0.123 Cl
HETATM    6  C5  UNL     1      44.031  -0.715  24.830  1.00  0.00     0.115 C 
HETATM    7 CL2  UNL     1      44.844   0.863  24.551  1.00  0.00    -0.122 Cl
HETATM    8  C6  UNL     1      44.498  -1.348  26.094  1.00  0.00     0.083 C 
HETATM    9 BR1  UNL     1      46.374  -1.805  25.707  1.00  0.00    -0.089 Br
HETATM   10  C7  UNL     1      44.549  -0.454  27.269  1.00  0.00     0.017 C 
HETATM   11  C8  UNL     1      43.372   0.289  27.678  1.00  0.00     0.026 C 
HETATM   12  C9  UNL     1      43.001  -0.335  29.034  1.00  0.00     0.019 C 
HETATM   13  C10 UNL     1      44.405  -0.499  29.595  1.00  0.00     0.068 C 
HETATM   14  C11 UNL     1      44.316  -1.179  30.894  1.00  0.00     0.261 C 
HETATM   15  F1  UNL     1      43.331  -0.527  31.653  1.00  0.00    -0.205 F 
HETATM   16  F2  UNL     1      45.449  -1.169  31.659  1.00  0.00    -0.205 F 
HETATM   17  C12 UNL     1      43.853  -2.620  30.793  1.00  0.00     0.130 C 
HETATM   18 BR2  UNL     1      44.064  -3.439  32.518  1.00  0.00    -0.085 Br
HETATM   19  C13 UNL     1      44.782  -3.292  29.831  1.00  0.00     0.022 C 
HETATM   20  C14 UNL     1      44.665  -2.668  28.446  1.00  0.00     0.011 C 
HETATM   21  C15 UNL     1      45.081  -1.228  28.481  1.00  0.00    -0.029 C 
HETATM   22  C16 UNL     1      46.570  -1.104  28.630  1.00  0.00     0.016 C 
ENDROOT
BRANCH   2  23
HETATM   23  O1  UNL     1      42.149   1.493  25.981  1.00  0.00    -0.390 OA
ATOM     24  H1  UNL     1      41.393   1.335  25.428  1.00  0.00     0.210 HD
ENDBRANCH   2  23
TORSDOF 1
ENDMDL
