MODEL 1
REMARK VINA RESULT: -4.301601146      0.000      0.000
REMARK  1 active torsions:
REMARK  status: ('A' for Active; 'I' for Inactive)
REMARK    1  A    between atoms: C18_23  and  O1_25 
ROOT
HETATM    1  C1  UNL     1      40.005   1.919  28.789  1.00  0.00     0.013 C 
HETATM    2  C2  UNL     1      40.842   0.732  28.253  1.00  0.00     0.017 C 
HETATM    3  C3  UNL     1      40.342   0.288  26.964  1.00  0.00     0.028 C 
HETATM    4  C4  UNL     1      41.167   0.293  25.764  1.00  0.00     0.023 C 
HETATM    5 BR1  UNL     1      40.014   0.679  24.204  1.00  0.00    -0.085 Br
HETATM    6  C5  UNL     1      42.249   1.309  25.642  1.00  0.00     0.037 C 
HETATM    7  C6  UNL     1      43.566   0.917  26.275  1.00  0.00     0.034 C 
HETATM    8  C7  UNL     1      44.292   2.237  26.607  1.00  0.00     0.022 C 
HETATM    9  C8  UNL     1      43.245   0.303  27.595  1.00  0.00     0.048 C 
HETATM   10  C9  UNL     1      42.890  -1.115  27.704  1.00  0.00     0.066 C 
HETATM   11 BR2  UNL     1      44.396  -2.211  28.378  1.00  0.00    -0.091 Br
HETATM   12  C10 UNL     1      42.227  -1.838  26.638  1.00  0.00     0.023 C 
HETATM   13  C11 UNL     1      41.668  -1.133  25.471  1.00  0.00     0.013 C 
HETATM   14  C12 UNL     1      42.504  -1.039  24.275  1.00  0.00     0.037 C 
HETATM   15  C13 UNL     1      42.559  -2.289  23.391  1.00  0.00     0.008 C 
HETATM   16  C14 UNL     1      43.528  -1.771  22.316  1.00  0.00     0.004 C 
HETATM   17  C15 UNL     1      44.238  -0.566  22.930  1.00  0.00     0.050 C 
HETATM   18  C16 UNL     1      43.964  -0.824  24.438  1.00  0.00     0.173 C 
HETATM   19  F1  UNL     1      44.686  -2.021  24.591  1.00  0.00    -0.236 F 
HETATM   20  C17 UNL     1      44.432   0.212  25.337  1.00  0.00     0.287 C 
HETATM   21  F2  UNL     1      45.549  -0.267  26.043  1.00  0.00    -0.202 F 
HETATM   22  F3  UNL     1      45.006   1.177  24.473  1.00  0.00    -0.202 F 
HETATM   23  C18 UNL     1      42.270   1.137  28.411  1.00  0.00     0.063 C 
HETATM   24  C19 UNL     1      42.643   0.899  29.897  1.00  0.00     0.046 C 
ENDROOT
BRANCH  23  25
HETATM   25  O1  UNL     1      42.357   2.489  28.288  1.00  0.00    -0.389 OA
ATOM     26  H1  UNL     1      41.663   2.788  27.713  1.00  0.00     0.210 HD
ENDBRANCH  23  25
TORSDOF 1
ENDMDL
MODEL 2
REMARK VINA RESULT: -4.301392187      2.702      4.142
REMARK  1 active torsions:
REMARK  status: ('A' for Active; 'I' for Inactive)
REMARK    1  A    between atoms: C18_23  and  O1_25 
ROOT
HETATM    1  C1  UNL     1      45.995  -1.920  28.789  1.00  0.00     0.013 C 
HETATM    2  C2  UNL     1      45.159  -0.732  28.253  1.00  0.00     0.017 C 
HETATM    3  C3  UNL     1      45.659  -0.287  26.965  1.00  0.00     0.028 C 
HETATM    4  C4  UNL     1      44.834  -0.292  25.765  1.00  0.00     0.023 C 
HETATM    5 BR1  UNL     1      45.988  -0.678  24.205  1.00  0.00    -0.085 Br
HETATM    6  C5  UNL     1      43.752  -1.307  25.642  1.00  0.00     0.037 C 
HETATM    7  C6  UNL     1      42.436  -0.915  26.274  1.00  0.00     0.034 C 
HETATM    8  C7  UNL     1      41.709  -2.236  26.605  1.00  0.00     0.022 C 
HETATM    9  C8  UNL     1      42.756  -0.302  27.595  1.00  0.00     0.048 C 
HETATM   10  C9  UNL     1      43.111   1.116  27.705  1.00  0.00     0.066 C 
HETATM   11 BR2  UNL     1      41.605   2.212  28.378  1.00  0.00    -0.091 Br
HETATM   12  C10 UNL     1      43.775   1.839  26.639  1.00  0.00     0.023 C 
HETATM   13  C11 UNL     1      44.335   1.135  25.472  1.00  0.00     0.013 C 
HETATM   14  C12 UNL     1      43.499   1.041  24.276  1.00  0.00     0.037 C 
HETATM   15  C13 UNL     1      43.444   2.291  23.392  1.00  0.00     0.008 C 
HETATM   16  C14 UNL     1      42.476   1.773  22.317  1.00  0.00     0.004 C 
HETATM   17  C15 UNL     1      41.765   0.569  22.930  1.00  0.00     0.050 C 
HETATM   18  C16 UNL     1      42.039   0.826  24.438  1.00  0.00     0.173 C 
HETATM   19  F1  UNL     1      41.317   2.023  24.591  1.00  0.00    -0.236 F 
HETATM   20  C17 UNL     1      41.570  -0.210  25.336  1.00  0.00     0.287 C 
HETATM   21  F2  UNL     1      40.453   0.270  26.042  1.00  0.00    -0.202 F 
HETATM   22  F3  UNL     1      40.996  -1.174  24.472  1.00  0.00    -0.202 F 
HETATM   23  C18 UNL     1      43.730  -1.137  28.411  1.00  0.00     0.063 C 
HETATM   24  C19 UNL     1      43.357  -0.899  29.897  1.00  0.00     0.046 C 
ENDROOT
BRANCH  23  25
HETATM   25  O1  UNL     1      43.642  -2.489  28.288  1.00  0.00    -0.389 OA
ATOM     26  H1  UNL     1      44.146  -2.891  28.986  1.00  0.00     0.210 HD
ENDBRANCH  23  25
TORSDOF 1
ENDMDL
MODEL 3
REMARK VINA RESULT: -3.349632211      1.482      1.838
REMARK  1 active torsions:
REMARK  status: ('A' for Active; 'I' for Inactive)
REMARK    1  A    between atoms: C18_23  and  O1_25 
ROOT
HETATM    1  C1  UNL     1      41.324   0.566  28.729  1.00  0.00     0.013 C 
HETATM    2  C2  UNL     1      42.140  -0.150  27.625  1.00  0.00     0.017 C 
HETATM    3  C3  UNL     1      41.297  -0.476  26.489  1.00  0.00     0.028 C 
HETATM    4  C4  UNL     1      41.561   0.035  25.151  1.00  0.00     0.023 C 
HETATM    5 BR1  UNL     1      39.833   0.313  24.227  1.00  0.00    -0.085 Br
HETATM    6  C5  UNL     1      42.235   1.355  25.006  1.00  0.00     0.037 C 
HETATM    7  C6  UNL     1      43.746   1.306  25.043  1.00  0.00     0.034 C 
HETATM    8  C7  UNL     1      44.209   2.701  25.511  1.00  0.00     0.022 C 
HETATM    9  C8  UNL     1      44.122   0.377  26.147  1.00  0.00     0.048 C 
HETATM   10  C9  UNL     1      44.184  -1.071  25.928  1.00  0.00     0.066 C 
HETATM   11 BR2  UNL     1      46.047  -1.715  25.728  1.00  0.00    -0.091 Br
HETATM   12  C10 UNL     1      43.349  -1.752  24.960  1.00  0.00     0.023 C 
HETATM   13  C11 UNL     1      42.229  -1.060  24.299  1.00  0.00     0.013 C 
HETATM   14  C12 UNL     1      42.482  -0.464  22.988  1.00  0.00     0.037 C 
HETATM   15  C13 UNL     1      42.481  -1.428  21.797  1.00  0.00     0.008 C 
HETATM   16  C14 UNL     1      42.800  -0.421  20.682  1.00  0.00     0.004 C 
HETATM   17  C15 UNL     1      43.386   0.808  21.374  1.00  0.00     0.050 C 
HETATM   18  C16 UNL     1      43.794   0.187  22.739  1.00  0.00     0.173 C 
HETATM   19  F1  UNL     1      44.779  -0.710  22.288  1.00  0.00    -0.236 F 
HETATM   20  C17 UNL     1      44.316   1.124  23.713  1.00  0.00     0.287 C 
HETATM   21  F2  UNL     1      45.699   0.913  23.852  1.00  0.00    -0.202 F 
HETATM   22  F3  UNL     1      44.261   2.372  23.046  1.00  0.00    -0.202 F 
HETATM   23  C18 UNL     1      43.377   0.666  27.439  1.00  0.00     0.063 C 
HETATM   24  C19 UNL     1      44.345   0.281  28.587  1.00  0.00     0.046 C 
ENDROOT
BRANCH  23  25
HETATM   25  O1  UNL     1      43.086   1.968  27.710  1.00  0.00    -0.389 OA
ATOM     26  H1  UNL     1      42.219   2.012  28.094  1.00  0.00     0.210 HD
ENDBRANCH  23  25
TORSDOF 1
ENDMDL
MODEL 4
REMARK VINA RESULT: -3.349104436      2.394      4.021
REMARK  1 active torsions:
REMARK  status: ('A' for Active; 'I' for Inactive)
REMARK    1  A    between atoms: C18_23  and  O1_25 
ROOT
HETATM    1  C1  UNL     1      44.676  -0.566  28.729  1.00  0.00     0.013 C 
HETATM    2  C2  UNL     1      43.860   0.150  27.625  1.00  0.00     0.017 C 
HETATM    3  C3  UNL     1      44.703   0.476  26.489  1.00  0.00     0.028 C 
HETATM    4  C4  UNL     1      44.439  -0.035  25.151  1.00  0.00     0.023 C 
HETATM    5 BR1  UNL     1      46.167  -0.313  24.227  1.00  0.00    -0.085 Br
HETATM    6  C5  UNL     1      43.765  -1.355  25.006  1.00  0.00     0.037 C 
HETATM    7  C6  UNL     1      42.254  -1.306  25.043  1.00  0.00     0.034 C 
HETATM    8  C7  UNL     1      41.791  -2.701  25.511  1.00  0.00     0.022 C 
HETATM    9  C8  UNL     1      41.878  -0.377  26.147  1.00  0.00     0.048 C 
HETATM   10  C9  UNL     1      41.816   1.071  25.928  1.00  0.00     0.066 C 
HETATM   11 BR2  UNL     1      39.953   1.715  25.728  1.00  0.00    -0.091 Br
HETATM   12  C10 UNL     1      42.651   1.752  24.960  1.00  0.00     0.023 C 
HETATM   13  C11 UNL     1      43.771   1.060  24.299  1.00  0.00     0.013 C 
HETATM   14  C12 UNL     1      43.518   0.464  22.988  1.00  0.00     0.037 C 
HETATM   15  C13 UNL     1      43.518   1.428  21.797  1.00  0.00     0.008 C 
HETATM   16  C14 UNL     1      43.200   0.421  20.682  1.00  0.00     0.004 C 
HETATM   17  C15 UNL     1      42.613  -0.808  21.374  1.00  0.00     0.050 C 
HETATM   18  C16 UNL     1      42.206  -0.187  22.739  1.00  0.00     0.173 C 
HETATM   19  F1  UNL     1      41.221   0.710  22.288  1.00  0.00    -0.236 F 
HETATM   20  C17 UNL     1      41.684  -1.124  23.713  1.00  0.00     0.287 C 
HETATM   21  F2  UNL     1      40.301  -0.913  23.852  1.00  0.00    -0.202 F 
HETATM   22  F3  UNL     1      41.739  -2.372  23.046  1.00  0.00    -0.202 F 
HETATM   23  C18 UNL     1      42.623  -0.666  27.439  1.00  0.00     0.063 C 
HETATM   24  C19 UNL     1      41.655  -0.281  28.587  1.00  0.00     0.046 C 
ENDROOT
BRANCH  23  25
HETATM   25  O1  UNL     1      42.914  -1.968  27.710  1.00  0.00    -0.389 OA
ATOM     26  H1  UNL     1      42.164  -2.502  27.476  1.00  0.00     0.210 HD
ENDBRANCH  23  25
TORSDOF 1
ENDMDL
MODEL 5
REMARK VINA RESULT: -3.301736980      7.575      9.931
REMARK  1 active torsions:
REMARK  status: ('A' for Active; 'I' for Inactive)
REMARK    1  A    between atoms: C18_23  and  O1_25 
ROOT
HETATM    1  C1  UNL     1      51.088  -1.857  34.493  1.00  0.00     0.013 C 
HETATM    2  C2  UNL     1      49.624  -2.303  34.727  1.00  0.00     0.017 C 
HETATM    3  C3  UNL     1      48.856  -1.246  35.360  1.00  0.00     0.028 C 
HETATM    4  C4  UNL     1      47.674  -0.664  34.741  1.00  0.00     0.023 C 
HETATM    5 BR1  UNL     1      47.573   1.248  35.242  1.00  0.00    -0.085 Br
HETATM    6  C5  UNL     1      47.586  -0.626  33.255  1.00  0.00     0.037 C 
HETATM    7  C6  UNL     1      47.028  -1.879  32.618  1.00  0.00     0.034 C 
HETATM    8  C7  UNL     1      47.586  -1.915  31.180  1.00  0.00     0.022 C 
HETATM    9  C8  UNL     1      47.660  -3.036  33.314  1.00  0.00     0.048 C 
HETATM   10  C9  UNL     1      47.111  -3.556  34.570  1.00  0.00     0.066 C 
HETATM   11 BR2  UNL     1      46.071  -5.220  34.297  1.00  0.00    -0.091 Br
HETATM   12  C10 UNL     1      46.410  -2.718  35.522  1.00  0.00     0.023 C 
HETATM   13  C11 UNL     1      46.406  -1.251  35.388  1.00  0.00     0.013 C 
HETATM   14  C12 UNL     1      45.271  -0.639  34.698  1.00  0.00     0.037 C 
HETATM   15  C13 UNL     1      43.986  -0.486  35.519  1.00  0.00     0.008 C 
HETATM   16  C14 UNL     1      43.095   0.148  34.440  1.00  0.00     0.004 C 
HETATM   17  C15 UNL     1      43.768  -0.152  33.103  1.00  0.00     0.050 C 
HETATM   18  C16 UNL     1      44.693  -1.331  33.518  1.00  0.00     0.173 C 
HETATM   19  F1  UNL     1      43.707  -2.274  33.858  1.00  0.00    -0.236 F 
HETATM   20  C17 UNL     1      45.577  -1.819  32.479  1.00  0.00     0.287 C 
HETATM   21  F2  UNL     1      45.123  -3.077  32.048  1.00  0.00    -0.202 F 
HETATM   22  F3  UNL     1      45.285  -0.989  31.369  1.00  0.00    -0.202 F 
HETATM   23  C18 UNL     1      49.169  -2.898  33.434  1.00  0.00     0.063 C 
HETATM   24  C19 UNL     1      49.737  -4.340  33.379  1.00  0.00     0.046 C 
ENDROOT
BRANCH  23  25
HETATM   25  O1  UNL     1      49.818  -2.275  32.414  1.00  0.00    -0.389 OA
ATOM     26  H1  UNL     1      49.640  -2.745  31.608  1.00  0.00     0.210 HD
ENDBRANCH  23  25
TORSDOF 1
ENDMDL
