MODEL 1
REMARK VINA RESULT: -7.148645576      0.000      0.000
REMARK  1 active torsions:
REMARK  status: ('A' for Active; 'I' for Inactive)
REMARK    1  A    between atoms: C2_2  and  O1_3 
ROOT
HETATM    1  C1  UNL     1       1.942  65.058  70.399  1.00  0.00     0.052 C 
HETATM    2  C2  UNL     1       1.604  63.619  70.776  1.00  0.00     0.092 C 
HETATM    3  C3  UNL     1       1.123  63.645  72.198  1.00  0.00     0.044 C 
HETATM    4  C4  UNL     1       1.472  62.377  72.939  1.00  0.00     0.013 C 
HETATM    5  C5  UNL     1       1.601  61.194  71.967  1.00  0.00     0.025 C 
HETATM    6  C6  UNL     1       2.741  61.510  71.100  1.00  0.00    -0.054 C 
HETATM    7  C7  UNL     1       2.731  62.719  70.513  1.00  0.00     0.048 C 
HETATM    8 CL1  UNL     1       4.079  63.156  69.458  1.00  0.00    -0.086 Cl
HETATM    9  C8  UNL     1       3.865  60.595  70.846  1.00  0.00     0.037 C 
HETATM   10  C9  UNL     1       4.073  59.776  72.099  1.00  0.00     0.014 C 
HETATM   11  C10 UNL     1       2.791  59.007  72.338  1.00  0.00    -0.035 C 
HETATM   12  C11 UNL     1       2.483  58.133  71.161  1.00  0.00     0.016 C 
HETATM   13  C12 UNL     1       3.038  58.104  73.529  1.00  0.00     0.026 C 
HETATM   14  C13 UNL     1       2.387  58.749  74.706  1.00  0.00     0.060 C 
HETATM   15  S1  UNL     1       3.637  58.989  76.025  1.00  0.00    -0.092 SA
HETATM   16  C14 UNL     1       1.946  60.132  74.214  1.00  0.00     0.026 C 
HETATM   17  C15 UNL     1       1.673  59.928  72.722  1.00  0.00    -0.028 C 
HETATM   18  C16 UNL     1       0.343  59.219  72.632  1.00  0.00     0.016 C 
ENDROOT
BRANCH   2  19
HETATM   19  O1  UNL     1       0.482  63.277  69.985  1.00  0.00    -0.384 OA
ATOM     20  H1  UNL     1       0.100  62.515  70.404  1.00  0.00     0.211 HD
ENDBRANCH   2  19
TORSDOF 1
ENDMDL
MODEL 2
REMARK VINA RESULT: -7.002031356      2.254      2.718
REMARK  1 active torsions:
REMARK  status: ('A' for Active; 'I' for Inactive)
REMARK    1  A    between atoms: C2_2  and  O1_3 
ROOT
HETATM    1  C1  UNL     1       3.812  63.148  68.414  1.00  0.00     0.052 C 
HETATM    2  C2  UNL     1       3.550  61.955  69.327  1.00  0.00     0.092 C 
HETATM    3  C3  UNL     1       2.078  61.667  69.252  1.00  0.00     0.044 C 
HETATM    4  C4  UNL     1       1.540  61.114  70.549  1.00  0.00     0.013 C 
HETATM    5  C5  UNL     1       2.644  60.389  71.334  1.00  0.00     0.025 C 
HETATM    6  C6  UNL     1       3.629  61.418  71.683  1.00  0.00    -0.054 C 
HETATM    7  C7  UNL     1       4.073  62.190  70.677  1.00  0.00     0.048 C 
HETATM    8 CL1  UNL     1       5.260  63.448  71.038  1.00  0.00    -0.086 Cl
HETATM    9  C8  UNL     1       4.144  61.641  73.044  1.00  0.00     0.037 C 
HETATM   10  C9  UNL     1       3.033  61.301  74.009  1.00  0.00     0.014 C 
HETATM   11  C10 UNL     1       2.694  59.842  73.790  1.00  0.00    -0.035 C 
HETATM   12  C11 UNL     1       3.901  58.987  74.027  1.00  0.00     0.016 C 
HETATM   13  C12 UNL     1       1.658  59.472  74.833  1.00  0.00     0.026 C 
HETATM   14  C13 UNL     1       0.334  59.458  74.144  1.00  0.00     0.060 C 
HETATM   15  S1  UNL     1      -0.805  60.601  75.013  1.00  0.00    -0.092 SA
HETATM   16  C14 UNL     1       0.602  60.028  72.746  1.00  0.00     0.026 C 
HETATM   17  C15 UNL     1       2.051  59.631  72.453  1.00  0.00    -0.028 C 
HETATM   18  C16 UNL     1       2.022  58.164  72.099  1.00  0.00     0.016 C 
ENDROOT
BRANCH   2  19
HETATM   19  O1  UNL     1       4.200  60.860  68.712  1.00  0.00    -0.384 OA
ATOM     20  H1  UNL     1       4.519  60.321  69.426  1.00  0.00     0.211 HD
ENDBRANCH   2  19
TORSDOF 1
ENDMDL
MODEL 3
REMARK VINA RESULT: -6.955867935      3.362      5.251
REMARK  1 active torsions:
REMARK  status: ('A' for Active; 'I' for Inactive)
REMARK    1  A    between atoms: C2_2  and  O1_3 
ROOT
HETATM    1  C1  UNL     1       1.884  58.319  75.535  1.00  0.00     0.052 C 
HETATM    2  C2  UNL     1       2.748  59.067  74.523  1.00  0.00     0.092 C 
HETATM    3  C3  UNL     1       2.809  60.496  74.980  1.00  0.00     0.044 C 
HETATM    4  C4  UNL     1       2.920  61.458  73.822  1.00  0.00     0.013 C 
HETATM    5  C5  UNL     1       3.585  60.783  72.613  1.00  0.00     0.025 C 
HETATM    6  C6  UNL     1       2.670  59.716  72.196  1.00  0.00    -0.054 C 
HETATM    7  C7  UNL     1       2.261  58.867  73.155  1.00  0.00     0.048 C 
HETATM    8 CL1  UNL     1       1.156  57.561  72.712  1.00  0.00    -0.086 Cl
HETATM    9  C8  UNL     1       2.191  59.529  70.817  1.00  0.00     0.037 C 
HETATM   10  C9  UNL     1       2.093  60.897  70.183  1.00  0.00     0.014 C 
HETATM   11  C10 UNL     1       3.487  61.487  70.198  1.00  0.00    -0.035 C 
HETATM   12  C11 UNL     1       4.433  60.603  69.442  1.00  0.00     0.016 C 
HETATM   13  C12 UNL     1       3.410  62.811  69.464  1.00  0.00     0.026 C 
HETATM   14  C13 UNL     1       3.391  63.882  70.502  1.00  0.00     0.060 C 
HETATM   15  S1  UNL     1       1.899  64.920  70.264  1.00  0.00    -0.092 SA
HETATM   16  C14 UNL     1       3.247  63.145  71.839  1.00  0.00     0.026 C 
HETATM   17  C15 UNL     1       3.928  61.796  71.596  1.00  0.00    -0.028 C 
HETATM   18  C16 UNL     1       5.414  62.062  71.641  1.00  0.00     0.016 C 
ENDROOT
BRANCH   2  19
HETATM   19  O1  UNL     1       4.052  58.543  74.683  1.00  0.00    -0.384 OA
ATOM     20  H1  UNL     1       4.639  59.248  74.437  1.00  0.00     0.211 HD
ENDBRANCH   2  19
TORSDOF 1
ENDMDL
MODEL 4
REMARK VINA RESULT: -6.853400887      2.640      4.349
REMARK  1 active torsions:
REMARK  status: ('A' for Active; 'I' for Inactive)
REMARK    1  A    between atoms: C2_2  and  O1_3 
ROOT
HETATM    1  C1  UNL     1       3.781  59.229  69.656  1.00  0.00     0.052 C 
HETATM    2  C2  UNL     1       3.264  59.855  70.948  1.00  0.00     0.092 C 
HETATM    3  C3  UNL     1       2.782  58.727  71.813  1.00  0.00     0.044 C 
HETATM    4  C4  UNL     1       1.622  59.137  72.688  1.00  0.00     0.013 C 
HETATM    5  C5  UNL     1       1.659  60.647  72.971  1.00  0.00     0.025 C 
HETATM    6  C6  UNL     1       1.470  61.303  71.674  1.00  0.00    -0.054 C 
HETATM    7  C7  UNL     1       2.274  60.902  70.675  1.00  0.00     0.048 C 
HETATM    8 CL1  UNL     1       2.092  61.656  69.088  1.00  0.00    -0.086 Cl
HETATM    9  C8  UNL     1       0.471  62.353  71.416  1.00  0.00     0.037 C 
HETATM   10  C9  UNL     1      -0.721  62.069  72.300  1.00  0.00     0.014 C 
HETATM   11  C10 UNL     1      -0.230  62.127  73.731  1.00  0.00    -0.035 C 
HETATM   12  C11 UNL     1       0.357  63.475  74.024  1.00  0.00     0.016 C 
HETATM   13  C12 UNL     1      -1.446  61.952  74.618  1.00  0.00     0.026 C 
HETATM   14  C13 UNL     1      -1.430  60.542  75.104  1.00  0.00     0.060 C 
HETATM   15  S1  UNL     1      -3.013  59.735  74.651  1.00  0.00    -0.092 SA
HETATM   16  C14 UNL     1      -0.307  59.858  74.315  1.00  0.00     0.026 C 
HETATM   17  C15 UNL     1       0.690  60.984  74.032  1.00  0.00    -0.028 C 
HETATM   18  C16 UNL     1       1.432  61.222  75.326  1.00  0.00     0.016 C 
ENDROOT
BRANCH   2  19
HETATM   19  O1  UNL     1       4.406  60.387  71.591  1.00  0.00    -0.384 OA
ATOM     20  H1  UNL     1       4.072  60.883  72.329  1.00  0.00     0.211 HD
ENDBRANCH   2  19
TORSDOF 1
ENDMDL
MODEL 5
REMARK VINA RESULT: -6.800924024      2.391      3.823
REMARK  1 active torsions:
REMARK  status: ('A' for Active; 'I' for Inactive)
REMARK    1  A    between atoms: C2_2  and  O1_3 
ROOT
HETATM    1  C1  UNL     1       3.652  62.990  68.687  1.00  0.00     0.052 C 
HETATM    2  C2  UNL     1       3.437  62.647  70.158  1.00  0.00     0.092 C 
HETATM    3  C3  UNL     1       3.070  61.192  70.214  1.00  0.00     0.044 C 
HETATM    4  C4  UNL     1       2.130  60.887  71.355  1.00  0.00     0.013 C 
HETATM    5  C5  UNL     1       2.309  61.900  72.496  1.00  0.00     0.025 C 
HETATM    6  C6  UNL     1       1.906  63.198  71.947  1.00  0.00    -0.054 C 
HETATM    7  C7  UNL     1       2.474  63.560  70.783  1.00  0.00     0.048 C 
HETATM    8 CL1  UNL     1       2.026  65.114  70.072  1.00  0.00    -0.086 Cl
HETATM    9  C8  UNL     1       0.938  64.102  72.588  1.00  0.00     0.037 C 
HETATM   10  C9  UNL     1      -0.071  63.244  73.313  1.00  0.00     0.014 C 
HETATM   11  C10 UNL     1       0.694  62.447  74.348  1.00  0.00    -0.035 C 
HETATM   12  C11 UNL     1       1.403  63.370  75.292  1.00  0.00     0.016 C 
HETATM   13  C12 UNL     1      -0.331  61.670  75.148  1.00  0.00     0.026 C 
HETATM   14  C13 UNL     1      -0.301  60.266  74.646  1.00  0.00     0.060 C 
HETATM   15  S1  UNL     1      -1.985  59.788  74.102  1.00  0.00    -0.092 SA
HETATM   16  C14 UNL     1       0.604  60.301  73.408  1.00  0.00     0.026 C 
HETATM   17  C15 UNL     1       1.589  61.436  73.698  1.00  0.00    -0.028 C 
HETATM   18  C16 UNL     1       2.583  60.885  74.692  1.00  0.00     0.016 C 
ENDROOT
BRANCH   2  19
HETATM   19  O1  UNL     1       4.711  62.758  70.761  1.00  0.00    -0.384 OA
ATOM     20  H1  UNL     1       5.056  63.595  70.472  1.00  0.00     0.211 HD
ENDBRANCH   2  19
TORSDOF 1
ENDMDL
