MODEL 1
REMARK VINA RESULT: -8.493543381      0.000      0.000
REMARK  2 active torsions:
REMARK  status: ('A' for Active; 'I' for Inactive)
REMARK    1  A    between atoms: C5_5  and  C7_7 
REMARK    2  A    between atoms: C9_9  and  O1_10 
ROOT
HETATM    1  C1  UNL     1       2.630  70.239  68.401  1.00  0.00     0.045 C 
HETATM    2  C2  UNL     1       2.160  69.340  67.296  1.00  0.00    -0.062 C 
HETATM    3  C3  UNL     1       2.796  69.000  66.192  1.00  0.00    -0.067 C 
HETATM    4  C4  UNL     1       4.172  69.491  65.852  1.00  0.00     0.045 C 
HETATM    5  C5  UNL     1       1.973  68.105  65.395  1.00  0.00     0.015 C 
HETATM    6  C6  UNL     1       2.404  66.641  65.508  1.00  0.00     0.026 C 
HETATM    7  C11 UNL     1       0.578  68.233  65.901  1.00  0.00     0.044 C 
HETATM    8  C12 UNL     1       0.828  68.694  67.336  1.00  0.00     0.039 C 
HETATM    9  C13 UNL     1      -0.200  69.771  67.650  1.00  0.00     0.032 C 
HETATM   10 BR1  UNL     1       0.740  67.230  68.574  1.00  0.00    -0.081 Br
ENDROOT
BRANCH   5  11
HETATM   11  C7  UNL     1       2.056  68.419  63.917  1.00  0.00    -0.002 A 
HETATM   12  C8  UNL     1       1.072  68.940  63.120  1.00  0.00     0.052 A 
HETATM   13  C9  UNL     1       1.368  69.140  61.823  1.00  0.00     0.073 A 
HETATM   14  C10 UNL     1       2.633  68.803  61.415  1.00  0.00     0.086 A 
HETATM   15  S1  UNL     1       3.359  68.223  62.842  1.00  0.00    -0.102 SA
BRANCH  13  16
HETATM   16  O1  UNL     1       0.442  69.677  60.877  1.00  0.00    -0.360 OA
ATOM     17  H1  UNL     1       0.541  70.531  60.474  1.00  0.00     0.217 HD
ENDBRANCH  13  16
ENDBRANCH   5  11
TORSDOF 2
ENDMDL
MODEL 2
REMARK VINA RESULT: -8.333803408      1.154      1.281
REMARK  2 active torsions:
REMARK  status: ('A' for Active; 'I' for Inactive)
REMARK    1  A    between atoms: C5_5  and  C7_7 
REMARK    2  A    between atoms: C9_9  and  O1_10 
ROOT
HETATM    1  C1  UNL     1       2.942  70.133  68.315  1.00  0.00     0.045 C 
HETATM    2  C2  UNL     1       2.298  69.302  67.244  1.00  0.00    -0.062 C 
HETATM    3  C3  UNL     1       2.778  68.983  66.057  1.00  0.00    -0.067 C 
HETATM    4  C4  UNL     1       4.123  69.432  65.567  1.00  0.00     0.045 C 
HETATM    5  C5  UNL     1       1.823  68.158  65.336  1.00  0.00     0.015 C 
HETATM    6  C6  UNL     1       2.196  66.674  65.340  1.00  0.00     0.026 C 
HETATM    7  C11 UNL     1       0.509  68.321  66.017  1.00  0.00     0.044 C 
HETATM    8  C12 UNL     1       0.953  68.710  67.425  1.00  0.00     0.039 C 
HETATM    9  C13 UNL     1       0.023  69.815  67.905  1.00  0.00     0.032 C 
HETATM   10 BR1  UNL     1       0.951  67.200  68.609  1.00  0.00    -0.081 Br
ENDROOT
BRANCH   5  11
HETATM   11  C7  UNL     1       1.738  68.531  63.872  1.00  0.00    -0.002 A 
HETATM   12  C8  UNL     1       2.731  68.446  62.933  1.00  0.00     0.052 A 
HETATM   13  C9  UNL     1       2.431  68.836  61.680  1.00  0.00     0.073 A 
HETATM   14  C10 UNL     1       1.154  69.282  61.457  1.00  0.00     0.086 A 
HETATM   15  S1  UNL     1       0.422  69.147  62.988  1.00  0.00    -0.102 SA
BRANCH  13  16
HETATM   16  O1  UNL     1       3.365  68.802  60.600  1.00  0.00    -0.360 OA
ATOM     17  H1  UNL     1       3.491  68.045  60.040  1.00  0.00     0.217 HD
ENDBRANCH  13  16
ENDBRANCH   5  11
TORSDOF 2
ENDMDL
MODEL 3
REMARK VINA RESULT: -7.870326812      2.896      4.698
REMARK  2 active torsions:
REMARK  status: ('A' for Active; 'I' for Inactive)
REMARK    1  A    between atoms: C5_5  and  C7_7 
REMARK    2  A    between atoms: C9_9  and  O1_10 
ROOT
HETATM    1  C1  UNL     1       4.370  65.708  63.169  1.00  0.00     0.045 C 
HETATM    2  C2  UNL     1       3.680  66.945  63.664  1.00  0.00    -0.062 C 
HETATM    3  C3  UNL     1       2.826  67.061  64.663  1.00  0.00    -0.067 C 
HETATM    4  C4  UNL     1       2.388  65.901  65.509  1.00  0.00     0.045 C 
HETATM    5  C5  UNL     1       2.401  68.444  64.801  1.00  0.00     0.015 C 
HETATM    6  C6  UNL     1       3.094  69.168  65.957  1.00  0.00     0.026 C 
HETATM    7  C11 UNL     1       2.750  69.133  63.528  1.00  0.00     0.044 C 
HETATM    8  C12 UNL     1       3.903  68.264  63.030  1.00  0.00     0.039 C 
HETATM    9  C13 UNL     1       3.724  68.092  61.529  1.00  0.00     0.032 C 
HETATM   10 BR1  UNL     1       5.607  69.030  63.470  1.00  0.00    -0.081 Br
ENDROOT
BRANCH   5  11
HETATM   11  C7  UNL     1       0.923  68.559  65.105  1.00  0.00    -0.002 A 
HETATM   12  C8  UNL     1      -0.103  68.691  64.208  1.00  0.00     0.052 A 
HETATM   13  C9  UNL     1      -1.351  68.776  64.704  1.00  0.00     0.073 A 
HETATM   14  C10 UNL     1      -1.482  68.722  66.068  1.00  0.00     0.086 A 
HETATM   15  S1  UNL     1       0.125  68.557  66.606  1.00  0.00    -0.102 SA
BRANCH  13  16
HETATM   16  O1  UNL     1      -2.515  68.915  63.889  1.00  0.00    -0.360 OA
ATOM     17  H1  UNL     1      -2.491  69.209  62.986  1.00  0.00     0.217 HD
ENDBRANCH  13  16
ENDBRANCH   5  11
TORSDOF 2
ENDMDL
MODEL 4
REMARK VINA RESULT: -7.853448323      2.578      3.694
REMARK  2 active torsions:
REMARK  status: ('A' for Active; 'I' for Inactive)
REMARK    1  A    between atoms: C5_5  and  C7_7 
REMARK    2  A    between atoms: C9_9  and  O1_10 
ROOT
HETATM    1  C1  UNL     1      -1.438  68.870  65.378  1.00  0.00     0.045 C 
HETATM    2  C2  UNL     1      -0.007  68.501  65.641  1.00  0.00    -0.062 C 
HETATM    3  C3  UNL     1       0.965  68.324  64.768  1.00  0.00    -0.067 C 
HETATM    4  C4  UNL     1       0.778  68.474  63.287  1.00  0.00     0.045 C 
HETATM    5  C5  UNL     1       2.198  67.976  65.455  1.00  0.00     0.015 C 
HETATM    6  C6  UNL     1       3.172  69.151  65.562  1.00  0.00     0.026 C 
HETATM    7  C11 UNL     1       1.821  67.543  66.829  1.00  0.00     0.044 C 
HETATM    8  C12 UNL     1       0.496  68.280  67.016  1.00  0.00     0.039 C 
HETATM    9  C13 UNL     1      -0.461  67.321  67.710  1.00  0.00     0.032 C 
HETATM   10 BR1  UNL     1       0.727  69.909  68.003  1.00  0.00    -0.081 Br
ENDROOT
BRANCH   5  11
HETATM   11  C7  UNL     1       2.971  66.898  64.728  1.00  0.00    -0.002 A 
HETATM   12  C8  UNL     1       2.864  65.543  64.891  1.00  0.00     0.052 A 
HETATM   13  C9  UNL     1       3.656  64.764  64.131  1.00  0.00     0.073 A 
HETATM   14  C10 UNL     1       4.501  65.400  63.260  1.00  0.00     0.086 A 
HETATM   15  S1  UNL     1       4.167  67.048  63.527  1.00  0.00    -0.102 SA
BRANCH  13  16
HETATM   16  O1  UNL     1       3.652  63.337  64.194  1.00  0.00    -0.360 OA
ATOM     17  H1  UNL     1       4.397  62.823  64.481  1.00  0.00     0.217 HD
ENDBRANCH  13  16
ENDBRANCH   5  11
TORSDOF 2
ENDMDL
MODEL 5
REMARK VINA RESULT: -7.704712368      3.172      5.210
REMARK  2 active torsions:
REMARK  status: ('A' for Active; 'I' for Inactive)
REMARK    1  A    between atoms: C5_5  and  C7_7 
REMARK    2  A    between atoms: C9_9  and  O1_10 
ROOT
HETATM    1  C1  UNL     1       2.872  68.944  61.296  1.00  0.00     0.045 C 
HETATM    2  C2  UNL     1       2.803  68.446  62.710  1.00  0.00    -0.062 C 
HETATM    3  C3  UNL     1       1.742  68.330  63.485  1.00  0.00    -0.067 C 
HETATM    4  C4  UNL     1       0.356  68.700  63.043  1.00  0.00     0.045 C 
HETATM    5  C5  UNL     1       2.125  67.802  64.784  1.00  0.00     0.015 C 
HETATM    6  C6  UNL     1       1.796  66.316  64.944  1.00  0.00     0.026 C 
HETATM    7  C11 UNL     1       3.599  67.980  64.905  1.00  0.00     0.044 C 
HETATM    8  C12 UNL     1       4.014  68.002  63.435  1.00  0.00     0.039 C 
HETATM    9  C13 UNL     1       5.070  69.087  63.281  1.00  0.00     0.032 C 
HETATM   10 BR1  UNL     1       4.651  66.287  62.855  1.00  0.00    -0.081 Br
ENDROOT
BRANCH   5  11
HETATM   11  C7  UNL     1       1.390  68.484  65.916  1.00  0.00    -0.002 A 
HETATM   12  C8  UNL     1       1.916  69.316  66.868  1.00  0.00     0.052 A 
HETATM   13  C9  UNL     1       1.071  69.816  67.788  1.00  0.00     0.073 A 
HETATM   14  C10 UNL     1      -0.246  69.446  67.688  1.00  0.00     0.086 A 
HETATM   15  S1  UNL     1      -0.259  68.422  66.328  1.00  0.00    -0.102 SA
BRANCH  13  16
HETATM   16  O1  UNL     1       1.478  70.694  68.838  1.00  0.00    -0.360 OA
ATOM     17  H1  UNL     1       1.544  70.429  69.747  1.00  0.00     0.217 HD
ENDBRANCH  13  16
ENDBRANCH   5  11
TORSDOF 2
ENDMDL
