MODEL 1
REMARK VINA RESULT: -7.878830981      0.000      0.000
REMARK  2 active torsions:
REMARK  status: ('A' for Active; 'I' for Inactive)
REMARK    1  A    between atoms: C2_2  and  N1_5 
REMARK    2  A    between atoms: C5_6  and  C6_7 
ROOT
HETATM    1  N1  UNL     1       2.634  60.865  71.616  1.00  0.00     0.126 N 
HETATM    2  C5  UNL     1       2.860  62.180  72.122  1.00  0.00     0.323 C 
HETATM    3  S1  UNL     1       2.297  62.205  73.867  1.00  0.00    -0.117 SA
HETATM    4  C12 UNL     1       1.815  60.463  73.849  1.00  0.00     0.038 C 
HETATM    5  C13 UNL     1       2.347  59.952  75.172  1.00  0.00     0.029 C 
HETATM    6  C14 UNL     1       0.347  60.263  73.900  1.00  0.00     0.029 C 
HETATM    7  C15 UNL     1       2.525  59.904  72.643  1.00  0.00     0.171 C 
HETATM    8  C16 UNL     1       1.709  58.673  72.307  1.00  0.00     0.050 C 
HETATM    9  C17 UNL     1       3.835  59.337  73.160  1.00  0.00     0.050 C 
ENDROOT
BRANCH   2  10
HETATM   10  C6  UNL     1       2.031  63.280  71.564  1.00  0.00     0.023 A 
HETATM   11  C7  UNL     1       0.695  63.427  71.777  1.00  0.00     0.013 A 
HETATM   12  C8  UNL     1      -0.022  64.467  71.254  1.00  0.00     0.001 A 
HETATM   13  C9  UNL     1       0.640  65.396  70.485  1.00  0.00     0.003 A 
HETATM   14  C10 UNL     1       1.982  65.275  70.252  1.00  0.00     0.043 A 
HETATM   15  C11 UNL     1       2.663  64.221  70.793  1.00  0.00     0.125 A 
HETATM   16  F1  UNL     1       3.992  64.134  70.542  1.00  0.00    -0.205 F 
ENDBRANCH   2  10
BRANCH   1  17
HETATM   17  C2  UNL     1       3.437  60.545  70.496  1.00  0.00     0.152 C 
HETATM   18  C1  UNL     1       2.872  61.184  69.208  1.00  0.00     0.048 C 
HETATM   19  C3  UNL     1       4.877  60.984  70.518  1.00  0.00     0.048 C 
HETATM   20  C4  UNL     1       3.476  59.070  70.103  1.00  0.00     0.048 C 
ENDBRANCH   1  17
TORSDOF 2
ENDMDL
MODEL 2
REMARK VINA RESULT: -7.761545085      2.419      4.159
REMARK  2 active torsions:
REMARK  status: ('A' for Active; 'I' for Inactive)
REMARK    1  A    between atoms: C2_2  and  N1_5 
REMARK    2  A    between atoms: C5_6  and  C6_7 
ROOT
HETATM    1  N1  UNL     1       2.945  60.692  71.742  1.00  0.00     0.126 N 
HETATM    2  C5  UNL     1       1.639  61.257  71.634  1.00  0.00     0.323 C 
HETATM    3  S1  UNL     1       1.729  62.632  70.424  1.00  0.00    -0.117 SA
HETATM    4  C12 UNL     1       3.488  62.373  70.098  1.00  0.00     0.038 C 
HETATM    5  C13 UNL     1       3.573  62.492  68.591  1.00  0.00     0.029 C 
HETATM    6  C14 UNL     1       4.346  63.454  70.638  1.00  0.00     0.029 C 
HETATM    7  C15 UNL     1       3.752  60.985  70.622  1.00  0.00     0.171 C 
HETATM    8  C16 UNL     1       5.246  60.993  70.873  1.00  0.00     0.050 C 
HETATM    9  C17 UNL     1       3.593  60.056  69.432  1.00  0.00     0.050 C 
ENDROOT
BRANCH   2  10
HETATM   10  C6  UNL     1       1.108  61.984  72.816  1.00  0.00     0.023 A 
HETATM   11  C7  UNL     1       1.852  62.772  73.638  1.00  0.00     0.013 A 
HETATM   12  C8  UNL     1       1.314  63.435  74.706  1.00  0.00     0.001 A 
HETATM   13  C9  UNL     1      -0.032  63.294  74.952  1.00  0.00     0.003 A 
HETATM   14  C10 UNL     1      -0.807  62.508  74.144  1.00  0.00     0.043 A 
HETATM   15  C11 UNL     1      -0.231  61.862  73.086  1.00  0.00     0.125 A 
HETATM   16  F1  UNL     1      -1.029  61.093  72.307  1.00  0.00    -0.205 F 
ENDBRANCH   2  10
BRANCH   1  17
HETATM   17  C2  UNL     1       2.948  59.363  72.228  1.00  0.00     0.152 C 
HETATM   18  C1  UNL     1       1.514  58.889  72.550  1.00  0.00     0.048 C 
HETATM   19  C3  UNL     1       3.492  58.289  71.325  1.00  0.00     0.048 C 
HETATM   20  C4  UNL     1       3.641  59.146  73.571  1.00  0.00     0.048 C 
ENDBRANCH   1  17
TORSDOF 2
ENDMDL
MODEL 3
REMARK VINA RESULT: -7.611433598      2.142      3.740
REMARK  2 active torsions:
REMARK  status: ('A' for Active; 'I' for Inactive)
REMARK    1  A    between atoms: C2_2  and  N1_5 
REMARK    2  A    between atoms: C5_6  and  C6_7 
ROOT
HETATM    1  N1  UNL     1       1.358  61.175  72.725  1.00  0.00     0.126 N 
HETATM    2  C5  UNL     1       1.760  60.952  71.374  1.00  0.00     0.323 C 
HETATM    3  S1  UNL     1       2.650  59.350  71.319  1.00  0.00    -0.117 SA
HETATM    4  C12 UNL     1       2.421  59.039  73.085  1.00  0.00     0.038 C 
HETATM    5  C13 UNL     1       2.031  57.577  73.123  1.00  0.00     0.029 C 
HETATM    6  C14 UNL     1       3.679  59.143  73.863  1.00  0.00     0.029 C 
HETATM    7  C15 UNL     1       1.313  59.982  73.477  1.00  0.00     0.171 C 
HETATM    8  C16 UNL     1       1.510  60.140  74.970  1.00  0.00     0.050 C 
HETATM    9  C17 UNL     1       0.029  59.180  73.366  1.00  0.00     0.050 C 
ENDROOT
BRANCH   2  10
HETATM   10  C6  UNL     1       2.803  61.850  70.813  1.00  0.00     0.023 A 
HETATM   11  C7  UNL     1       3.802  62.423  71.538  1.00  0.00     0.013 A 
HETATM   12  C8  UNL     1       4.750  63.230  70.974  1.00  0.00     0.001 A 
HETATM   13  C9  UNL     1       4.685  63.466  69.620  1.00  0.00     0.003 A 
HETATM   14  C10 UNL     1       3.693  62.905  68.863  1.00  0.00     0.043 A 
HETATM   15  C11 UNL     1       2.764  62.103  69.466  1.00  0.00     0.125 A 
HETATM   16  F1  UNL     1       1.796  61.564  68.686  1.00  0.00    -0.205 F 
ENDBRANCH   2  10
BRANCH   1  17
HETATM   17  C2  UNL     1       0.274  62.076  72.851  1.00  0.00     0.152 C 
HETATM   18  C1  UNL     1      -0.409  62.314  71.486  1.00  0.00     0.048 C 
HETATM   19  C3  UNL     1      -0.859  61.685  73.761  1.00  0.00     0.048 C 
HETATM   20  C4  UNL     1       0.637  63.503  73.253  1.00  0.00     0.048 C 
ENDBRANCH   1  17
TORSDOF 2
ENDMDL
MODEL 4
REMARK VINA RESULT: -7.557758826      1.849      4.337
REMARK  2 active torsions:
REMARK  status: ('A' for Active; 'I' for Inactive)
REMARK    1  A    between atoms: C2_2  and  N1_5 
REMARK    2  A    between atoms: C5_6  and  C6_7 
ROOT
HETATM    1  N1  UNL     1       0.920  62.210  72.396  1.00  0.00     0.126 N 
HETATM    2  C5  UNL     1       1.496  61.125  71.670  1.00  0.00     0.323 C 
HETATM    3  S1  UNL     1       1.144  59.586  72.602  1.00  0.00    -0.117 SA
HETATM    4  C12 UNL     1       0.224  60.452  73.896  1.00  0.00     0.038 C 
HETATM    5  C13 UNL     1      -0.981  59.560  74.107  1.00  0.00     0.029 C 
HETATM    6  C14 UNL     1       0.937  60.484  75.195  1.00  0.00     0.029 C 
HETATM    7  C15 UNL     1      -0.099  61.787  73.277  1.00  0.00     0.171 C 
HETATM    8  C16 UNL     1      -0.335  62.674  74.482  1.00  0.00     0.050 C 
HETATM    9  C17 UNL     1      -1.480  61.636  72.665  1.00  0.00     0.050 C 
ENDROOT
BRANCH   2  10
HETATM   10  C6  UNL     1       2.980  61.057  71.605  1.00  0.00     0.023 A 
HETATM   11  C7  UNL     1       3.810  61.233  72.668  1.00  0.00     0.013 A 
HETATM   12  C8  UNL     1       5.170  61.144  72.561  1.00  0.00     0.001 A 
HETATM   13  C9  UNL     1       5.712  60.866  71.327  1.00  0.00     0.003 A 
HETATM   14  C10 UNL     1       4.903  60.684  70.239  1.00  0.00     0.043 A 
HETATM   15  C11 UNL     1       3.548  60.781  70.388  1.00  0.00     0.125 A 
HETATM   16  F1  UNL     1       2.779  60.595  69.288  1.00  0.00    -0.205 F 
ENDBRANCH   2  10
BRANCH   1  17
HETATM   17  C2  UNL     1       0.673  63.354  71.602  1.00  0.00     0.152 C 
HETATM   18  C1  UNL     1       1.993  63.960  71.078  1.00  0.00     0.048 C 
HETATM   19  C3  UNL     1      -0.164  63.179  70.364  1.00  0.00     0.048 C 
HETATM   20  C4  UNL     1       0.065  64.552  72.329  1.00  0.00     0.048 C 
ENDBRANCH   1  17
TORSDOF 2
ENDMDL
MODEL 5
REMARK VINA RESULT: -7.541075326      2.089      5.150
REMARK  2 active torsions:
REMARK  status: ('A' for Active; 'I' for Inactive)
REMARK    1  A    between atoms: C2_2  and  N1_5 
REMARK    2  A    between atoms: C5_6  and  C6_7 
ROOT
HETATM    1  N1  UNL     1       1.523  61.505  71.675  1.00  0.00     0.126 N 
HETATM    2  C5  UNL     1       1.885  60.953  72.940  1.00  0.00     0.323 C 
HETATM    3  S1  UNL     1       3.510  60.129  72.740  1.00  0.00    -0.117 SA
HETATM    4  C12 UNL     1       3.645  60.580  70.994  1.00  0.00     0.038 C 
HETATM    5  C13 UNL     1       5.085  61.031  70.873  1.00  0.00     0.029 C 
HETATM    6  C14 UNL     1       3.505  59.421  70.081  1.00  0.00     0.029 C 
HETATM    7  C15 UNL     1       2.637  61.688  70.829  1.00  0.00     0.171 C 
HETATM    8  C16 UNL     1       2.344  61.664  69.343  1.00  0.00     0.050 C 
HETATM    9  C17 UNL     1       3.408  62.981  71.023  1.00  0.00     0.050 C 
ENDROOT
BRANCH   2  10
HETATM   10  C6  UNL     1       1.075  59.815  73.448  1.00  0.00     0.023 A 
HETATM   11  C7  UNL     1       1.025  58.583  72.871  1.00  0.00     0.013 A 
HETATM   12  C8  UNL     1       0.277  57.561  73.385  1.00  0.00     0.001 A 
HETATM   13  C9  UNL     1      -0.450  57.794  74.530  1.00  0.00     0.003 A 
HETATM   14  C10 UNL     1      -0.421  59.022  75.132  1.00  0.00     0.043 A 
HETATM   15  C11 UNL     1       0.340  60.018  74.587  1.00  0.00     0.125 A 
HETATM   16  F1  UNL     1       0.345  61.221  75.211  1.00  0.00    -0.205 F 
ENDBRANCH   2  10
BRANCH   1  17
HETATM   17  C2  UNL     1       0.582  62.558  71.765  1.00  0.00     0.152 C 
HETATM   18  C1  UNL     1      -0.846  62.009  71.971  1.00  0.00     0.048 C 
HETATM   19  C3  UNL     1       0.753  63.555  72.880  1.00  0.00     0.048 C 
HETATM   20  C4  UNL     1       0.398  63.398  70.503  1.00  0.00     0.048 C 
ENDBRANCH   1  17
TORSDOF 2
ENDMDL
