MODEL 1
REMARK VINA RESULT: -7.009436067      0.000      0.000
REMARK  3 active torsions:
REMARK  status: ('A' for Active; 'I' for Inactive)
REMARK    1  A    between atoms: N1_1  and  C1_4 
REMARK    2  A    between atoms: C2_7  and  N3_8 
REMARK       I    between atoms: N3_8  and  C3_10 
REMARK       I    between atoms: C3_10  and  N4_12 
REMARK    3  A    between atoms: N4_12  and  N5_14 
ROOT
HETATM    1  C1  UNL     1      47.932 120.604  54.516  1.00  0.00     0.694 A 
HETATM    2  N2  UNL     1      49.045 120.399  53.769  1.00  0.00    -0.022 N 
ATOM      3  H2  UNL     1      49.650 119.606  53.983  1.00  0.00     0.203 HD
HETATM    4  C2  UNL     1      49.370 121.222  52.747  1.00  0.00     0.705 A 
HETATM    5  N6  UNL     1      48.547 122.246  52.505  1.00  0.00    -0.140 N 
ATOM      6  H6  UNL     1      48.782 122.874  51.736  1.00  0.00     0.189 HD
HETATM    7  C4  UNL     1      47.444 122.500  53.198  1.00  0.00     0.352 A 
HETATM    8  O2  UNL     1      46.655 123.450  52.996  1.00  0.00    -0.246 OA
HETATM    9  N7  UNL     1      47.140 121.652  54.225  1.00  0.00    -0.141 N 
ATOM     10  H7  UNL     1      46.300 121.817  54.780  1.00  0.00     0.189 HD
ENDROOT
BRANCH   4  11
HETATM   11  N3  UNL     1      50.544 120.969  51.993  1.00  0.00    -0.139 N 
HETATM   12  C3  UNL     1      50.596 119.884  51.083  1.00  0.00     0.352 C 
HETATM   13  O1  UNL     1      49.611 119.121  50.921  1.00  0.00    -0.245 OA
HETATM   14  N4  UNL     1      51.764 119.617  50.320  1.00  0.00    -0.258 N 
ATOM     15  H4  UNL     1      52.580 120.219  50.431  1.00  0.00     0.191 HD
ATOM     16  H3  UNL     1      51.358 121.574  52.107  1.00  0.00     0.189 HD
BRANCH  14  17
HETATM   17  N5  UNL     1      51.822 118.554  49.426  1.00  0.00    -0.341 N 
ATOM     18  H52 UNL     1      50.946 118.194  49.047  1.00  0.00     0.177 HD
ATOM     19  H51 UNL     1      52.711 118.137  49.149  1.00  0.00     0.177 HD
ENDBRANCH  14  17
ENDBRANCH   4  11
BRANCH   1  20
HETATM   20  N1  UNL     1      47.631 119.797  55.503  1.00  0.00    -0.234 N 
ATOM     21  H12 UNL     1      47.918 120.016  56.457  1.00  0.00     0.174 HD
ATOM     22  H11 UNL     1      47.106 118.939  55.332  1.00  0.00     0.174 HD
ENDBRANCH   1  20
TORSDOF 3
ENDMDL
MODEL 2
REMARK VINA RESULT: -6.623128912      1.311      1.325
REMARK  3 active torsions:
REMARK  status: ('A' for Active; 'I' for Inactive)
REMARK    1  A    between atoms: N1_1  and  C1_4 
REMARK    2  A    between atoms: C2_7  and  N3_8 
REMARK       I    between atoms: N3_8  and  C3_10 
REMARK       I    between atoms: C3_10  and  N4_12 
REMARK    3  A    between atoms: N4_12  and  N5_14 
ROOT
HETATM    1  C1  UNL     1      48.007 120.520  54.333  1.00  0.00     0.694 A 
HETATM    2  N2  UNL     1      49.011 120.293  53.450  1.00  0.00    -0.022 N 
ATOM      3  H2  UNL     1      49.611 119.477  53.576  1.00  0.00     0.203 HD
HETATM    4  C2  UNL     1      49.234 121.124  52.407  1.00  0.00     0.705 A 
HETATM    5  N6  UNL     1      48.423 122.179  52.284  1.00  0.00    -0.140 N 
ATOM      6  H6  UNL     1      48.581 122.813  51.501  1.00  0.00     0.189 HD
HETATM    7  C4  UNL     1      47.424 122.455  53.114  1.00  0.00     0.352 A 
HETATM    8  O2  UNL     1      46.648 123.432  53.025  1.00  0.00    -0.246 OA
HETATM    9  N7  UNL     1      47.221 121.598  54.158  1.00  0.00    -0.141 N 
ATOM     10  H7  UNL     1      46.463 121.779  54.816  1.00  0.00     0.189 HD
ENDROOT
BRANCH   4  11
HETATM   11  N3  UNL     1      50.297 120.849  51.509  1.00  0.00    -0.139 N 
HETATM   12  C3  UNL     1      50.134 121.056  50.116  1.00  0.00     0.352 C 
HETATM   13  O1  UNL     1      49.052 121.485  49.643  1.00  0.00    -0.245 OA
HETATM   14  N4  UNL     1      51.187 120.784  49.203  1.00  0.00    -0.258 N 
ATOM     15  H4  UNL     1      52.076 120.434  49.558  1.00  0.00     0.191 HD
ATOM     16  H3  UNL     1      51.185 120.498  51.868  1.00  0.00     0.189 HD
BRANCH  14  17
HETATM   17  N5  UNL     1      51.034 120.985  47.835  1.00  0.00    -0.341 N 
ATOM     18  H52 UNL     1      51.274 121.899  47.452  1.00  0.00     0.177 HD
ATOM     19  H51 UNL     1      50.692 120.245  47.222  1.00  0.00     0.177 HD
ENDBRANCH  14  17
ENDBRANCH   4  11
BRANCH   1  20
HETATM   20  N1  UNL     1      47.804 119.704  55.338  1.00  0.00    -0.234 N 
ATOM     21  H12 UNL     1      48.420 119.722  56.151  1.00  0.00     0.174 HD
ATOM     22  H11 UNL     1      47.028 119.042  55.322  1.00  0.00     0.174 HD
ENDBRANCH   1  20
TORSDOF 3
ENDMDL
MODEL 3
REMARK VINA RESULT: -6.540564197      1.875      2.516
REMARK  3 active torsions:
REMARK  status: ('A' for Active; 'I' for Inactive)
REMARK    1  A    between atoms: N1_1  and  C1_4 
REMARK    2  A    between atoms: C2_7  and  N3_8 
REMARK       I    between atoms: N3_8  and  C3_10 
REMARK       I    between atoms: C3_10  and  N4_12 
REMARK    3  A    between atoms: N4_12  and  N5_14 
ROOT
HETATM    1  C1  UNL     1      47.539 122.306  53.318  1.00  0.00     0.694 A 
HETATM    2  N2  UNL     1      48.547 122.086  52.438  1.00  0.00    -0.022 N 
ATOM      3  H2  UNL     1      48.667 122.722  51.649  1.00  0.00     0.203 HD
HETATM    4  C2  UNL     1      49.395 121.044  52.583  1.00  0.00     0.705 A 
HETATM    5  N6  UNL     1      49.198 120.240  53.632  1.00  0.00    -0.140 N 
ATOM      6  H6  UNL     1      49.832 119.450  53.752  1.00  0.00     0.189 HD
HETATM    7  C4  UNL     1      48.231 120.401  54.527  1.00  0.00     0.352 A 
HETATM    8  O2  UNL     1      48.022 119.666  55.518  1.00  0.00    -0.246 OA
HETATM    9  N7  UNL     1      47.389 121.463  54.356  1.00  0.00    -0.141 N 
ATOM     10  H7  UNL     1      46.634 121.618  55.024  1.00  0.00     0.189 HD
ENDROOT
BRANCH   4  11
HETATM   11  N3  UNL     1      50.435 120.852  51.637  1.00  0.00    -0.139 N 
HETATM   12  C3  UNL     1      50.171 120.945  50.248  1.00  0.00     0.352 C 
HETATM   13  O1  UNL     1      49.018 121.198  49.819  1.00  0.00    -0.245 OA
HETATM   14  N4  UNL     1      51.201 120.755  49.288  1.00  0.00    -0.258 N 
ATOM     15  H4  UNL     1      52.147 120.548  49.608  1.00  0.00     0.191 HD
ATOM     16  H3  UNL     1      51.380 120.645  51.961  1.00  0.00     0.189 HD
BRANCH  14  17
HETATM   17  N5  UNL     1      50.949 120.845  47.923  1.00  0.00    -0.341 N 
ATOM     18  H52 UNL     1      49.978 120.887  47.614  1.00  0.00     0.177 HD
ATOM     19  H51 UNL     1      51.707 120.868  47.241  1.00  0.00     0.177 HD
ENDBRANCH  14  17
ENDBRANCH   4  11
BRANCH   1  20
HETATM   20  N1  UNL     1      46.726 123.321  53.162  1.00  0.00    -0.234 N 
ATOM     21  H12 UNL     1      45.737 123.167  52.962  1.00  0.00     0.174 HD
ATOM     22  H11 UNL     1      47.068 124.279  53.241  1.00  0.00     0.174 HD
ENDBRANCH   1  20
TORSDOF 3
ENDMDL
MODEL 4
REMARK VINA RESULT: -6.351678040      2.742      3.215
REMARK  3 active torsions:
REMARK  status: ('A' for Active; 'I' for Inactive)
REMARK    1  A    between atoms: N1_1  and  C1_4 
REMARK    2  A    between atoms: C2_7  and  N3_8 
REMARK       I    between atoms: N3_8  and  C3_10 
REMARK       I    between atoms: C3_10  and  N4_12 
REMARK    3  A    between atoms: N4_12  and  N5_14 
ROOT
HETATM    1  C1  UNL     1      47.036 119.653  51.798  1.00  0.00     0.694 A 
HETATM    2  N2  UNL     1      48.044 120.412  51.301  1.00  0.00    -0.022 N 
ATOM      3  H2  UNL     1      47.880 120.971  50.463  1.00  0.00     0.203 HD
HETATM    4  C2  UNL     1      49.259 120.444  51.891  1.00  0.00     0.705 A 
HETATM    5  N6  UNL     1      49.425 119.695  52.986  1.00  0.00    -0.140 N 
ATOM      6  H6  UNL     1      50.338 119.711  53.440  1.00  0.00     0.189 HD
HETATM    7  C4  UNL     1      48.479 118.932  53.520  1.00  0.00     0.352 A 
HETATM    8  O2  UNL     1      48.604 118.221  54.542  1.00  0.00    -0.246 OA
HETATM    9  N7  UNL     1      47.261 118.919  52.903  1.00  0.00    -0.141 N 
ATOM     10  H7  UNL     1      46.511 118.344  53.286  1.00  0.00     0.189 HD
ENDROOT
BRANCH   4  11
HETATM   11  N3  UNL     1      50.285 121.252  51.336  1.00  0.00    -0.139 N 
HETATM   12  C3  UNL     1      50.498 121.283  49.936  1.00  0.00     0.352 C 
HETATM   13  O1  UNL     1      49.792 120.601  49.153  1.00  0.00    -0.245 OA
HETATM   14  N4  UNL     1      51.521 122.086  49.364  1.00  0.00    -0.258 N 
ATOM     15  H4  UNL     1      52.111 122.650  49.975  1.00  0.00     0.191 HD
ATOM     16  H3  UNL     1      50.873 121.815  51.951  1.00  0.00     0.189 HD
BRANCH  14  17
HETATM   17  N5  UNL     1      51.736 122.122  47.991  1.00  0.00    -0.341 N 
ATOM     18  H52 UNL     1      50.941 121.958  47.374  1.00  0.00     0.177 HD
ATOM     19  H51 UNL     1      52.661 122.304  47.599  1.00  0.00     0.177 HD
ENDBRANCH  14  17
ENDBRANCH   4  11
BRANCH   1  20
HETATM   20  N1  UNL     1      45.864 119.633  51.214  1.00  0.00    -0.234 N 
ATOM     21  H12 UNL     1      45.568 118.820  50.672  1.00  0.00     0.174 HD
ATOM     22  H11 UNL     1      45.229 120.428  51.293  1.00  0.00     0.174 HD
ENDBRANCH   1  20
TORSDOF 3
ENDMDL
MODEL 5
REMARK VINA RESULT: -6.345372711      3.521      4.348
REMARK  3 active torsions:
REMARK  status: ('A' for Active; 'I' for Inactive)
REMARK    1  A    between atoms: N1_1  and  C1_4 
REMARK    2  A    between atoms: C2_7  and  N3_8 
REMARK       I    between atoms: N3_8  and  C3_10 
REMARK       I    between atoms: C3_10  and  N4_12 
REMARK    3  A    between atoms: N4_12  and  N5_14 
ROOT
HETATM    1  C1  UNL     1      49.235 120.629  52.849  1.00  0.00     0.694 A 
HETATM    2  N2  UNL     1      48.356 120.947  51.867  1.00  0.00    -0.022 N 
ATOM      3  H2  UNL     1      48.556 121.740  51.257  1.00  0.00     0.203 HD
HETATM    4  C2  UNL     1      47.221 120.237  51.679  1.00  0.00     0.705 A 
HETATM    5  N6  UNL     1      47.003 119.208  52.503  1.00  0.00    -0.140 N 
ATOM      6  H6  UNL     1      46.150 118.664  52.371  1.00  0.00     0.189 HD
HETATM    7  C4  UNL     1      47.824 118.846  53.482  1.00  0.00     0.352 A 
HETATM    8  O2  UNL     1      47.647 117.889  54.268  1.00  0.00    -0.246 OA
HETATM    9  N7  UNL     1      48.963 119.581  53.649  1.00  0.00    -0.141 N 
ATOM     10  H7  UNL     1      49.616 119.333  54.391  1.00  0.00     0.189 HD
ENDROOT
BRANCH   4  11
HETATM   11  N3  UNL     1      46.330 120.606  50.639  1.00  0.00    -0.139 N 
HETATM   12  C3  UNL     1      46.175 119.782  49.497  1.00  0.00     0.352 C 
HETATM   13  O1  UNL     1      46.819 118.710  49.374  1.00  0.00    -0.245 OA
HETATM   14  N4  UNL     1      45.288 120.137  48.447  1.00  0.00    -0.258 N 
ATOM     15  H4  UNL     1      44.752 121.002  48.518  1.00  0.00     0.191 HD
ATOM     16  H3  UNL     1      45.796 121.472  50.715  1.00  0.00     0.189 HD
BRANCH  14  17
HETATM   17  N5  UNL     1      45.131 119.333  47.323  1.00  0.00    -0.341 N 
ATOM     18  H52 UNL     1      45.049 118.326  47.458  1.00  0.00     0.177 HD
ATOM     19  H51 UNL     1      45.099 119.729  46.383  1.00  0.00     0.177 HD
ENDBRANCH  14  17
ENDBRANCH   4  11
BRANCH   1  20
HETATM   20  N1  UNL     1      50.330 121.327  53.018  1.00  0.00    -0.234 N 
ATOM     21  H12 UNL     1      50.404 122.000  53.782  1.00  0.00     0.174 HD
ATOM     22  H11 UNL     1      51.125 121.208  52.390  1.00  0.00     0.174 HD
ENDBRANCH   1  20
TORSDOF 3
ENDMDL
