MODEL 1
REMARK VINA RESULT: -5.626530325      0.000      0.000
REMARK  4 active torsions:
REMARK  status: ('A' for Active; 'I' for Inactive)
REMARK    1  A    between atoms: N1_1  and  C1_5 
REMARK    2  A    between atoms: C1_5  and  C2_6 
REMARK       I    between atoms: C2_6  and  N2_8 
REMARK    3  A    between atoms: N2_8  and  S1_10 
REMARK    4  A    between atoms: S1_10  and  N3_11 
ROOT
HETATM    1  C2  UNL     1      49.748 120.585  51.501  1.00  0.00     0.287 C 
HETATM    2  O1  UNL     1      50.038 119.655  52.214  1.00  0.00    -0.268 OA
HETATM    3  N2  UNL     1      48.768 121.531  52.027  1.00  0.00    -0.234 N 
ATOM      4  H2  UNL     1      48.399 122.249  51.404  1.00  0.00     0.183 HD
ENDROOT
BRANCH   1   5
HETATM    5  C1  UNL     1      50.242 120.997  50.178  1.00  0.00     0.303 C 
HETATM    6  C3  UNL     1      50.072 119.974  49.072  1.00  0.00     0.199 C 
HETATM    7  N4  UNL     1      48.743 120.569  48.962  1.00  0.00    -0.141 NA
HETATM    8  N5  UNL     1      49.303 121.750  49.405  1.00  0.00    -0.098 NA
BRANCH   5   9
HETATM    9  N1  UNL     1      51.535 121.560  50.295  1.00  0.00    -0.044 N 
ATOM     10  H13 UNL     1      52.250 120.961  49.882  1.00  0.00     0.277 HD
ATOM     11  H12 UNL     1      51.652 122.373  49.691  1.00  0.00     0.277 HD
ATOM     12  H11 UNL     1      51.736 121.778  51.270  1.00  0.00     0.277 HD
ENDBRANCH   5   9
ENDBRANCH   1   5
BRANCH   3  13
HETATM   13  S1  UNL     1      48.210 121.488  53.652  1.00  0.00     0.319 S 
HETATM   14  O2  UNL     1      47.050 122.369  53.876  1.00  0.00    -0.183 OA
HETATM   15  O3  UNL     1      49.325 121.658  54.608  1.00  0.00    -0.183 OA
BRANCH  13  16
HETATM   16  N3  UNL     1      47.605 119.822  53.855  1.00  0.00    -0.311 N 
ATOM     17  H32 UNL     1      48.086 118.956  53.611  1.00  0.00     0.170 HD
ATOM     18  H31 UNL     1      46.680 119.945  54.266  1.00  0.00     0.170 HD
ENDBRANCH  13  16
ENDBRANCH   3  13
TORSDOF 4
ENDMDL
MODEL 2
REMARK VINA RESULT: -5.571108146      2.624      4.530
REMARK  4 active torsions:
REMARK  status: ('A' for Active; 'I' for Inactive)
REMARK    1  A    between atoms: N1_1  and  C1_5 
REMARK    2  A    between atoms: C1_5  and  C2_6 
REMARK       I    between atoms: C2_6  and  N2_8 
REMARK    3  A    between atoms: N2_8  and  S1_10 
REMARK    4  A    between atoms: S1_10  and  N3_11 
ROOT
HETATM    1  C2  UNL     1      48.860 120.557  52.033  1.00  0.00     0.287 C 
HETATM    2  O1  UNL     1      49.833 119.845  52.094  1.00  0.00    -0.268 OA
HETATM    3  N2  UNL     1      48.779 121.455  50.885  1.00  0.00    -0.234 N 
ATOM      4  H2  UNL     1      48.044 122.163  50.870  1.00  0.00     0.183 HD
ENDROOT
BRANCH   1   5
HETATM    5  C1  UNL     1      47.671 120.666  52.891  1.00  0.00     0.303 C 
HETATM    6  C3  UNL     1      47.940 121.059  54.331  1.00  0.00     0.199 C 
HETATM    7  N4  UNL     1      47.895 122.415  53.787  1.00  0.00    -0.141 NA
HETATM    8  N5  UNL     1      47.016 121.937  52.835  1.00  0.00    -0.098 NA
BRANCH   5   9
HETATM    9  N1  UNL     1      46.836 119.537  52.714  1.00  0.00    -0.044 N 
ATOM     10  H13 UNL     1      47.225 118.878  52.038  1.00  0.00     0.277 HD
ATOM     11  H12 UNL     1      46.837 118.929  53.533  1.00  0.00     0.277 HD
ATOM     12  H11 UNL     1      45.894 119.832  52.459  1.00  0.00     0.277 HD
ENDBRANCH   5   9
ENDBRANCH   1   5
BRANCH   3  13
HETATM   13  S1  UNL     1      49.867 121.373  49.558  1.00  0.00     0.319 S 
HETATM   14  O2  UNL     1      49.769 122.545  48.671  1.00  0.00    -0.183 OA
HETATM   15  O3  UNL     1      49.788 120.061  48.879  1.00  0.00    -0.183 OA
BRANCH  13  16
HETATM   16  N3  UNL     1      51.479 121.466  50.316  1.00  0.00    -0.311 N 
ATOM     17  H32 UNL     1      52.326 120.975  50.029  1.00  0.00     0.170 HD
ATOM     18  H31 UNL     1      51.349 122.117  51.091  1.00  0.00     0.170 HD
ENDBRANCH  13  16
ENDBRANCH   3  13
TORSDOF 4
ENDMDL
MODEL 3
REMARK VINA RESULT: -5.534761094      1.717      1.887
REMARK  4 active torsions:
REMARK  status: ('A' for Active; 'I' for Inactive)
REMARK    1  A    between atoms: N1_1  and  C1_5 
REMARK    2  A    between atoms: C1_5  and  C2_6 
REMARK       I    between atoms: C2_6  and  N2_8 
REMARK    3  A    between atoms: N2_8  and  S1_10 
REMARK    4  A    between atoms: S1_10  and  N3_11 
ROOT
HETATM    1  C2  UNL     1      49.329 120.746  51.382  1.00  0.00     0.287 C 
HETATM    2  O1  UNL     1      48.421 121.534  51.508  1.00  0.00    -0.268 OA
HETATM    3  N2  UNL     1      49.438 119.708  52.402  1.00  0.00    -0.234 N 
ATOM      4  H2  UNL     1      50.265 119.111  52.405  1.00  0.00     0.183 HD
ENDROOT
BRANCH   1   5
HETATM    5  C1  UNL     1      50.353 120.591  50.339  1.00  0.00     0.303 C 
HETATM    6  C3  UNL     1      50.770 119.163  50.044  1.00  0.00     0.199 C 
HETATM    7  N4  UNL     1      49.610 119.190  49.156  1.00  0.00    -0.141 NA
HETATM    8  N5  UNL     1      49.835 120.544  49.006  1.00  0.00    -0.098 NA
BRANCH   5   9
HETATM    9  N1  UNL     1      51.412 121.504  50.555  1.00  0.00    -0.044 N 
ATOM     10  H13 UNL     1      51.384 121.905  51.492  1.00  0.00     0.277 HD
ATOM     11  H12 UNL     1      52.314 121.033  50.620  1.00  0.00     0.277 HD
ATOM     12  H11 UNL     1      51.409 122.223  49.832  1.00  0.00     0.277 HD
ENDBRANCH   5   9
ENDBRANCH   1   5
BRANCH   3  13
HETATM   13  S1  UNL     1      48.232 119.446  53.599  1.00  0.00     0.319 S 
HETATM   14  O2  UNL     1      48.121 120.569  54.546  1.00  0.00    -0.183 OA
HETATM   15  O3  UNL     1      48.372 118.110  54.219  1.00  0.00    -0.183 OA
BRANCH  13  16
HETATM   16  N3  UNL     1      46.706 119.429  52.677  1.00  0.00    -0.311 N 
ATOM     17  H32 UNL     1      46.590 119.264  51.677  1.00  0.00     0.170 HD
ATOM     18  H31 UNL     1      45.992 119.623  53.380  1.00  0.00     0.170 HD
ENDBRANCH  13  16
ENDBRANCH   3  13
TORSDOF 4
ENDMDL
MODEL 4
REMARK VINA RESULT: -5.492548107      2.484      4.723
REMARK  4 active torsions:
REMARK  status: ('A' for Active; 'I' for Inactive)
REMARK    1  A    between atoms: N1_1  and  C1_5 
REMARK    2  A    between atoms: C1_5  and  C2_6 
REMARK       I    between atoms: C2_6  and  N2_8 
REMARK    3  A    between atoms: N2_8  and  S1_10 
REMARK    4  A    between atoms: S1_10  and  N3_11 
ROOT
HETATM    1  C2  UNL     1      49.162 120.470  52.828  1.00  0.00     0.287 C 
HETATM    2  O1  UNL     1      50.124 121.197  52.906  1.00  0.00    -0.268 OA
HETATM    3  N2  UNL     1      48.927 119.836  51.535  1.00  0.00    -0.234 N 
ATOM      4  H2  UNL     1      48.055 119.326  51.393  1.00  0.00     0.183 HD
ENDROOT
BRANCH   1   5
HETATM    5  C1  UNL     1      48.175 120.042  53.830  1.00  0.00     0.303 C 
HETATM    6  C3  UNL     1      47.644 118.632  53.660  1.00  0.00     0.199 C 
HETATM    7  N4  UNL     1      48.839 118.276  54.420  1.00  0.00    -0.141 NA
HETATM    8  N5  UNL     1      48.743 119.511  55.030  1.00  0.00    -0.098 NA
BRANCH   5   9
HETATM    9  N1  UNL     1      47.193 121.046  54.007  1.00  0.00    -0.044 N 
ATOM     10  H13 UNL     1      47.246 121.471  54.933  1.00  0.00     0.277 HD
ATOM     11  H12 UNL     1      47.392 121.876  53.448  1.00  0.00     0.277 HD
ATOM     12  H11 UNL     1      46.266 120.669  53.813  1.00  0.00     0.277 HD
ENDBRANCH   5   9
ENDBRANCH   1   5
BRANCH   3  13
HETATM   13  S1  UNL     1      50.055 119.910  50.241  1.00  0.00     0.319 S 
HETATM   14  O2  UNL     1      49.510 119.372  48.982  1.00  0.00    -0.183 OA
HETATM   15  O3  UNL     1      51.370 119.364  50.642  1.00  0.00    -0.183 OA
BRANCH  13  16
HETATM   16  N3  UNL     1      50.283 121.657  49.968  1.00  0.00    -0.311 N 
ATOM     17  H32 UNL     1      49.704 122.419  50.321  1.00  0.00     0.170 HD
ATOM     18  H31 UNL     1      51.118 121.709  49.383  1.00  0.00     0.170 HD
ENDBRANCH  13  16
ENDBRANCH   3  13
TORSDOF 4
ENDMDL
MODEL 5
REMARK VINA RESULT: -5.475624263      3.095      4.730
REMARK  4 active torsions:
REMARK  status: ('A' for Active; 'I' for Inactive)
REMARK    1  A    between atoms: N1_1  and  C1_5 
REMARK    2  A    between atoms: C1_5  and  C2_6 
REMARK       I    between atoms: C2_6  and  N2_8 
REMARK    3  A    between atoms: N2_8  and  S1_10 
REMARK    4  A    between atoms: S1_10  and  N3_11 
ROOT
HETATM    1  C2  UNL     1      48.463 119.363  51.712  1.00  0.00     0.287 C 
HETATM    2  O1  UNL     1      48.144 118.610  50.823  1.00  0.00    -0.268 OA
HETATM    3  N2  UNL     1      49.632 120.203  51.468  1.00  0.00    -0.234 N 
ATOM      4  H2  UNL     1      50.010 120.750  52.242  1.00  0.00     0.183 HD
ENDROOT
BRANCH   1   5
HETATM    5  C1  UNL     1      47.853 119.650  53.018  1.00  0.00     0.303 C 
HETATM    6  C3  UNL     1      47.718 118.462  53.950  1.00  0.00     0.199 C 
HETATM    7  N4  UNL     1      49.091 118.809  54.311  1.00  0.00    -0.141 NA
HETATM    8  N5  UNL     1      48.772 120.119  54.010  1.00  0.00    -0.098 NA
BRANCH   5   9
HETATM    9  N1  UNL     1      46.682 120.428  52.849  1.00  0.00    -0.044 N 
ATOM     10  H13 UNL     1      46.415 120.907  53.710  1.00  0.00     0.277 HD
ATOM     11  H12 UNL     1      46.850 121.248  52.266  1.00  0.00     0.277 HD
ATOM     12  H11 UNL     1      45.926 119.850  52.484  1.00  0.00     0.277 HD
ENDBRANCH   5   9
ENDBRANCH   1   5
BRANCH   3  13
HETATM   13  S1  UNL     1      50.401 120.308  49.935  1.00  0.00     0.319 S 
HETATM   14  O2  UNL     1      49.488 120.770  48.874  1.00  0.00    -0.183 OA
HETATM   15  O3  UNL     1      51.155 119.074  49.625  1.00  0.00    -0.183 OA
BRANCH  13  16
HETATM   16  N3  UNL     1      51.603 121.609  50.144  1.00  0.00    -0.311 N 
ATOM     17  H32 UNL     1      52.434 121.780  49.577  1.00  0.00     0.170 HD
ATOM     18  H31 UNL     1      51.265 122.129  50.954  1.00  0.00     0.170 HD
ENDBRANCH  13  16
ENDBRANCH   3  13
TORSDOF 4
ENDMDL
