MODEL 1
REMARK VINA RESULT: -6.808619396      0.000      0.000
REMARK  1 active torsions:
REMARK  status: ('A' for Active; 'I' for Inactive)
REMARK    1  A    between atoms: N1_1  and  C1_4 
REMARK       I    between atoms: N3_7  and  C2_8 
REMARK       I    between atoms: C2_8  and  N4_9 
REMARK       I    between atoms: C2_8  and  N5_13 
ROOT
HETATM    1  C1  UNL     1      46.522 119.846  50.222  1.00  0.00     0.143 A 
HETATM    2  N2  UNL     1      46.513 119.431  51.501  1.00  0.00    -0.278 N 
ATOM      3  H2  UNL     1      45.728 118.961  51.952  1.00  0.00     0.189 HD
HETATM    4  N3  UNL     1      47.666 119.716  52.098  1.00  0.00    -0.228 N 
HETATM    5  C2  UNL     1      48.007 119.418  53.463  1.00  0.00     0.502 C 
HETATM    6  N4  UNL     1      47.806 120.613  54.291  1.00  0.00    -0.031 N 
ATOM      7  H41 UNL     1      48.048 120.402  55.259  1.00  0.00     0.279 HD
ATOM      8  H42 UNL     1      46.862 120.989  54.203  1.00  0.00     0.279 HD
ATOM      9  H43 UNL     1      48.318 121.420  53.933  1.00  0.00     0.279 HD
HETATM   10  N5  UNL     1      47.132 118.357  53.930  1.00  0.00    -0.031 N 
ATOM     11  H51 UNL     1      47.374 118.145  54.898  1.00  0.00     0.279 HD
ATOM     12  H52 UNL     1      47.160 117.533  53.329  1.00  0.00     0.279 HD
ATOM     13  H53 UNL     1      46.145 118.581  53.812  1.00  0.00     0.279 HD
HETATM   14  C3  UNL     1      48.474 120.327  51.235  1.00  0.00     0.153 A 
HETATM   15  C4  UNL     1      49.752 120.819  51.345  1.00  0.00     0.277 A 
HETATM   16  O1  UNL     1      50.429 120.762  52.395  1.00  0.00    -0.266 OA
HETATM   17  N6  UNL     1      50.313 121.396  50.273  1.00  0.00    -0.318 N 
ATOM     18  H6  UNL     1      51.261 121.764  50.347  1.00  0.00     0.169 HD
HETATM   19  C5  UNL     1      49.660 121.502  49.105  1.00  0.00     0.184 A 
HETATM   20  N7  UNL     1      48.421 121.015  49.027  1.00  0.00    -0.347 N 
ATOM     21  H7  UNL     1      47.936 121.102  48.134  1.00  0.00     0.167 HD
HETATM   22  C6  UNL     1      47.761 120.418  50.034  1.00  0.00     0.113 A 
ENDROOT
BRANCH   1  23
HETATM   23  N1  UNL     1      45.588 119.751  49.317  1.00  0.00    -0.383 N 
ATOM     24  H12 UNL     1      45.138 120.538  48.850  1.00  0.00     0.157 HD
ATOM     25  H11 UNL     1      45.152 118.918  48.922  1.00  0.00     0.157 HD
ENDBRANCH   1  23
TORSDOF 1
ENDMDL
MODEL 2
REMARK VINA RESULT: -6.780902303      2.268      3.498
REMARK  1 active torsions:
REMARK  status: ('A' for Active; 'I' for Inactive)
REMARK    1  A    between atoms: N1_1  and  C1_4 
REMARK       I    between atoms: N3_7  and  C2_8 
REMARK       I    between atoms: C2_8  and  N4_9 
REMARK       I    between atoms: C2_8  and  N5_13 
ROOT
HETATM    1  C1  UNL     1      50.209 120.942  50.427  1.00  0.00     0.143 A 
HETATM    2  N2  UNL     1      49.270 121.179  51.359  1.00  0.00    -0.278 N 
ATOM      3  H2  UNL     1      49.410 121.755  52.189  1.00  0.00     0.189 HD
HETATM    4  N3  UNL     1      48.133 120.562  51.052  1.00  0.00    -0.228 N 
HETATM    5  C2  UNL     1      46.919 120.595  51.822  1.00  0.00     0.502 C 
HETATM    6  N4  UNL     1      46.825 119.382  52.642  1.00  0.00    -0.031 N 
ATOM      7  H41 UNL     1      45.964 119.406  53.188  1.00  0.00     0.279 HD
ATOM      8  H42 UNL     1      47.649 119.249  53.228  1.00  0.00     0.279 HD
ATOM      9  H43 UNL     1      46.904 118.532  52.083  1.00  0.00     0.279 HD
HETATM   10  N5  UNL     1      46.960 121.761  52.687  1.00  0.00    -0.031 N 
ATOM     11  H51 UNL     1      46.099 121.784  53.233  1.00  0.00     0.279 HD
ATOM     12  H52 UNL     1      47.123 122.626  52.173  1.00  0.00     0.279 HD
ATOM     13  H53 UNL     1      47.796 121.787  53.271  1.00  0.00     0.279 HD
HETATM   14  C3  UNL     1      48.283 119.898  49.908  1.00  0.00     0.153 A 
HETATM   15  C4  UNL     1      47.431 119.115  49.169  1.00  0.00     0.277 A 
HETATM   16  O1  UNL     1      46.247 118.879  49.494  1.00  0.00    -0.266 OA
HETATM   17  N6  UNL     1      47.885 118.568  48.032  1.00  0.00    -0.318 N 
ATOM     18  H6  UNL     1      47.258 117.985  47.477  1.00  0.00     0.169 HD
HETATM   19  C5  UNL     1      49.142 118.766  47.605  1.00  0.00     0.184 A 
HETATM   20  N7  UNL     1      49.947 119.531  48.344  1.00  0.00    -0.347 N 
ATOM     21  H7  UNL     1      50.899 119.674  48.007  1.00  0.00     0.167 HD
HETATM   22  C6  UNL     1      49.601 120.129  49.496  1.00  0.00     0.113 A 
ENDROOT
BRANCH   1  23
HETATM   23  N1  UNL     1      51.442 121.364  50.370  1.00  0.00    -0.383 N 
ATOM     24  H12 UNL     1      52.262 120.832  50.660  1.00  0.00     0.157 HD
ATOM     25  H11 UNL     1      51.804 122.260  50.043  1.00  0.00     0.157 HD
ENDBRANCH   1  23
TORSDOF 1
ENDMDL
MODEL 3
REMARK VINA RESULT: -6.535222511      2.179      4.465
REMARK  1 active torsions:
REMARK  status: ('A' for Active; 'I' for Inactive)
REMARK    1  A    between atoms: N1_1  and  C1_4 
REMARK       I    between atoms: N3_7  and  C2_8 
REMARK       I    between atoms: C2_8  and  N4_9 
REMARK       I    between atoms: C2_8  and  N5_13 
ROOT
HETATM    1  C1  UNL     1      49.791 120.804  52.544  1.00  0.00     0.143 A 
HETATM    2  N2  UNL     1      50.712 120.325  51.691  1.00  0.00    -0.278 N 
ATOM      3  H2  UNL     1      51.720 120.437  51.803  1.00  0.00     0.189 HD
HETATM    4  N3  UNL     1      50.132 119.683  50.681  1.00  0.00    -0.228 N 
HETATM    5  C2  UNL     1      50.809 119.045  49.585  1.00  0.00     0.502 C 
HETATM    6  N4  UNL     1      50.809 119.938  48.420  1.00  0.00    -0.031 N 
ATOM      7  H41 UNL     1      51.289 119.485  47.643  1.00  0.00     0.279 HD
ATOM      8  H42 UNL     1      51.204 120.853  48.637  1.00  0.00     0.279 HD
ATOM      9  H43 UNL     1      49.867 120.241  48.168  1.00  0.00     0.279 HD
HETATM   10  N5  UNL     1      52.179 118.780  49.988  1.00  0.00    -0.031 N 
ATOM     11  H51 UNL     1      52.659 118.327  49.211  1.00  0.00     0.279 HD
ATOM     12  H52 UNL     1      52.237 118.242  50.852  1.00  0.00     0.279 HD
ATOM     13  H53 UNL     1      52.661 119.617  50.313  1.00  0.00     0.279 HD
HETATM   14  C3  UNL     1      48.811 119.718  50.834  1.00  0.00     0.153 A 
HETATM   15  C4  UNL     1      47.774 119.215  50.085  1.00  0.00     0.277 A 
HETATM   16  O1  UNL     1      47.932 118.574  49.024  1.00  0.00    -0.266 OA
HETATM   17  N6  UNL     1      46.518 119.418  50.509  1.00  0.00    -0.318 N 
ATOM     18  H6  UNL     1      45.743 119.048  49.959  1.00  0.00     0.169 HD
HETATM   19  C5  UNL     1      46.254 120.095  51.637  1.00  0.00     0.184 A 
HETATM   20  N7  UNL     1      47.280 120.572  52.344  1.00  0.00    -0.347 N 
ATOM     21  H7  UNL     1      47.065 121.084  53.199  1.00  0.00     0.167 HD
HETATM   22  C6  UNL     1      48.575 120.429  52.016  1.00  0.00     0.113 A 
ENDROOT
BRANCH   1  23
HETATM   23  N1  UNL     1      49.959 121.484  53.645  1.00  0.00    -0.383 N 
ATOM     24  H12 UNL     1      49.613 121.211  54.565  1.00  0.00     0.157 HD
ATOM     25  H11 UNL     1      50.442 122.370  53.790  1.00  0.00     0.157 HD
ENDBRANCH   1  23
TORSDOF 1
ENDMDL
MODEL 4
REMARK VINA RESULT: -6.489624359      2.315      3.311
REMARK  1 active torsions:
REMARK  status: ('A' for Active; 'I' for Inactive)
REMARK    1  A    between atoms: N1_1  and  C1_4 
REMARK       I    between atoms: N3_7  and  C2_8 
REMARK       I    between atoms: C2_8  and  N4_9 
REMARK       I    between atoms: C2_8  and  N5_13 
ROOT
HETATM    1  C1  UNL     1      46.597 123.111  50.438  1.00  0.00     0.143 A 
HETATM    2  N2  UNL     1      47.439 123.029  51.482  1.00  0.00    -0.278 N 
ATOM      3  H2  UNL     1      47.773 123.828  52.021  1.00  0.00     0.189 HD
HETATM    4  N3  UNL     1      47.779 121.765  51.717  1.00  0.00    -0.228 N 
HETATM    5  C2  UNL     1      48.662 121.306  52.755  1.00  0.00     0.502 C 
HETATM    6  N4  UNL     1      50.002 121.085  52.197  1.00  0.00    -0.031 N 
ATOM      7  H41 UNL     1      50.628 120.760  52.933  1.00  0.00     0.279 HD
ATOM      8  H42 UNL     1      50.362 121.913  51.722  1.00  0.00     0.279 HD
ATOM      9  H43 UNL     1      49.986 120.453  51.396  1.00  0.00     0.279 HD
HETATM   10  N5  UNL     1      48.731 122.332  53.781  1.00  0.00    -0.031 N 
ATOM     11  H51 UNL     1      49.357 122.006  54.517  1.00  0.00     0.279 HD
ATOM     12  H52 UNL     1      47.811 122.594  54.135  1.00  0.00     0.279 HD
ATOM     13  H53 UNL     1      49.001 123.242  53.409  1.00  0.00     0.279 HD
HETATM   14  C3  UNL     1      47.172 120.971  50.837  1.00  0.00     0.153 A 
HETATM   15  C4  UNL     1      47.185 119.611  50.648  1.00  0.00     0.277 A 
HETATM   16  O1  UNL     1      47.845 118.818  51.355  1.00  0.00    -0.266 OA
HETATM   17  N6  UNL     1      46.453 119.094  49.652  1.00  0.00    -0.318 N 
ATOM     18  H6  UNL     1      46.457 118.084  49.505  1.00  0.00     0.169 HD
HETATM   19  C5  UNL     1      45.715 119.868  48.842  1.00  0.00     0.184 A 
HETATM   20  N7  UNL     1      45.721 121.186  49.049  1.00  0.00    -0.347 N 
ATOM     21  H7  UNL     1      45.155 121.763  48.426  1.00  0.00     0.167 HD
HETATM   22  C6  UNL     1      46.415 121.812  50.014  1.00  0.00     0.113 A 
ENDROOT
BRANCH   1  23
HETATM   23  N1  UNL     1      46.044 124.164  49.903  1.00  0.00    -0.383 N 
ATOM     24  H12 UNL     1      45.180 124.603  50.221  1.00  0.00     0.157 HD
ATOM     25  H11 UNL     1      46.352 124.722  49.107  1.00  0.00     0.157 HD
ENDBRANCH   1  23
TORSDOF 1
ENDMDL
MODEL 5
REMARK VINA RESULT: -6.450188402      2.266      3.688
REMARK  1 active torsions:
REMARK  status: ('A' for Active; 'I' for Inactive)
REMARK    1  A    between atoms: N1_1  and  C1_4 
REMARK       I    between atoms: N3_7  and  C2_8 
REMARK       I    between atoms: C2_8  and  N4_9 
REMARK       I    between atoms: C2_8  and  N5_13 
ROOT
HETATM    1  C1  UNL     1      47.448 120.272  51.300  1.00  0.00     0.143 A 
HETATM    2  N2  UNL     1      48.698 119.906  50.968  1.00  0.00    -0.278 N 
ATOM      3  H2  UNL     1      49.165 119.065  51.306  1.00  0.00     0.189 HD
HETATM    4  N3  UNL     1      49.245 120.790  50.138  1.00  0.00    -0.228 N 
HETATM    5  C2  UNL     1      50.568 120.719  49.579  1.00  0.00     0.502 C 
HETATM    6  N4  UNL     1      51.475 121.571  50.357  1.00  0.00    -0.031 N 
ATOM      7  H41 UNL     1      52.413 121.520  49.960  1.00  0.00     0.279 HD
ATOM      8  H42 UNL     1      51.464 121.339  51.350  1.00  0.00     0.279 HD
ATOM      9  H43 UNL     1      51.138 122.531  50.427  1.00  0.00     0.279 HD
HETATM   10  N5  UNL     1      51.019 119.341  49.652  1.00  0.00    -0.031 N 
ATOM     11  H51 UNL     1      51.957 119.290  49.255  1.00  0.00     0.279 HD
ATOM     12  H52 UNL     1      50.370 118.691  49.209  1.00  0.00     0.279 HD
ATOM     13  H53 UNL     1      50.971 118.961  50.597  1.00  0.00     0.279 HD
HETATM   14  C3  UNL     1      48.375 121.768  49.895  1.00  0.00     0.153 A 
HETATM   15  C4  UNL     1      48.441 122.901  49.122  1.00  0.00     0.277 A 
HETATM   16  O1  UNL     1      49.444 123.225  48.450  1.00  0.00    -0.266 OA
HETATM   17  N6  UNL     1      47.375 123.712  49.078  1.00  0.00    -0.318 N 
ATOM     18  H6  UNL     1      47.416 124.556  48.506  1.00  0.00     0.169 HD
HETATM   19  C5  UNL     1      46.255 123.445  49.768  1.00  0.00     0.184 A 
HETATM   20  N7  UNL     1      46.219 122.337  50.510  1.00  0.00    -0.347 N 
ATOM     21  H7  UNL     1      45.361 122.146  51.028  1.00  0.00     0.167 HD
HETATM   22  C6  UNL     1      47.224 121.454  50.628  1.00  0.00     0.113 A 
ENDROOT
BRANCH   1  23
HETATM   23  N1  UNL     1      46.594 119.675  52.084  1.00  0.00    -0.383 N 
ATOM     24  H12 UNL     1      45.579 119.765  52.028  1.00  0.00     0.157 HD
ATOM     25  H11 UNL     1      46.765 119.038  52.862  1.00  0.00     0.157 HD
ENDBRANCH   1  23
TORSDOF 1
ENDMDL
