MODEL 1
REMARK VINA RESULT: -7.464396428      0.000      0.000
REMARK  9 active torsions:
REMARK  status: ('A' for Active; 'I' for Inactive)
REMARK    1  A    between atoms: C5_5  and  C6_6 
REMARK    2  A    between atoms: C7_7  and  C8_8 
REMARK    3  A    between atoms: C10_12  and  N2_13 
REMARK    4  A    between atoms: C13_21  and  C14_22 
REMARK    5  A    between atoms: C14_22  and  C15_23 
REMARK    6  A    between atoms: C15_23  and  S1_24 
REMARK    7  A    between atoms: S1_24  and  C16_26 
REMARK    8  A    between atoms: C16_26  and  C17_27 
REMARK    9  A    between atoms: C17_27  and  N4_28 
ROOT
HETATM    1  C1  UNL     1      15.179  -6.302  17.256  1.00  0.00     0.049 C 
HETATM    2  C2  UNL     1      14.743  -5.917  18.635  1.00  0.00    -0.056 A 
HETATM    3  C3  UNL     1      14.532  -4.599  18.979  1.00  0.00     0.009 A 
HETATM    4  C4  UNL     1      14.130  -4.232  20.246  1.00  0.00     0.021 A 
HETATM    5  C5  UNL     1      13.918  -5.172  21.241  1.00  0.00     0.018 A 
HETATM    6  C12 UNL     1      14.132  -6.488  20.885  1.00  0.00     0.028 A 
HETATM    7  C13 UNL     1      14.534  -6.861  19.620  1.00  0.00    -0.050 A 
ENDROOT
BRANCH   7   8
HETATM    8  C14 UNL     1      14.732  -8.288  19.353  1.00  0.00     0.051 C 
BRANCH   8   9
HETATM    9  C15 UNL     1      15.478  -9.005  20.444  1.00  0.00     0.113 C 
BRANCH   9  10
HETATM   10  S1  UNL     1      15.231 -10.749  20.415  1.00  0.00     0.016 S 
HETATM   11  O2  UNL     1      15.956 -11.480  19.109  1.00  0.00    -0.258 OA
BRANCH  10  12
HETATM   12  C16 UNL     1      13.461 -11.029  20.385  1.00  0.00     0.136 C 
BRANCH  12  13
HETATM   13  C17 UNL     1      13.004 -11.078  21.808  1.00  0.00     0.250 C 
BRANCH  13  14
HETATM   14  N4  UNL     1      12.018 -10.076  22.150  1.00  0.00    -0.063 N 
HETATM   15  C18 UNL     1      10.917 -10.737  22.784  1.00  0.00     0.239 C 
HETATM   16  C19 UNL     1       9.579 -10.109  22.539  1.00  0.00     0.056 C 
HETATM   17  C20 UNL     1       9.546  -8.721  23.159  1.00  0.00     0.238 C 
HETATM   18  N5  UNL     1      10.612  -7.887  22.630  1.00  0.00    -0.068 N 
HETATM   19  C21 UNL     1      10.154  -6.493  22.745  1.00  0.00     0.272 C 
HETATM   20  C22 UNL     1      10.801  -8.147  21.237  1.00  0.00     0.265 C 
HETATM   21  C24 UNL     1      11.789  -8.000  23.435  1.00  0.00     0.265 C 
HETATM   22  C23 UNL     1      11.674  -9.353  20.960  1.00  0.00     0.265 C 
HETATM   23  C25 UNL     1      12.630  -9.202  23.150  1.00  0.00     0.265 C 
ENDBRANCH  13  14
ENDBRANCH  12  13
ENDBRANCH  10  12
ENDBRANCH   9  10
ENDBRANCH   8   9
ENDBRANCH   7   8
BRANCH   5  24
HETATM   24  C6  UNL     1      13.500  -4.793  22.565  1.00  0.00    -0.061 C 
HETATM   25  C7  UNL     1      13.168  -4.466  23.679  1.00  0.00    -0.054 C 
BRANCH  25  26
HETATM   26  C8  UNL     1      12.798  -4.067  25.009  1.00  0.00     0.102 A 
HETATM   27  C9  UNL     1      11.517  -4.248  25.509  1.00  0.00     0.132 A 
HETATM   28  N1  UNL     1      11.194  -3.865  26.757  1.00  0.00    -0.201 N 
HETATM   29  C10 UNL     1      12.093  -3.291  27.573  1.00  0.00     0.678 A 
ATOM     30  H1  UNL     1      10.242  -4.015  27.091  1.00  0.00     0.183 HD
HETATM   31  N3  UNL     1      13.357  -3.097  27.120  1.00  0.00    -0.155 N 
HETATM   32  C11 UNL     1      13.693  -3.475  25.876  1.00  0.00     0.279 A 
ATOM     33  H3  UNL     1      14.054  -2.663  27.725  1.00  0.00     0.187 HD
HETATM   34  O1  UNL     1      14.880  -3.297  25.439  1.00  0.00    -0.266 OA
BRANCH  29  35
HETATM   35  N2  UNL     1      11.766  -2.922  28.784  1.00  0.00    -0.234 N 
ATOM     36  H22 UNL     1      11.561  -3.624  29.495  1.00  0.00     0.174 HD
ATOM     37  H21 UNL     1      11.711  -1.935  29.037  1.00  0.00     0.174 HD
ENDBRANCH  29  35
ENDBRANCH  25  26
ENDBRANCH   5  24
TORSDOF 9
ENDMDL
MODEL 2
REMARK VINA RESULT: -7.416959043      0.452      1.241
REMARK  9 active torsions:
REMARK  status: ('A' for Active; 'I' for Inactive)
REMARK    1  A    between atoms: C5_5  and  C6_6 
REMARK    2  A    between atoms: C7_7  and  C8_8 
REMARK    3  A    between atoms: C10_12  and  N2_13 
REMARK    4  A    between atoms: C13_21  and  C14_22 
REMARK    5  A    between atoms: C14_22  and  C15_23 
REMARK    6  A    between atoms: C15_23  and  S1_24 
REMARK    7  A    between atoms: S1_24  and  C16_26 
REMARK    8  A    between atoms: C16_26  and  C17_27 
REMARK    9  A    between atoms: C17_27  and  N4_28 
ROOT
HETATM    1  C1  UNL     1      15.228  -6.252  17.204  1.00  0.00     0.049 C 
HETATM    2  C2  UNL     1      14.785  -5.877  18.583  1.00  0.00    -0.056 A 
HETATM    3  C3  UNL     1      14.542  -4.564  18.926  1.00  0.00     0.009 A 
HETATM    4  C4  UNL     1      14.132  -4.205  20.193  1.00  0.00     0.021 A 
HETATM    5  C5  UNL     1      13.944  -5.149  21.189  1.00  0.00     0.018 A 
HETATM    6  C12 UNL     1      14.191  -6.460  20.835  1.00  0.00     0.028 A 
HETATM    7  C13 UNL     1      14.600  -6.824  19.569  1.00  0.00    -0.050 A 
ENDROOT
BRANCH   7   8
HETATM    8  C14 UNL     1      14.832  -8.246  19.303  1.00  0.00     0.051 C 
BRANCH   8   9
HETATM    9  C15 UNL     1      15.534  -8.960  20.426  1.00  0.00     0.113 C 
BRANCH   9  10
HETATM   10  S1  UNL     1      15.205 -10.691  20.452  1.00  0.00     0.016 S 
HETATM   11  O2  UNL     1      15.962 -11.509  19.218  1.00  0.00    -0.258 OA
BRANCH  10  12
HETATM   12  C16 UNL     1      13.428 -10.891  20.337  1.00  0.00     0.136 C 
BRANCH  12  13
HETATM   13  C17 UNL     1      12.901 -10.912  21.736  1.00  0.00     0.250 C 
BRANCH  13  14
HETATM   14  N4  UNL     1      11.987  -9.832  22.042  1.00  0.00    -0.063 N 
HETATM   15  C18 UNL     1      12.707  -8.841  22.783  1.00  0.00     0.239 C 
HETATM   16  C19 UNL     1      11.889  -8.089  23.789  1.00  0.00     0.056 C 
HETATM   17  C20 UNL     1      10.824  -7.273  23.073  1.00  0.00     0.238 C 
HETATM   18  N5  UNL     1       9.979  -8.124  22.252  1.00  0.00    -0.068 N 
HETATM   19  C21 UNL     1       8.679  -7.443  22.139  1.00  0.00     0.272 C 
HETATM   20  C22 UNL     1       9.737  -9.369  22.912  1.00  0.00     0.265 C 
HETATM   21  C24 UNL     1      10.504  -8.229  20.926  1.00  0.00     0.265 C 
HETATM   22  C23 UNL     1      10.850 -10.378  22.724  1.00  0.00     0.265 C 
HETATM   23  C25 UNL     1      11.607  -9.225  20.767  1.00  0.00     0.265 C 
ENDBRANCH  13  14
ENDBRANCH  12  13
ENDBRANCH  10  12
ENDBRANCH   9  10
ENDBRANCH   8   9
ENDBRANCH   7   8
BRANCH   5  24
HETATM   24  C6  UNL     1      13.518  -4.779  22.513  1.00  0.00    -0.061 C 
HETATM   25  C7  UNL     1      13.180  -4.458  23.627  1.00  0.00    -0.054 C 
BRANCH  25  26
HETATM   26  C8  UNL     1      12.800  -4.063  24.955  1.00  0.00     0.102 A 
HETATM   27  C9  UNL     1      11.515  -4.245  25.445  1.00  0.00     0.132 A 
HETATM   28  N1  UNL     1      11.183  -3.866  26.691  1.00  0.00    -0.201 N 
HETATM   29  C10 UNL     1      12.076  -3.296  27.517  1.00  0.00     0.678 A 
ATOM     30  H1  UNL     1      10.228  -4.016  27.018  1.00  0.00     0.183 HD
HETATM   31  N3  UNL     1      13.344  -3.101  27.074  1.00  0.00    -0.155 N 
HETATM   32  C11 UNL     1      13.689  -3.475  25.831  1.00  0.00     0.279 A 
ATOM     33  H3  UNL     1      14.037  -2.670  27.686  1.00  0.00     0.187 HD
HETATM   34  O1  UNL     1      14.879  -3.297  25.404  1.00  0.00    -0.266 OA
BRANCH  29  35
HETATM   35  N2  UNL     1      11.741  -2.931  28.726  1.00  0.00    -0.234 N 
ATOM     36  H22 UNL     1      12.136  -3.412  29.534  1.00  0.00     0.174 HD
ATOM     37  H21 UNL     1      11.085  -2.165  28.883  1.00  0.00     0.174 HD
ENDBRANCH  29  35
ENDBRANCH  25  26
ENDBRANCH   5  24
TORSDOF 9
ENDMDL
MODEL 3
REMARK VINA RESULT: -7.385081029      0.877      1.613
REMARK  9 active torsions:
REMARK  status: ('A' for Active; 'I' for Inactive)
REMARK    1  A    between atoms: C5_5  and  C6_6 
REMARK    2  A    between atoms: C7_7  and  C8_8 
REMARK    3  A    between atoms: C10_12  and  N2_13 
REMARK    4  A    between atoms: C13_21  and  C14_22 
REMARK    5  A    between atoms: C14_22  and  C15_23 
REMARK    6  A    between atoms: C15_23  and  S1_24 
REMARK    7  A    between atoms: S1_24  and  C16_26 
REMARK    8  A    between atoms: C16_26  and  C17_27 
REMARK    9  A    between atoms: C17_27  and  N4_28 
ROOT
HETATM    1  C1  UNL     1      15.308  -6.390  17.317  1.00  0.00     0.049 C 
HETATM    2  C2  UNL     1      14.844  -5.976  18.679  1.00  0.00    -0.056 A 
HETATM    3  C3  UNL     1      14.536  -4.663  18.964  1.00  0.00     0.009 A 
HETATM    4  C4  UNL     1      14.106  -4.270  20.214  1.00  0.00     0.021 A 
HETATM    5  C5  UNL     1      13.964  -5.177  21.252  1.00  0.00     0.018 A 
HETATM    6  C12 UNL     1      14.276  -6.488  20.955  1.00  0.00     0.028 A 
HETATM    7  C13 UNL     1      14.705  -6.887  19.706  1.00  0.00    -0.050 A 
ENDROOT
BRANCH   7   8
HETATM    8  C14 UNL     1      15.008  -8.306  19.503  1.00  0.00     0.051 C 
BRANCH   8   9
HETATM    9  C15 UNL     1      15.255  -9.056  20.783  1.00  0.00     0.113 C 
BRANCH   9  10
HETATM   10  S1  UNL     1      14.398 -10.594  20.857  1.00  0.00     0.016 S 
HETATM   11  O2  UNL     1      14.942 -11.689  19.730  1.00  0.00    -0.258 OA
BRANCH  10  12
HETATM   12  C16 UNL     1      12.660 -10.240  20.596  1.00  0.00     0.136 C 
BRANCH  12  13
HETATM   13  C17 UNL     1      12.097  -9.826  21.918  1.00  0.00     0.250 C 
BRANCH  13  14
HETATM   14  N4  UNL     1      11.095  -8.785  21.836  1.00  0.00    -0.063 N 
HETATM   15  C18 UNL     1      11.059  -8.313  20.485  1.00  0.00     0.239 C 
HETATM   16  C19 UNL     1      10.716  -6.861  20.335  1.00  0.00     0.056 C 
HETATM   17  C20 UNL     1       9.294  -6.621  20.818  1.00  0.00     0.238 C 
HETATM   18  N5  UNL     1       9.132  -7.049  22.197  1.00  0.00    -0.068 N 
HETATM   19  C21 UNL     1       8.040  -6.242  22.764  1.00  0.00     0.272 C 
HETATM   20  C22 UNL     1      10.307  -6.744  22.953  1.00  0.00     0.265 C 
HETATM   21  C24 UNL     1       8.708  -8.413  22.256  1.00  0.00     0.265 C 
HETATM   22  C23 UNL     1      11.402  -7.780  22.812  1.00  0.00     0.265 C 
HETATM   23  C25 UNL     1       9.804  -9.418  22.106  1.00  0.00     0.265 C 
ENDBRANCH  13  14
ENDBRANCH  12  13
ENDBRANCH  10  12
ENDBRANCH   9  10
ENDBRANCH   8   9
ENDBRANCH   7   8
BRANCH   5  24
HETATM   24  C6  UNL     1      13.519  -4.770  22.558  1.00  0.00    -0.061 C 
HETATM   25  C7  UNL     1      13.164  -4.435  23.662  1.00  0.00    -0.054 C 
BRANCH  25  26
HETATM   26  C8  UNL     1      12.765  -4.042  24.985  1.00  0.00     0.102 A 
HETATM   27  C9  UNL     1      11.470  -4.213  25.453  1.00  0.00     0.132 A 
HETATM   28  N1  UNL     1      11.121  -3.836  26.695  1.00  0.00    -0.201 N 
HETATM   29  C10 UNL     1      12.006  -3.277  27.538  1.00  0.00     0.678 A 
ATOM     30  H1  UNL     1      10.160  -3.978  27.005  1.00  0.00     0.183 HD
HETATM   31  N3  UNL     1      13.283  -3.093  27.117  1.00  0.00    -0.155 N 
HETATM   32  C11 UNL     1      13.644  -3.465  25.879  1.00  0.00     0.279 A 
ATOM     33  H3  UNL     1      13.969  -2.671  27.742  1.00  0.00     0.187 HD
HETATM   34  O1  UNL     1      14.844  -3.297  25.472  1.00  0.00    -0.266 OA
BRANCH  29  35
HETATM   35  N2  UNL     1      11.654  -2.914  28.743  1.00  0.00    -0.234 N 
ATOM     36  H22 UNL     1      10.785  -3.261  29.149  1.00  0.00     0.174 HD
ATOM     37  H21 UNL     1      12.236  -2.283  29.294  1.00  0.00     0.174 HD
ENDBRANCH  29  35
ENDBRANCH  25  26
ENDBRANCH   5  24
TORSDOF 9
ENDMDL
MODEL 4
REMARK VINA RESULT: -7.358098422      0.861      1.183
REMARK  9 active torsions:
REMARK  status: ('A' for Active; 'I' for Inactive)
REMARK    1  A    between atoms: C5_5  and  C6_6 
REMARK    2  A    between atoms: C7_7  and  C8_8 
REMARK    3  A    between atoms: C10_12  and  N2_13 
REMARK    4  A    between atoms: C13_21  and  C14_22 
REMARK    5  A    between atoms: C14_22  and  C15_23 
REMARK    6  A    between atoms: C15_23  and  S1_24 
REMARK    7  A    between atoms: S1_24  and  C16_26 
REMARK    8  A    between atoms: C16_26  and  C17_27 
REMARK    9  A    between atoms: C17_27  and  N4_28 
ROOT
HETATM    1  C1  UNL     1      15.119  -6.137  17.409  1.00  0.00     0.049 C 
HETATM    2  C2  UNL     1      14.693  -5.776  18.798  1.00  0.00    -0.056 A 
HETATM    3  C3  UNL     1      14.447  -4.467  19.155  1.00  0.00     0.009 A 
HETATM    4  C4  UNL     1      14.053  -4.122  20.431  1.00  0.00     0.021 A 
HETATM    5  C5  UNL     1      13.884  -5.076  21.422  1.00  0.00     0.018 A 
HETATM    6  C12 UNL     1      14.133  -6.382  21.052  1.00  0.00     0.028 A 
HETATM    7  C13 UNL     1      14.527  -6.733  19.777  1.00  0.00    -0.050 A 
ENDROOT
BRANCH   7   8
HETATM    8  C14 UNL     1      14.763  -8.151  19.496  1.00  0.00     0.051 C 
BRANCH   8   9
HETATM    9  C15 UNL     1      15.306  -8.914  20.673  1.00  0.00     0.113 C 
BRANCH   9  10
HETATM   10  S1  UNL     1      15.096 -10.657  20.519  1.00  0.00     0.016 S 
HETATM   11  O2  UNL     1      15.781 -11.268  19.132  1.00  0.00    -0.258 OA
BRANCH  10  12
HETATM   12  C16 UNL     1      13.333 -10.978  20.540  1.00  0.00     0.136 C 
BRANCH  12  13
HETATM   13  C17 UNL     1      12.869 -10.763  21.946  1.00  0.00     0.250 C 
BRANCH  13  14
HETATM   14  N4  UNL     1      11.791  -9.806  22.074  1.00  0.00    -0.063 N 
HETATM   15  C18 UNL     1      10.669 -10.478  22.656  1.00  0.00     0.239 C 
HETATM   16  C19 UNL     1       9.331  -9.975  22.207  1.00  0.00     0.056 C 
HETATM   17  C20 UNL     1       9.145  -8.538  22.670  1.00  0.00     0.238 C 
HETATM   18  N5  UNL     1      10.211  -7.687  22.170  1.00  0.00    -0.068 N 
HETATM   19  C21 UNL     1       9.659  -6.325  22.088  1.00  0.00     0.272 C 
HETATM   20  C22 UNL     1      10.569  -8.068  20.840  1.00  0.00     0.265 C 
HETATM   21  C24 UNL     1      11.295  -7.635  23.101  1.00  0.00     0.265 C 
HETATM   22  C23 UNL     1      11.539  -9.230  20.784  1.00  0.00     0.265 C 
HETATM   23  C25 UNL     1      12.234  -8.796  23.034  1.00  0.00     0.265 C 
ENDBRANCH  13  14
ENDBRANCH  12  13
ENDBRANCH  10  12
ENDBRANCH   9  10
ENDBRANCH   8   9
ENDBRANCH   7   8
BRANCH   5  24
HETATM   24  C6  UNL     1      13.475  -4.719  22.754  1.00  0.00    -0.061 C 
HETATM   25  C7  UNL     1      13.148  -4.406  23.874  1.00  0.00    -0.054 C 
BRANCH  25  26
HETATM   26  C8  UNL     1      12.779  -4.017  25.207  1.00  0.00     0.102 A 
HETATM   27  C9  UNL     1      13.696  -3.502  26.111  1.00  0.00     0.132 A 
HETATM   28  N1  UNL     1      13.326  -3.146  27.353  1.00  0.00    -0.201 N 
HETATM   29  C10 UNL     1      12.057  -3.273  27.776  1.00  0.00     0.678 A 
ATOM     30  H1  UNL     1      14.028  -2.770  27.991  1.00  0.00     0.183 HD
HETATM   31  N3  UNL     1      11.131  -3.773  26.920  1.00  0.00    -0.155 N 
HETATM   32  C11 UNL     1      11.486  -4.132  25.676  1.00  0.00     0.279 A 
ATOM     33  H3  UNL     1      10.162  -3.876  27.222  1.00  0.00     0.187 HD
HETATM   34  O1  UNL     1      10.622  -4.604  24.862  1.00  0.00    -0.266 OA
BRANCH  29  35
HETATM   35  N2  UNL     1      11.711  -2.924  28.987  1.00  0.00    -0.234 N 
ATOM     36  H22 UNL     1      11.012  -2.195  29.130  1.00  0.00     0.174 HD
ATOM     37  H21 UNL     1      12.128  -3.371  29.804  1.00  0.00     0.174 HD
ENDBRANCH  29  35
ENDBRANCH  25  26
ENDBRANCH   5  24
TORSDOF 9
ENDMDL
MODEL 5
REMARK VINA RESULT: -7.268142950      0.814      1.616
REMARK  9 active torsions:
REMARK  status: ('A' for Active; 'I' for Inactive)
REMARK    1  A    between atoms: C5_5  and  C6_6 
REMARK    2  A    between atoms: C7_7  and  C8_8 
REMARK    3  A    between atoms: C10_12  and  N2_13 
REMARK    4  A    between atoms: C13_21  and  C14_22 
REMARK    5  A    between atoms: C14_22  and  C15_23 
REMARK    6  A    between atoms: C15_23  and  S1_24 
REMARK    7  A    between atoms: S1_24  and  C16_26 
REMARK    8  A    between atoms: C16_26  and  C17_27 
REMARK    9  A    between atoms: C17_27  and  N4_28 
ROOT
HETATM    1  C1  UNL     1      15.145  -6.342  17.241  1.00  0.00     0.049 C 
HETATM    2  C2  UNL     1      14.708  -5.952  18.619  1.00  0.00    -0.056 A 
HETATM    3  C3  UNL     1      14.544  -4.630  18.971  1.00  0.00     0.009 A 
HETATM    4  C4  UNL     1      14.141  -4.258  20.237  1.00  0.00     0.021 A 
HETATM    5  C5  UNL     1      13.880  -5.198  21.221  1.00  0.00     0.018 A 
HETATM    6  C12 UNL     1      14.048  -6.518  20.856  1.00  0.00     0.028 A 
HETATM    7  C13 UNL     1      14.450  -6.895  19.592  1.00  0.00    -0.050 A 
ENDROOT
BRANCH   7   8
HETATM    8  C14 UNL     1      14.596  -8.327  19.314  1.00  0.00     0.051 C 
BRANCH   8   9
HETATM    9  C15 UNL     1      15.493  -9.039  20.289  1.00  0.00     0.113 C 
BRANCH   9  10
HETATM   10  S1  UNL     1      15.316 -10.791  20.232  1.00  0.00     0.016 S 
HETATM   11  O2  UNL     1      15.834 -11.445  18.793  1.00  0.00    -0.258 OA
BRANCH  10  12
HETATM   12  C16 UNL     1      13.581 -11.153  20.494  1.00  0.00     0.136 C 
BRANCH  12  13
HETATM   13  C17 UNL     1      13.387 -11.307  21.969  1.00  0.00     0.250 C 
BRANCH  13  14
HETATM   14  N4  UNL     1      12.176 -10.696  22.475  1.00  0.00    -0.063 N 
HETATM   15  C18 UNL     1      12.088  -9.375  21.929  1.00  0.00     0.239 C 
HETATM   16  C19 UNL     1      11.428  -8.367  22.821  1.00  0.00     0.056 C 
HETATM   17  C20 UNL     1       9.970  -8.748  23.028  1.00  0.00     0.238 C 
HETATM   18  N5  UNL     1       9.855 -10.086  23.585  1.00  0.00    -0.068 N 
HETATM   19  C21 UNL     1       8.584 -10.125  24.327  1.00  0.00     0.272 C 
HETATM   20  C22 UNL     1      10.896 -10.319  24.537  1.00  0.00     0.265 C 
HETATM   21  C24 UNL     1       9.752 -11.060  22.544  1.00  0.00     0.265 C 
HETATM   22  C23 UNL     1      12.204 -10.748  23.908  1.00  0.00     0.265 C 
HETATM   23  C25 UNL     1      11.056 -11.462  21.932  1.00  0.00     0.265 C 
ENDBRANCH  13  14
ENDBRANCH  12  13
ENDBRANCH  10  12
ENDBRANCH   9  10
ENDBRANCH   8   9
ENDBRANCH   7   8
BRANCH   5  24
HETATM   24  C6  UNL     1      13.461  -4.814  22.543  1.00  0.00    -0.061 C 
HETATM   25  C7  UNL     1      13.128  -4.481  23.655  1.00  0.00    -0.054 C 
BRANCH  25  26
HETATM   26  C8  UNL     1      12.755  -4.072  24.981  1.00  0.00     0.102 A 
HETATM   27  C9  UNL     1      11.473  -4.254  25.481  1.00  0.00     0.132 A 
HETATM   28  N1  UNL     1      11.148  -3.861  26.724  1.00  0.00    -0.201 N 
HETATM   29  C10 UNL     1      12.043  -3.276  27.538  1.00  0.00     0.678 A 
ATOM     30  H1  UNL     1      10.196  -4.011  27.059  1.00  0.00     0.183 HD
HETATM   31  N3  UNL     1      13.307  -3.081  27.084  1.00  0.00    -0.155 N 
HETATM   32  C11 UNL     1      13.646  -3.468  25.844  1.00  0.00     0.279 A 
ATOM     33  H3  UNL     1      14.002  -2.639  27.686  1.00  0.00     0.187 HD
HETATM   34  O1  UNL     1      14.833  -3.290  25.407  1.00  0.00    -0.266 OA
BRANCH  29  35
HETATM   35  N2  UNL     1      11.714  -2.898  28.744  1.00  0.00    -0.234 N 
ATOM     36  H22 UNL     1      10.747  -2.653  28.958  1.00  0.00     0.174 HD
ATOM     37  H21 UNL     1      12.410  -2.841  29.488  1.00  0.00     0.174 HD
ENDBRANCH  29  35
ENDBRANCH  25  26
ENDBRANCH   5  24
TORSDOF 9
ENDMDL
