MODEL 1
REMARK VINA RESULT: -7.429480874      0.000      0.000
REMARK  10 active torsions:
REMARK  status: ('A' for Active; 'I' for Inactive)
REMARK    1  A    between atoms: C2_2  and  C3_3 
REMARK    2  A    between atoms: C3_3  and  C4_4 
REMARK    3  A    between atoms: C5_5  and  C6_6 
REMARK    4  A    between atoms: C7_9  and  C8_10 
REMARK    5  A    between atoms: C9_11  and  C10_12 
REMARK    6  A    between atoms: C11_13  and  C12_14 
REMARK    7  A    between atoms: C12_14  and  N1_15 
REMARK    8  A    between atoms: N1_15  and  C13_16 
REMARK    9  A    between atoms: C13_16  and  C14_17 
REMARK   10  A    between atoms: C20_28  and  C21_29 
ROOT
HETATM    1  C4  UNL     1      12.699  -6.796  23.534  1.00  0.00     0.036 C 
HETATM    2  C5  UNL     1      11.436  -5.864  23.537  1.00  0.00     0.029 C 
HETATM    3  C7  UNL     1      10.567  -6.340  22.690  1.00  0.00    -0.043 C 
HETATM    4  C19 UNL     1      11.064  -7.581  22.087  1.00  0.00     0.051 C 
HETATM    5  C20 UNL     1      12.104  -8.045  23.220  1.00  0.00     0.049 C 
ENDROOT
BRANCH   3   6
HETATM    6  C8  UNL     1       9.273  -5.753  22.408  1.00  0.00     0.017 C 
HETATM    7  C9  UNL     1       8.147  -5.902  23.071  1.00  0.00     0.065 C 
BRANCH   7   8
HETATM    8  C10 UNL     1       6.986  -5.179  22.535  1.00  0.00    -0.077 C 
HETATM    9  C11 UNL     1       6.026  -4.545  22.168  1.00  0.00    -0.073 C 
BRANCH   9  10
HETATM   10  C12 UNL     1       4.886  -3.770  21.811  1.00  0.00     0.337 C 
BRANCH  10  11
HETATM   11  N1  UNL     1       4.191  -3.083  22.853  1.00  0.00    -0.029 N 
HETATM   12  C15 UNL     1       4.924  -2.216  23.687  1.00  0.00     0.271 C 
HETATM   13  C16 UNL     1       5.097  -0.795  23.295  1.00  0.00     0.260 C 
HETATM   14  N3  UNL     1       3.872  -0.225  22.802  1.00  0.00    -0.072 N 
HETATM   15  C17 UNL     1       3.539  -1.042  21.616  1.00  0.00     0.260 C 
ATOM     16  H32 UNL     1       3.126  -0.174  23.496  1.00  0.00     0.277 HD
ATOM     17  H31 UNL     1       3.923   0.776  22.616  1.00  0.00     0.277 HD
HETATM   18  C18 UNL     1       3.085  -2.361  22.135  1.00  0.00     0.271 C 
BRANCH  11  19
HETATM   19  C13 UNL     1       3.448  -4.095  23.587  1.00  0.00     0.274 C 
BRANCH  19  20
HETATM   20  C14 UNL     1       2.707  -3.698  24.764  1.00  0.00     0.278 C 
HETATM   21  N2  UNL     1       1.259  -3.759  24.752  1.00  0.00    -0.057 NA
HETATM   22  O3  UNL     1       3.180  -3.285  25.848  1.00  0.00    -0.270 OA
ENDBRANCH  19  20
ENDBRANCH  11  19
ENDBRANCH  10  11
ENDBRANCH   9  10
ENDBRANCH   7   8
ENDBRANCH   3   6
BRANCH   2  23
HETATM   23  C6  UNL     1      11.399  -4.688  24.352  1.00  0.00     0.206 C 
HETATM   24  O1  UNL     1      11.293  -4.734  25.618  1.00  0.00    -0.644 OA
HETATM   25  O2  UNL     1      11.483  -3.403  23.833  1.00  0.00    -0.644 OA
ENDBRANCH   2  23
BRANCH   1  26
HETATM   26  C3  UNL     1      13.680  -5.976  22.835  1.00  0.00     0.010 C 
BRANCH  26  27
HETATM   27  C2  UNL     1      13.877  -6.011  21.372  1.00  0.00    -0.004 C 
HETATM   28  C1  UNL     1      13.725  -4.618  20.751  1.00  0.00     0.005 C 
ENDBRANCH  26  27
ENDBRANCH   1  26
BRANCH   5  29
HETATM   29  C21 UNL     1      12.762  -9.200  22.618  1.00  0.00     0.021 A 
HETATM   30  N4  UNL     1      13.483  -9.380  21.523  1.00  0.00    -0.362 N 
HETATM   31  C22 UNL     1      13.795 -10.669  21.288  1.00  0.00     0.012 A 
ATOM     32  H4  UNL     1      13.774  -8.615  20.914  1.00  0.00     0.165 HD
HETATM   33  C23 UNL     1      14.601 -11.182  20.129  1.00  0.00     0.068 C 
HETATM   34  C24 UNL     1      13.235 -11.388  22.309  1.00  0.00    -0.032 A 
HETATM   35  C25 UNL     1      13.320 -12.875  22.520  1.00  0.00     0.050 C 
HETATM   36  C26 UNL     1      12.590 -10.502  23.138  1.00  0.00    -0.031 A 
HETATM   37  C27 UNL     1      11.863 -10.848  24.387  1.00  0.00     0.051 C 
ENDBRANCH   5  29
TORSDOF 10
ENDMDL
MODEL 2
REMARK VINA RESULT: -7.388427009      1.231      2.186
REMARK  10 active torsions:
REMARK  status: ('A' for Active; 'I' for Inactive)
REMARK    1  A    between atoms: C2_2  and  C3_3 
REMARK    2  A    between atoms: C3_3  and  C4_4 
REMARK    3  A    between atoms: C5_5  and  C6_6 
REMARK    4  A    between atoms: C7_9  and  C8_10 
REMARK    5  A    between atoms: C9_11  and  C10_12 
REMARK    6  A    between atoms: C11_13  and  C12_14 
REMARK    7  A    between atoms: C12_14  and  N1_15 
REMARK    8  A    between atoms: N1_15  and  C13_16 
REMARK    9  A    between atoms: C13_16  and  C14_17 
REMARK   10  A    between atoms: C20_28  and  C21_29 
ROOT
HETATM    1  C4  UNL     1      12.666  -6.351  23.628  1.00  0.00     0.036 C 
HETATM    2  C5  UNL     1      11.309  -5.582  23.809  1.00  0.00     0.029 C 
HETATM    3  C7  UNL     1      10.407  -6.148  23.056  1.00  0.00    -0.043 C 
HETATM    4  C19 UNL     1      10.974  -7.308  22.360  1.00  0.00     0.051 C 
HETATM    5  C20 UNL     1      12.192  -7.659  23.348  1.00  0.00     0.049 C 
ENDROOT
BRANCH   3   6
HETATM    6  C8  UNL     1       9.028  -5.721  22.947  1.00  0.00     0.017 C 
HETATM    7  C9  UNL     1       8.180  -5.941  21.966  1.00  0.00     0.065 C 
BRANCH   7   8
HETATM    8  C10 UNL     1       6.837  -5.371  22.139  1.00  0.00    -0.077 C 
HETATM    9  C11 UNL     1       5.705  -4.958  22.226  1.00  0.00    -0.073 C 
BRANCH   9  10
HETATM   10  C12 UNL     1       4.350  -4.523  22.268  1.00  0.00     0.337 C 
BRANCH  10  11
HETATM   11  N1  UNL     1       4.094  -3.165  22.627  1.00  0.00    -0.029 N 
HETATM   12  C15 UNL     1       3.374  -2.358  21.726  1.00  0.00     0.271 C 
HETATM   13  C16 UNL     1       1.891  -2.326  21.794  1.00  0.00     0.260 C 
HETATM   14  N3  UNL     1       1.423  -2.237  23.151  1.00  0.00    -0.072 N 
HETATM   15  C17 UNL     1       1.935  -3.464  23.796  1.00  0.00     0.260 C 
ATOM     16  H32 UNL     1       1.685  -1.375  23.627  1.00  0.00     0.277 HD
ATOM     17  H31 UNL     1       0.414  -2.112  23.237  1.00  0.00     0.277 HD
HETATM   18  C18 UNL     1       3.401  -3.267  23.958  1.00  0.00     0.271 C 
BRANCH  11  19
HETATM   19  C13 UNL     1       5.376  -2.594  23.012  1.00  0.00     0.274 C 
BRANCH  19  20
HETATM   20  C14 UNL     1       5.662  -1.221  22.655  1.00  0.00     0.278 C 
HETATM   21  N2  UNL     1       6.564  -0.941  21.557  1.00  0.00    -0.057 NA
HETATM   22  O3  UNL     1       5.208  -0.191  23.204  1.00  0.00    -0.270 OA
ENDBRANCH  19  20
ENDBRANCH  11  19
ENDBRANCH  10  11
ENDBRANCH   9  10
ENDBRANCH   7   8
ENDBRANCH   3   6
BRANCH   2  23
HETATM   23  C6  UNL     1      11.229  -4.434  24.658  1.00  0.00     0.206 C 
HETATM   24  O1  UNL     1      11.122  -3.252  24.205  1.00  0.00    -0.644 OA
HETATM   25  O2  UNL     1      11.251  -4.513  26.045  1.00  0.00    -0.644 OA
ENDBRANCH   2  23
BRANCH   1  26
HETATM   26  C3  UNL     1      13.449  -5.405  22.844  1.00  0.00     0.010 C 
BRANCH  26  27
HETATM   27  C2  UNL     1      13.113  -5.019  21.459  1.00  0.00    -0.004 C 
HETATM   28  C1  UNL     1      14.251  -5.357  20.489  1.00  0.00     0.005 C 
ENDBRANCH  26  27
ENDBRANCH   1  26
BRANCH   5  29
HETATM   29  C21 UNL     1      12.907  -8.713  22.636  1.00  0.00     0.021 A 
HETATM   30  N4  UNL     1      13.726  -8.729  21.597  1.00  0.00    -0.362 N 
HETATM   31  C22 UNL     1      14.063  -9.969  21.194  1.00  0.00     0.012 A 
ATOM     32  H4  UNL     1      14.069  -7.882  21.143  1.00  0.00     0.165 HD
HETATM   33  C23 UNL     1      14.974 -10.305  20.048  1.00  0.00     0.068 C 
HETATM   34  C24 UNL     1      13.415 -10.831  22.036  1.00  0.00    -0.032 A 
HETATM   35  C25 UNL     1      13.486 -12.334  22.021  1.00  0.00     0.050 C 
HETATM   36  C26 UNL     1      12.694 -10.078  22.930  1.00  0.00    -0.031 A 
HETATM   37  C27 UNL     1      11.856 -10.606  24.039  1.00  0.00     0.051 C 
ENDBRANCH   5  29
TORSDOF 10
ENDMDL
MODEL 3
REMARK VINA RESULT: -7.366324455      1.774      2.561
REMARK  10 active torsions:
REMARK  status: ('A' for Active; 'I' for Inactive)
REMARK    1  A    between atoms: C2_2  and  C3_3 
REMARK    2  A    between atoms: C3_3  and  C4_4 
REMARK    3  A    between atoms: C5_5  and  C6_6 
REMARK    4  A    between atoms: C7_9  and  C8_10 
REMARK    5  A    between atoms: C9_11  and  C10_12 
REMARK    6  A    between atoms: C11_13  and  C12_14 
REMARK    7  A    between atoms: C12_14  and  N1_15 
REMARK    8  A    between atoms: N1_15  and  C13_16 
REMARK    9  A    between atoms: C13_16  and  C14_17 
REMARK   10  A    between atoms: C20_28  and  C21_29 
ROOT
HETATM    1  C4  UNL     1      12.720  -6.721  23.545  1.00  0.00     0.036 C 
HETATM    2  C5  UNL     1      11.475  -5.764  23.569  1.00  0.00     0.029 C 
HETATM    3  C7  UNL     1      10.603  -6.196  22.701  1.00  0.00    -0.043 C 
HETATM    4  C19 UNL     1      11.081  -7.428  22.062  1.00  0.00     0.051 C 
HETATM    5  C20 UNL     1      12.104  -7.947  23.188  1.00  0.00     0.049 C 
ENDROOT
BRANCH   3   6
HETATM    6  C8  UNL     1       9.323  -5.577  22.429  1.00  0.00     0.017 C 
HETATM    7  C9  UNL     1       8.138  -5.917  22.884  1.00  0.00     0.065 C 
BRANCH   7   8
HETATM    8  C10 UNL     1       7.011  -5.094  22.422  1.00  0.00    -0.077 C 
HETATM    9  C11 UNL     1       6.042  -4.446  22.107  1.00  0.00    -0.073 C 
BRANCH   9  10
HETATM   10  C12 UNL     1       4.858  -3.719  21.796  1.00  0.00     0.337 C 
BRANCH  10  11
HETATM   11  N1  UNL     1       4.996  -2.356  21.392  1.00  0.00    -0.029 N 
HETATM   12  C15 UNL     1       3.828  -1.612  21.139  1.00  0.00     0.271 C 
HETATM   13  C16 UNL     1       3.165  -0.887  22.252  1.00  0.00     0.260 C 
HETATM   14  N3  UNL     1       4.118  -0.203  23.084  1.00  0.00    -0.072 N 
HETATM   15  C17 UNL     1       4.977  -1.280  23.619  1.00  0.00     0.260 C 
ATOM     16  H32 UNL     1       4.629   0.541  22.609  1.00  0.00     0.277 HD
ATOM     17  H31 UNL     1       3.697   0.389  23.801  1.00  0.00     0.277 HD
HETATM   18  C18 UNL     1       5.824  -1.738  22.484  1.00  0.00     0.271 C 
BRANCH  11  19
HETATM   19  C13 UNL     1       5.933  -2.351  20.280  1.00  0.00     0.274 C 
BRANCH  19  20
HETATM   20  C14 UNL     1       6.289  -1.086  19.675  1.00  0.00     0.278 C 
HETATM   21  N2  UNL     1       5.636  -0.670  18.450  1.00  0.00    -0.057 NA
HETATM   22  O3  UNL     1       7.134  -0.262  20.095  1.00  0.00    -0.270 OA
ENDBRANCH  19  20
ENDBRANCH  11  19
ENDBRANCH  10  11
ENDBRANCH   9  10
ENDBRANCH   7   8
ENDBRANCH   3   6
BRANCH   2  23
HETATM   23  C6  UNL     1      11.454  -4.614  24.419  1.00  0.00     0.206 C 
HETATM   24  O1  UNL     1      11.410  -4.700  25.687  1.00  0.00    -0.644 OA
HETATM   25  O2  UNL     1      11.489  -3.312  23.936  1.00  0.00    -0.644 OA
ENDBRANCH   2  23
BRANCH   1  26
HETATM   26  C3  UNL     1      13.722  -5.898  22.879  1.00  0.00     0.010 C 
BRANCH  26  27
HETATM   27  C2  UNL     1      14.077  -6.041  21.453  1.00  0.00    -0.004 C 
HETATM   28  C1  UNL     1      13.722  -4.781  20.655  1.00  0.00     0.005 C 
ENDBRANCH  26  27
ENDBRANCH   1  26
BRANCH   5  29
HETATM   29  C21 UNL     1      12.744  -9.095  22.554  1.00  0.00     0.021 A 
HETATM   30  N4  UNL     1      13.455  -9.257  21.450  1.00  0.00    -0.362 N 
HETATM   31  C22 UNL     1      13.750 -10.544  21.183  1.00  0.00     0.012 A 
ATOM     32  H4  UNL     1      13.751  -8.482  20.857  1.00  0.00     0.165 HD
HETATM   33  C23 UNL     1      14.543 -11.040  20.007  1.00  0.00     0.068 C 
HETATM   34  C24 UNL     1      13.189 -11.280  22.191  1.00  0.00    -0.032 A 
HETATM   35  C25 UNL     1      13.257 -12.773  22.366  1.00  0.00     0.050 C 
HETATM   36  C26 UNL     1      12.560 -10.406  23.045  1.00  0.00    -0.031 A 
HETATM   37  C27 UNL     1      11.837 -10.774  24.290  1.00  0.00     0.051 C 
ENDBRANCH   5  29
TORSDOF 10
ENDMDL
MODEL 4
REMARK VINA RESULT: -7.075837813      1.003      1.104
REMARK  10 active torsions:
REMARK  status: ('A' for Active; 'I' for Inactive)
REMARK    1  A    between atoms: C2_2  and  C3_3 
REMARK    2  A    between atoms: C3_3  and  C4_4 
REMARK    3  A    between atoms: C5_5  and  C6_6 
REMARK    4  A    between atoms: C7_9  and  C8_10 
REMARK    5  A    between atoms: C9_11  and  C10_12 
REMARK    6  A    between atoms: C11_13  and  C12_14 
REMARK    7  A    between atoms: C12_14  and  N1_15 
REMARK    8  A    between atoms: N1_15  and  C13_16 
REMARK    9  A    between atoms: C13_16  and  C14_17 
REMARK   10  A    between atoms: C20_28  and  C21_29 
ROOT
HETATM    1  C4  UNL     1      12.596  -7.224  23.578  1.00  0.00     0.036 C 
HETATM    2  C5  UNL     1      11.489  -6.110  23.571  1.00  0.00     0.029 C 
HETATM    3  C7  UNL     1      10.458  -6.553  22.908  1.00  0.00    -0.043 C 
HETATM    4  C19 UNL     1      10.690  -7.930  22.457  1.00  0.00     0.051 C 
HETATM    5  C20 UNL     1      11.794  -8.392  23.530  1.00  0.00     0.049 C 
ENDROOT
BRANCH   3   6
HETATM    6  C8  UNL     1       9.235  -5.812  22.680  1.00  0.00     0.017 C 
HETATM    7  C9  UNL     1       7.997  -6.186  22.918  1.00  0.00     0.065 C 
BRANCH   7   8
HETATM    8  C10 UNL     1       6.954  -5.211  22.572  1.00  0.00    -0.077 C 
HETATM    9  C11 UNL     1       6.074  -4.459  22.226  1.00  0.00    -0.073 C 
BRANCH   9  10
HETATM   10  C12 UNL     1       5.024  -3.622  21.752  1.00  0.00     0.337 C 
BRANCH  10  11
HETATM   11  N1  UNL     1       4.184  -2.991  22.719  1.00  0.00    -0.029 N 
HETATM   12  C15 UNL     1       4.789  -2.218  23.729  1.00  0.00     0.271 C 
HETATM   13  C16 UNL     1       5.059  -0.779  23.488  1.00  0.00     0.260 C 
HETATM   14  N3  UNL     1       3.947  -0.128  22.850  1.00  0.00    -0.072 N 
HETATM   15  C17 UNL     1       3.796  -0.839  21.563  1.00  0.00     0.260 C 
ATOM     16  H32 UNL     1       3.098  -0.102  23.414  1.00  0.00     0.277 HD
ATOM     17  H31 UNL     1       4.052   0.883  22.757  1.00  0.00     0.277 HD
HETATM   18  C18 UNL     1       3.229  -2.176  21.891  1.00  0.00     0.271 C 
BRANCH  11  19
HETATM   19  C13 UNL     1       3.305  -4.028  23.237  1.00  0.00     0.274 C 
BRANCH  19  20
HETATM   20  C14 UNL     1       2.269  -3.657  24.176  1.00  0.00     0.278 C 
HETATM   21  N2  UNL     1       2.509  -3.796  25.598  1.00  0.00    -0.057 NA
HETATM   22  O3  UNL     1       1.130  -3.212  23.904  1.00  0.00    -0.270 OA
ENDBRANCH  19  20
ENDBRANCH  11  19
ENDBRANCH  10  11
ENDBRANCH   9  10
ENDBRANCH   7   8
ENDBRANCH   3   6
BRANCH   2  23
HETATM   23  C6  UNL     1      11.726  -4.842  24.190  1.00  0.00     0.206 C 
HETATM   24  O1  UNL     1      11.859  -4.706  25.447  1.00  0.00    -0.644 OA
HETATM   25  O2  UNL     1      11.841  -3.657  23.473  1.00  0.00    -0.644 OA
ENDBRANCH   2  23
BRANCH   1  26
HETATM   26  C3  UNL     1      13.584  -6.676  22.656  1.00  0.00     0.010 C 
BRANCH  26  27
HETATM   27  C2  UNL     1      14.835  -7.372  22.296  1.00  0.00    -0.004 C 
HETATM   28  C1  UNL     1      14.914  -7.644  20.789  1.00  0.00     0.005 C 
ENDBRANCH  26  27
ENDBRANCH   1  26
BRANCH   5  29
HETATM   29  C21 UNL     1      12.196  -9.709  23.049  1.00  0.00     0.021 A 
HETATM   30  N4  UNL     1      12.909 -10.133  22.018  1.00  0.00    -0.362 N 
HETATM   31  C22 UNL     1      12.926 -11.474  21.889  1.00  0.00     0.012 A 
ATOM     32  H4  UNL     1      13.398  -9.504  21.381  1.00  0.00     0.165 HD
HETATM   33  C23 UNL     1      13.648 -12.246  20.822  1.00  0.00     0.068 C 
HETATM   34  C24 UNL     1      12.167 -11.965  22.916  1.00  0.00    -0.032 A 
HETATM   35  C25 UNL     1      11.896 -13.412  23.228  1.00  0.00     0.050 C 
HETATM   36  C26 UNL     1      11.704 -10.894  23.641  1.00  0.00    -0.031 A 
HETATM   37  C27 UNL     1      10.856 -10.967  24.860  1.00  0.00     0.051 C 
ENDBRANCH   5  29
TORSDOF 10
ENDMDL
MODEL 5
REMARK VINA RESULT: -7.034070103      1.615      2.549
REMARK  10 active torsions:
REMARK  status: ('A' for Active; 'I' for Inactive)
REMARK    1  A    between atoms: C2_2  and  C3_3 
REMARK    2  A    between atoms: C3_3  and  C4_4 
REMARK    3  A    between atoms: C5_5  and  C6_6 
REMARK    4  A    between atoms: C7_9  and  C8_10 
REMARK    5  A    between atoms: C9_11  and  C10_12 
REMARK    6  A    between atoms: C11_13  and  C12_14 
REMARK    7  A    between atoms: C12_14  and  N1_15 
REMARK    8  A    between atoms: N1_15  and  C13_16 
REMARK    9  A    between atoms: C13_16  and  C14_17 
REMARK   10  A    between atoms: C20_28  and  C21_29 
ROOT
HETATM    1  C4  UNL     1      12.868  -6.913  23.363  1.00  0.00     0.036 C 
HETATM    2  C5  UNL     1      11.610  -5.975  23.371  1.00  0.00     0.029 C 
HETATM    3  C7  UNL     1      10.721  -6.465  22.552  1.00  0.00    -0.043 C 
HETATM    4  C19 UNL     1      11.200  -7.722  21.967  1.00  0.00     0.051 C 
HETATM    5  C20 UNL     1      12.261  -8.166  23.089  1.00  0.00     0.049 C 
ENDROOT
BRANCH   3   6
HETATM    6  C8  UNL     1       9.424  -5.879  22.284  1.00  0.00     0.017 C 
HETATM    7  C9  UNL     1       8.363  -5.855  23.059  1.00  0.00     0.065 C 
BRANCH   7   8
HETATM    8  C10 UNL     1       7.178  -5.185  22.505  1.00  0.00    -0.077 C 
HETATM    9  C11 UNL     1       6.180  -4.709  22.019  1.00  0.00    -0.073 C 
BRANCH   9  10
HETATM   10  C12 UNL     1       4.989  -4.219  21.411  1.00  0.00     0.337 C 
BRANCH  10  11
HETATM   11  N1  UNL     1       4.600  -2.874  21.689  1.00  0.00    -0.029 N 
HETATM   12  C15 UNL     1       3.395  -2.399  21.137  1.00  0.00     0.271 C 
HETATM   13  C16 UNL     1       2.123  -2.588  21.879  1.00  0.00     0.260 C 
HETATM   14  N3  UNL     1       2.274  -2.294  23.279  1.00  0.00    -0.072 N 
HETATM   15  C17 UNL     1       3.286  -3.261  23.750  1.00  0.00     0.260 C 
ATOM     16  H32 UNL     1       2.503  -1.320  23.477  1.00  0.00     0.277 HD
ATOM     17  H31 UNL     1       1.401  -2.314  23.806  1.00  0.00     0.277 HD
HETATM   18  C18 UNL     1       4.589  -2.805  23.191  1.00  0.00     0.271 C 
BRANCH  11  19
HETATM   19  C13 UNL     1       5.747  -2.040  21.370  1.00  0.00     0.274 C 
BRANCH  19  20
HETATM   20  C14 UNL     1       5.820  -1.427  20.062  1.00  0.00     0.278 C 
HETATM   21  N2  UNL     1       5.546  -0.012  19.918  1.00  0.00    -0.057 NA
HETATM   22  O3  UNL     1       6.102  -1.993  18.980  1.00  0.00    -0.270 OA
ENDBRANCH  19  20
ENDBRANCH  11  19
ENDBRANCH  10  11
ENDBRANCH   9  10
ENDBRANCH   7   8
ENDBRANCH   3   6
BRANCH   2  23
HETATM   23  C6  UNL     1      11.594  -4.781  24.159  1.00  0.00     0.206 C 
HETATM   24  O1  UNL     1      11.645  -3.620  23.646  1.00  0.00    -0.644 OA
HETATM   25  O2  UNL     1      11.513  -4.789  25.546  1.00  0.00    -0.644 OA
ENDBRANCH   2  23
BRANCH   1  26
HETATM   26  C3  UNL     1      13.839  -6.114  22.626  1.00  0.00     0.010 C 
BRANCH  26  27
HETATM   27  C2  UNL     1      13.877  -6.034  21.152  1.00  0.00    -0.004 C 
HETATM   28  C1  UNL     1      13.833  -4.581  20.666  1.00  0.00     0.005 C 
ENDBRANCH  26  27
ENDBRANCH   1  26
BRANCH   5  29
HETATM   29  C21 UNL     1      12.902  -9.337  22.499  1.00  0.00     0.021 A 
HETATM   30  N4  UNL     1      13.642  -9.534  21.421  1.00  0.00    -0.362 N 
HETATM   31  C22 UNL     1      13.925 -10.831  21.190  1.00  0.00     0.012 A 
ATOM     32  H4  UNL     1      13.968  -8.776  20.820  1.00  0.00     0.165 HD
HETATM   33  C23 UNL     1      14.743 -11.364  20.049  1.00  0.00     0.068 C 
HETATM   34  C24 UNL     1      13.323 -11.536  22.197  1.00  0.00    -0.032 A 
HETATM   35  C25 UNL     1      13.363 -13.025  22.406  1.00  0.00     0.050 C 
HETATM   36  C26 UNL     1      12.683 -10.634  23.013  1.00  0.00    -0.031 A 
HETATM   37  C27 UNL     1      11.918 -10.963  24.244  1.00  0.00     0.051 C 
ENDBRANCH   5  29
TORSDOF 10
ENDMDL
