MODEL 1
REMARK VINA RESULT: -6.796229104      0.000      0.000
REMARK  10 active torsions:
REMARK  status: ('A' for Active; 'I' for Inactive)
REMARK    1  A    between atoms: N1_2  and  C2_5 
REMARK    2  A    between atoms: C2_5  and  C3_6 
REMARK    3  A    between atoms: C3_6  and  N2_8 
REMARK    4  A    between atoms: N2_8  and  C5_10 
REMARK    5  A    between atoms: C5_10  and  O1_11 
REMARK    6  A    between atoms: C5_10  and  C6_13 
REMARK    7  A    between atoms: C6_13  and  N3_14 
REMARK    8  A    between atoms: C6_13  and  C17_31 
REMARK    9  A    between atoms: N3_14  and  S1_16 
REMARK   10  A    between atoms: S1_16  and  N4_19 
ROOT
HETATM    1  C6  UNL     1      13.040  -6.151  21.700  1.00  0.00     0.176 C 
ENDROOT
BRANCH   1   2
HETATM    2  C5  UNL     1      13.592  -5.103  22.574  1.00  0.00     0.136 C 
BRANCH   2   3
HETATM    3  N2  UNL     1      12.983  -4.028  23.209  1.00  0.00    -0.367 N 
ATOM      4  H2  UNL     1      12.672  -3.240  22.642  1.00  0.00     0.161 HD
BRANCH   3   5
HETATM    5  C3  UNL     1      12.768  -3.978  24.660  1.00  0.00     0.104 C 
HETATM    6  C4  UNL     1      13.786  -3.056  25.307  1.00  0.00     0.034 C 
BRANCH   5   7
HETATM    7  C2  UNL     1      11.347  -3.567  24.958  1.00  0.00     0.256 C 
BRANCH   7   8
HETATM    8  N1  UNL     1      10.885  -4.365  26.074  1.00  0.00    -0.077 N 
HETATM    9  C1  UNL     1      11.071  -3.665  27.336  1.00  0.00     0.267 C 
ATOM     10  H12 UNL     1      11.328  -5.284  26.086  1.00  0.00     0.276 HD
ATOM     11  H11 UNL     1       9.918  -4.661  25.948  1.00  0.00     0.276 HD
ENDBRANCH   7   8
ENDBRANCH   5   7
ENDBRANCH   3   5
ENDBRANCH   2   3
BRANCH   2  12
HETATM   12  O1  UNL     1      14.874  -5.192  22.789  1.00  0.00    -0.348 OA
ATOM     13  H1  UNL     1      15.401  -5.206  21.998  1.00  0.00     0.219 HD
ENDBRANCH   2  12
ENDBRANCH   1   2
BRANCH   1  14
HETATM   14  N3  UNL     1      12.840  -5.487  20.409  1.00  0.00    -0.289 N 
ATOM     15  H3  UNL     1      12.155  -4.741  20.281  1.00  0.00     0.174 HD
BRANCH  14  16
HETATM   16  S1  UNL     1      13.815  -6.037  19.146  1.00  0.00     0.321 S 
HETATM   17  O2  UNL     1      13.020  -6.786  18.112  1.00  0.00    -0.182 OA
HETATM   18  O3  UNL     1      14.822  -7.046  19.697  1.00  0.00    -0.182 OA
BRANCH  16  19
HETATM   19  N4  UNL     1      14.656  -4.728  18.430  1.00  0.00    -0.271 N 
HETATM   20  C7  UNL     1      14.366  -4.577  17.046  1.00  0.00     0.170 C 
HETATM   21  C8  UNL     1      13.451  -3.413  16.885  1.00  0.00     0.259 C 
HETATM   22  N5  UNL     1      14.018  -2.157  17.335  1.00  0.00    -0.053 N 
HETATM   23  C9  UNL     1      12.858  -1.260  17.486  1.00  0.00     0.239 C 
HETATM   24  C12 UNL     1      14.821  -1.551  16.304  1.00  0.00     0.123 C 
HETATM   25  C15 UNL     1      14.672  -2.246  18.591  1.00  0.00     0.283 C 
HETATM   26  C10 UNL     1      13.195   0.040  16.863  1.00  0.00     0.030 C 
HETATM   27  C11 UNL     1      14.656  -0.046  16.570  1.00  0.00     0.040 C 
HETATM   28  C13 UNL     1      16.284  -1.837  16.375  1.00  0.00     0.046 C 
HETATM   29  C14 UNL     1      14.319  -1.787  14.912  1.00  0.00     0.046 C 
HETATM   30  C16 UNL     1      14.764  -3.582  19.225  1.00  0.00     0.105 C 
ENDBRANCH  16  19
ENDBRANCH  14  16
ENDBRANCH   1  14
BRANCH   1  31
HETATM   31  C17 UNL     1      11.846  -6.882  22.166  1.00  0.00    -0.015 C 
HETATM   32  C18 UNL     1      10.562  -6.081  22.011  1.00  0.00     0.018 C 
HETATM   33  C19 UNL     1      12.003  -7.306  23.591  1.00  0.00     0.012 C 
HETATM   34  C20 UNL     1      11.765  -8.773  23.842  1.00  0.00     0.001 C 
HETATM   35  C21 UNL     1      12.507  -9.724  22.989  1.00  0.00     0.000 C 
HETATM   36  C22 UNL     1      12.690  -9.174  21.605  1.00  0.00     0.001 C 
HETATM   37  C23 UNL     1      11.606  -8.158  21.348  1.00  0.00     0.012 C 
ENDBRANCH   1  31
TORSDOF 10
ENDMDL
MODEL 2
REMARK VINA RESULT: -6.539051838      1.547      2.494
REMARK  10 active torsions:
REMARK  status: ('A' for Active; 'I' for Inactive)
REMARK    1  A    between atoms: N1_2  and  C2_5 
REMARK    2  A    between atoms: C2_5  and  C3_6 
REMARK    3  A    between atoms: C3_6  and  N2_8 
REMARK    4  A    between atoms: N2_8  and  C5_10 
REMARK    5  A    between atoms: C5_10  and  O1_11 
REMARK    6  A    between atoms: C5_10  and  C6_13 
REMARK    7  A    between atoms: C6_13  and  N3_14 
REMARK    8  A    between atoms: C6_13  and  C17_31 
REMARK    9  A    between atoms: N3_14  and  S1_16 
REMARK   10  A    between atoms: S1_16  and  N4_19 
ROOT
HETATM    1  C6  UNL     1      12.484  -7.056  22.531  1.00  0.00     0.176 C 
ENDROOT
BRANCH   1   2
HETATM    2  C5  UNL     1      12.242  -6.116  23.637  1.00  0.00     0.136 C 
BRANCH   2   3
HETATM    3  N2  UNL     1      12.573  -4.775  23.785  1.00  0.00    -0.367 N 
ATOM      4  H2  UNL     1      12.716  -4.213  22.945  1.00  0.00     0.161 HD
BRANCH   3   5
HETATM    5  C3  UNL     1      12.724  -4.131  25.096  1.00  0.00     0.104 C 
HETATM    6  C4  UNL     1      13.947  -3.231  25.096  1.00  0.00     0.034 C 
BRANCH   5   7
HETATM    7  C2  UNL     1      11.461  -3.388  25.456  1.00  0.00     0.256 C 
BRANCH   7   8
HETATM    8  N1  UNL     1      10.821  -4.110  26.534  1.00  0.00    -0.077 N 
HETATM    9  C1  UNL     1      11.178  -3.550  27.828  1.00  0.00     0.267 C 
ATOM     10  H12 UNL     1      11.024  -5.109  26.489  1.00  0.00     0.276 HD
ATOM     11  H11 UNL     1       9.810  -4.151  26.409  1.00  0.00     0.276 HD
ENDBRANCH   7   8
ENDBRANCH   5   7
ENDBRANCH   3   5
ENDBRANCH   2   3
BRANCH   2  12
HETATM   12  O1  UNL     1      11.614  -6.625  24.659  1.00  0.00    -0.348 OA
ATOM     13  H1  UNL     1      11.200  -7.462  24.483  1.00  0.00     0.219 HD
ENDBRANCH   2  12
ENDBRANCH   1   2
BRANCH   1  14
HETATM   14  N3  UNL     1      12.603  -6.205  21.344  1.00  0.00    -0.289 N 
ATOM     15  H3  UNL     1      11.786  -5.849  20.846  1.00  0.00     0.174 HD
BRANCH  14  16
HETATM   16  S1  UNL     1      14.178  -5.854  20.852  1.00  0.00     0.321 S 
HETATM   17  O2  UNL     1      15.086  -7.044  20.994  1.00  0.00    -0.182 OA
HETATM   18  O3  UNL     1      14.761  -4.783  21.775  1.00  0.00    -0.182 OA
BRANCH  16  19
HETATM   19  N4  UNL     1      14.184  -5.278  19.239  1.00  0.00    -0.271 N 
HETATM   20  C7  UNL     1      14.234  -3.859  19.160  1.00  0.00     0.170 C 
HETATM   21  C8  UNL     1      15.614  -3.461  18.768  1.00  0.00     0.259 C 
HETATM   22  N5  UNL     1      16.025  -3.969  17.475  1.00  0.00    -0.053 N 
HETATM   23  C9  UNL     1      17.493  -3.833  17.472  1.00  0.00     0.239 C 
HETATM   24  C12 UNL     1      15.574  -3.107  16.411  1.00  0.00     0.123 C 
HETATM   25  C15 UNL     1      15.708  -5.336  17.273  1.00  0.00     0.283 C 
HETATM   26  C10 UNL     1      17.901  -3.243  16.177  1.00  0.00     0.030 C 
HETATM   27  C11 UNL     1      16.665  -3.269  15.341  1.00  0.00     0.040 C 
HETATM   28  C13 UNL     1      14.285  -3.496  15.768  1.00  0.00     0.046 C 
HETATM   29  C14 UNL     1      15.551  -1.650  16.766  1.00  0.00     0.046 C 
HETATM   30  C16 UNL     1      14.949  -6.030  18.341  1.00  0.00     0.105 C 
ENDBRANCH  16  19
ENDBRANCH  14  16
ENDBRANCH   1  14
BRANCH   1  31
HETATM   31  C17 UNL     1      11.535  -8.172  22.352  1.00  0.00    -0.015 C 
HETATM   32  C18 UNL     1      10.120  -7.704  22.049  1.00  0.00     0.018 C 
HETATM   33  C19 UNL     1      11.524  -9.060  23.554  1.00  0.00     0.012 C 
HETATM   34  C20 UNL     1      11.745 -10.521  23.259  1.00  0.00     0.001 C 
HETATM   35  C21 UNL     1      12.924 -10.866  22.439  1.00  0.00     0.000 C 
HETATM   36  C22 UNL     1      13.197  -9.799  21.419  1.00  0.00     0.001 C 
HETATM   37  C23 UNL     1      11.915  -9.053  21.153  1.00  0.00     0.012 C 
ENDBRANCH   1  31
TORSDOF 10
ENDMDL
MODEL 3
REMARK VINA RESULT: -6.466203081      3.847      8.380
REMARK  10 active torsions:
REMARK  status: ('A' for Active; 'I' for Inactive)
REMARK    1  A    between atoms: N1_2  and  C2_5 
REMARK    2  A    between atoms: C2_5  and  C3_6 
REMARK    3  A    between atoms: C3_6  and  N2_8 
REMARK    4  A    between atoms: N2_8  and  C5_10 
REMARK    5  A    between atoms: C5_10  and  O1_11 
REMARK    6  A    between atoms: C5_10  and  C6_13 
REMARK    7  A    between atoms: C6_13  and  N3_14 
REMARK    8  A    between atoms: C6_13  and  C17_31 
REMARK    9  A    between atoms: N3_14  and  S1_16 
REMARK   10  A    between atoms: S1_16  and  N4_19 
ROOT
HETATM    1  C6  UNL     1      11.645  -5.540  22.893  1.00  0.00     0.176 C 
ENDROOT
BRANCH   1   2
HETATM    2  C5  UNL     1      11.874  -4.491  23.899  1.00  0.00     0.136 C 
BRANCH   2   3
HETATM    3  N2  UNL     1      12.417  -4.553  25.176  1.00  0.00    -0.367 N 
ATOM      4  H2  UNL     1      12.906  -5.403  25.457  1.00  0.00     0.161 HD
BRANCH   3   5
HETATM    5  C3  UNL     1      12.318  -3.448  26.139  1.00  0.00     0.104 C 
HETATM    6  C4  UNL     1      11.139  -3.673  27.069  1.00  0.00     0.034 C 
BRANCH   5   7
HETATM    7  C2  UNL     1      13.620  -3.294  26.884  1.00  0.00     0.256 C 
BRANCH   7   8
HETATM    8  N1  UNL     1      13.319  -3.314  28.300  1.00  0.00    -0.077 N 
HETATM    9  C1  UNL     1      14.493  -3.668  29.083  1.00  0.00     0.267 C 
ATOM     10  H12 UNL     1      12.531  -3.928  28.507  1.00  0.00     0.276 HD
ATOM     11  H11 UNL     1      12.914  -2.431  28.609  1.00  0.00     0.276 HD
ENDBRANCH   7   8
ENDBRANCH   5   7
ENDBRANCH   3   5
ENDBRANCH   2   3
BRANCH   2  12
HETATM   12  O1  UNL     1      11.502  -3.296  23.536  1.00  0.00    -0.348 OA
ATOM     13  H1  UNL     1      11.435  -3.179  22.595  1.00  0.00     0.219 HD
ENDBRANCH   2  12
ENDBRANCH   1   2
BRANCH   1  14
HETATM   14  N3  UNL     1      10.817  -6.535  23.580  1.00  0.00    -0.289 N 
ATOM     15  H3  UNL     1      11.141  -7.034  24.409  1.00  0.00     0.174 HD
BRANCH  14  16
HETATM   16  S1  UNL     1       9.290  -6.803  22.911  1.00  0.00     0.321 S 
HETATM   17  O2  UNL     1       9.139  -6.123  21.578  1.00  0.00    -0.182 OA
HETATM   18  O3  UNL     1       8.232  -6.170  23.815  1.00  0.00    -0.182 OA
BRANCH  16  19
HETATM   19  N4  UNL     1       8.988  -8.482  22.771  1.00  0.00    -0.271 N 
HETATM   20  C7  UNL     1      10.179  -9.249  22.648  1.00  0.00     0.170 C 
HETATM   21  C8  UNL     1      10.437  -9.922  23.950  1.00  0.00     0.259 C 
HETATM   22  N5  UNL     1       9.389 -10.837  24.355  1.00  0.00    -0.053 N 
HETATM   23  C9  UNL     1       9.621 -11.053  25.795  1.00  0.00     0.239 C 
HETATM   24  C12 UNL     1       9.570 -12.134  23.754  1.00  0.00     0.123 C 
HETATM   25  C15 UNL     1       8.081 -10.311  24.193  1.00  0.00     0.283 C 
HETATM   26  C10 UNL     1       9.520 -12.504  26.067  1.00  0.00     0.030 C 
HETATM   27  C11 UNL     1       8.984 -13.092  24.804  1.00  0.00     0.040 C 
HETATM   28  C13 UNL     1       8.811 -12.371  22.491  1.00  0.00     0.046 C 
HETATM   29  C14 UNL     1      11.003 -12.536  23.575  1.00  0.00     0.046 C 
HETATM   30  C16 UNL     1       7.952  -8.970  23.575  1.00  0.00     0.105 C 
ENDBRANCH  16  19
ENDBRANCH  14  16
ENDBRANCH   1  14
BRANCH   1  31
HETATM   31  C17 UNL     1      12.822  -6.128  22.225  1.00  0.00    -0.015 C 
HETATM   32  C18 UNL     1      13.391  -7.325  22.972  1.00  0.00     0.018 C 
HETATM   33  C19 UNL     1      13.892  -5.103  22.031  1.00  0.00     0.012 C 
HETATM   34  C20 UNL     1      14.402  -4.984  20.618  1.00  0.00     0.001 C 
HETATM   35  C21 UNL     1      13.390  -4.806  19.557  1.00  0.00     0.000 C 
HETATM   36  C22 UNL     1      12.130  -5.551  19.887  1.00  0.00     0.001 C 
HETATM   37  C23 UNL     1      12.472  -6.673  20.833  1.00  0.00     0.012 C 
ENDBRANCH   1  31
TORSDOF 10
ENDMDL
MODEL 4
REMARK VINA RESULT: -6.416606936      3.995      8.766
REMARK  10 active torsions:
REMARK  status: ('A' for Active; 'I' for Inactive)
REMARK    1  A    between atoms: N1_2  and  C2_5 
REMARK    2  A    between atoms: C2_5  and  C3_6 
REMARK    3  A    between atoms: C3_6  and  N2_8 
REMARK    4  A    between atoms: N2_8  and  C5_10 
REMARK    5  A    between atoms: C5_10  and  O1_11 
REMARK    6  A    between atoms: C5_10  and  C6_13 
REMARK    7  A    between atoms: C6_13  and  N3_14 
REMARK    8  A    between atoms: C6_13  and  C17_31 
REMARK    9  A    between atoms: N3_14  and  S1_16 
REMARK   10  A    between atoms: S1_16  and  N4_19 
ROOT
HETATM    1  C6  UNL     1      11.080  -5.921  22.831  1.00  0.00     0.176 C 
ENDROOT
BRANCH   1   2
HETATM    2  C5  UNL     1      10.974  -4.924  23.908  1.00  0.00     0.136 C 
BRANCH   2   3
HETATM    3  N2  UNL     1      11.824  -3.892  24.284  1.00  0.00    -0.367 N 
ATOM      4  H2  UNL     1      11.889  -3.071  23.682  1.00  0.00     0.161 HD
BRANCH   3   5
HETATM    5  C3  UNL     1      12.631  -3.930  25.510  1.00  0.00     0.104 C 
HETATM    6  C4  UNL     1      14.077  -3.597  25.192  1.00  0.00     0.034 C 
BRANCH   5   7
HETATM    7  C2  UNL     1      12.041  -3.006  26.547  1.00  0.00     0.256 C 
BRANCH   7   8
HETATM    8  N1  UNL     1      11.041  -3.753  27.280  1.00  0.00    -0.077 N 
HETATM    9  C1  UNL     1      11.342  -3.780  28.704  1.00  0.00     0.267 C 
ATOM     10  H12 UNL     1      10.925  -4.694  26.904  1.00  0.00     0.276 HD
ATOM     11  H11 UNL     1      10.102  -3.397  27.103  1.00  0.00     0.276 HD
ENDBRANCH   7   8
ENDBRANCH   5   7
ENDBRANCH   3   5
ENDBRANCH   2   3
BRANCH   2  12
HETATM   12  O1  UNL     1       9.902  -5.026  24.642  1.00  0.00    -0.348 OA
ATOM     13  H1  UNL     1       9.296  -4.301  24.546  1.00  0.00     0.219 HD
ENDBRANCH   2  12
ENDBRANCH   1   2
BRANCH   1  14
HETATM   14  N3  UNL     1      10.470  -7.132  23.387  1.00  0.00    -0.289 N 
ATOM     15  H3  UNL     1      10.940  -7.703  24.089  1.00  0.00     0.174 HD
BRANCH  14  16
HETATM   16  S1  UNL     1       8.941  -7.520  22.789  1.00  0.00     0.321 S 
HETATM   17  O2  UNL     1       8.763  -7.058  21.368  1.00  0.00    -0.182 OA
HETATM   18  O3  UNL     1       7.883  -6.768  23.598  1.00  0.00    -0.182 OA
BRANCH  16  19
HETATM   19  N4  UNL     1       8.661  -9.204  22.916  1.00  0.00    -0.271 N 
HETATM   20  C7  UNL     1       9.864  -9.961  22.965  1.00  0.00     0.170 C 
HETATM   21  C8  UNL     1      10.078 -10.407  24.370  1.00  0.00     0.259 C 
HETATM   22  N5  UNL     1       9.023 -11.260  24.880  1.00  0.00    -0.053 N 
HETATM   23  C9  UNL     1       9.200 -11.233  26.344  1.00  0.00     0.239 C 
HETATM   24  C12 UNL     1       9.242 -12.635  24.508  1.00  0.00     0.123 C 
HETATM   25  C15 UNL     1       7.718 -10.790  24.585  1.00  0.00     0.283 C 
HETATM   26  C10 UNL     1       9.104 -12.622  26.846  1.00  0.00     0.030 C 
HETATM   27  C11 UNL     1       8.625 -13.418  25.678  1.00  0.00     0.040 C 
HETATM   28  C13 UNL     1       8.536 -13.089  23.274  1.00  0.00     0.046 C 
HETATM   29  C14 UNL     1      10.685 -13.037  24.451  1.00  0.00     0.046 C 
HETATM   30  C16 UNL     1       7.599  -9.571  23.750  1.00  0.00     0.105 C 
ENDBRANCH  16  19
ENDBRANCH  14  16
ENDBRANCH   1  14
BRANCH   1  31
HETATM   31  C17 UNL     1      12.411  -6.162  22.239  1.00  0.00    -0.015 C 
HETATM   32  C18 UNL     1      13.348  -6.912  23.173  1.00  0.00     0.018 C 
HETATM   33  C19 UNL     1      13.047  -4.876  21.817  1.00  0.00     0.012 C 
HETATM   34  C20 UNL     1      13.524  -4.850  20.388  1.00  0.00     0.001 C 
HETATM   35  C21 UNL     1      12.550  -5.248  19.352  1.00  0.00     0.000 C 
HETATM   36  C22 UNL     1      11.631  -6.319  19.863  1.00  0.00     0.001 C 
HETATM   37  C23 UNL     1      12.324  -7.046  20.987  1.00  0.00     0.012 C 
ENDBRANCH   1  31
TORSDOF 10
ENDMDL
MODEL 5
REMARK VINA RESULT: -6.308299801      3.935      8.156
REMARK  10 active torsions:
REMARK  status: ('A' for Active; 'I' for Inactive)
REMARK    1  A    between atoms: N1_2  and  C2_5 
REMARK    2  A    between atoms: C2_5  and  C3_6 
REMARK    3  A    between atoms: C3_6  and  N2_8 
REMARK    4  A    between atoms: N2_8  and  C5_10 
REMARK    5  A    between atoms: C5_10  and  O1_11 
REMARK    6  A    between atoms: C5_10  and  C6_13 
REMARK    7  A    between atoms: C6_13  and  N3_14 
REMARK    8  A    between atoms: C6_13  and  C17_31 
REMARK    9  A    between atoms: N3_14  and  S1_16 
REMARK   10  A    between atoms: S1_16  and  N4_19 
ROOT
HETATM    1  C6  UNL     1      11.103  -6.096  22.758  1.00  0.00     0.176 C 
ENDROOT
BRANCH   1   2
HETATM    2  C5  UNL     1      10.863  -4.985  23.692  1.00  0.00     0.136 C 
BRANCH   2   3
HETATM    3  N2  UNL     1      11.706  -3.981  24.152  1.00  0.00    -0.367 N 
ATOM      4  H2  UNL     1      11.887  -3.181  23.546  1.00  0.00     0.161 HD
BRANCH   3   5
HETATM    5  C3  UNL     1      12.345  -4.020  25.473  1.00  0.00     0.104 C 
HETATM    6  C4  UNL     1      13.779  -3.532  25.373  1.00  0.00     0.034 C 
BRANCH   5   7
HETATM    7  C2  UNL     1      11.533  -3.224  26.465  1.00  0.00     0.256 C 
BRANCH   7   8
HETATM    8  N1  UNL     1      12.401  -2.889  27.573  1.00  0.00    -0.077 N 
HETATM    9  C1  UNL     1      11.949  -3.515  28.806  1.00  0.00     0.267 C 
ATOM     10  H12 UNL     1      12.500  -1.879  27.679  1.00  0.00     0.276 HD
ATOM     11  H11 UNL     1      13.374  -3.120  27.370  1.00  0.00     0.276 HD
ENDBRANCH   7   8
ENDBRANCH   5   7
ENDBRANCH   3   5
ENDBRANCH   2   3
BRANCH   2  12
HETATM   12  O1  UNL     1       9.655  -4.930  24.177  1.00  0.00    -0.348 OA
ATOM     13  H1  UNL     1       9.133  -5.706  24.007  1.00  0.00     0.219 HD
ENDBRANCH   2  12
ENDBRANCH   1   2
BRANCH   1  14
HETATM   14  N3  UNL     1      10.627  -7.286  23.470  1.00  0.00    -0.289 N 
ATOM     15  H3  UNL     1      11.090  -7.640  24.307  1.00  0.00     0.174 HD
BRANCH  14  16
HETATM   16  S1  UNL     1       9.263  -8.032  22.815  1.00  0.00     0.321 S 
HETATM   17  O2  UNL     1       8.993  -7.566  21.410  1.00  0.00    -0.182 OA
HETATM   18  O3  UNL     1       8.032  -7.622  23.625  1.00  0.00    -0.182 OA
BRANCH  16  19
HETATM   19  N4  UNL     1       9.433  -9.734  22.864  1.00  0.00    -0.271 N 
HETATM   20  C7  UNL     1      10.399 -10.219  21.939  1.00  0.00     0.170 C 
HETATM   21  C8  UNL     1      11.628 -10.585  22.696  1.00  0.00     0.259 C 
HETATM   22  N5  UNL     1      11.422 -11.633  23.676  1.00  0.00    -0.053 N 
HETATM   23  C9  UNL     1      12.594 -11.543  24.566  1.00  0.00     0.239 C 
HETATM   24  C12 UNL     1      11.518 -12.937  23.070  1.00  0.00     0.123 C 
HETATM   25  C15 UNL     1      10.256 -11.454  24.463  1.00  0.00     0.283 C 
HETATM   26  C10 UNL     1      13.113 -12.912  24.787  1.00  0.00     0.030 C 
HETATM   27  C11 UNL     1      12.072 -13.811  24.206  1.00  0.00     0.040 C 
HETATM   28  C13 UNL     1      10.224 -13.551  22.653  1.00  0.00     0.046 C 
HETATM   29  C14 UNL     1      12.513 -13.025  21.952  1.00  0.00     0.046 C 
HETATM   30  C16 UNL     1       9.379 -10.303  24.141  1.00  0.00     0.105 C 
ENDBRANCH  16  19
ENDBRANCH  14  16
ENDBRANCH   1  14
BRANCH   1  31
HETATM   31  C17 UNL     1      12.463  -6.257  22.208  1.00  0.00    -0.015 C 
HETATM   32  C18 UNL     1      13.393  -7.021  23.138  1.00  0.00     0.018 C 
HETATM   33  C19 UNL     1      13.064  -4.929  21.876  1.00  0.00     0.012 C 
HETATM   34  C20 UNL     1      13.593  -4.810  20.471  1.00  0.00     0.001 C 
HETATM   35  C21 UNL     1      12.674  -5.190  19.378  1.00  0.00     0.000 C 
HETATM   36  C22 UNL     1      11.780  -6.319  19.798  1.00  0.00     0.001 C 
HETATM   37  C23 UNL     1      12.458  -7.077  20.910  1.00  0.00     0.012 C 
ENDBRANCH   1  31
TORSDOF 10
ENDMDL
