MODEL 1
REMARK VINA RESULT: -8.534891854      0.000      0.000
REMARK  6 active torsions:
REMARK  status: ('A' for Active; 'I' for Inactive)
REMARK    1  A    between atoms: N2_8  and  C7_9 
REMARK    2  A    between atoms: C7_9  and  C8_10 
REMARK    3  A    between atoms: C8_10  and  C9_11 
REMARK    4  A    between atoms: C9_11  and  C10_12 
REMARK    5  A    between atoms: C16_25  and  C17_26 
REMARK    6  A    between atoms: C20_29  and  N6_30 
ROOT
HETATM    1  C1  UNL     1      15.694  -9.005  20.636  1.00  0.00     0.046 C 
HETATM    2  C2  UNL     1      14.261  -8.856  20.292  1.00  0.00    -0.055 C 
HETATM    3  C3  UNL     1      13.089  -8.534  19.931  1.00  0.00     0.046 C 
HETATM    4  C4  UNL     1      12.795  -7.158  19.369  1.00  0.00     0.126 C 
HETATM    5  N1  UNL     1      12.824  -6.183  20.385  1.00  0.00    -0.322 N 
HETATM    6  C5  UNL     1      14.059  -5.705  20.864  1.00  0.00     0.098 C 
HETATM    7  C6  UNL     1      14.039  -6.186  22.291  1.00  0.00     0.289 C 
HETATM    8  N2  UNL     1      12.733  -6.842  22.510  1.00  0.00    -0.028 N 
HETATM    9  C14 UNL     1      11.996  -6.189  21.498  1.00  0.00     0.300 C 
HETATM   10  C15 UNL     1      12.703  -8.144  22.866  1.00  0.00     0.257 C 
HETATM   11  C16 UNL     1      12.680  -9.459  22.234  1.00  0.00     0.008 C 
HETATM   12  C26 UNL     1      11.441  -9.493  21.327  1.00  0.00     0.131 C 
HETATM   13  N7  UNL     1      12.007  -9.481  19.931  1.00  0.00    -0.388 N 
ATOM     14  H7  UNL     1      11.685 -10.036  19.139  1.00  0.00     0.159 HD
HETATM   15  C27 UNL     1      13.754 -10.032  21.422  1.00  0.00     0.049 C 
ENDROOT
BRANCH   8  16
HETATM   16  C7  UNL     1      12.340  -6.095  23.758  1.00  0.00     0.245 C 
BRANCH  16  17
HETATM   17  C8  UNL     1      11.337  -5.047  23.625  1.00  0.00     0.036 C 
BRANCH  17  18
HETATM   18  C9  UNL     1      11.952  -3.731  24.106  1.00  0.00     0.078 C 
BRANCH  18  19
HETATM   19  C10 UNL     1      12.111  -3.596  25.543  1.00  0.00     0.082 A 
HETATM   20  N3  UNL     1      11.080  -3.716  26.371  1.00  0.00    -0.332 N 
HETATM   21  C11 UNL     1      11.118  -3.626  27.699  1.00  0.00     0.101 A 
ATOM     22  H3  UNL     1      10.170  -3.895  25.948  1.00  0.00     0.168 HD
HETATM   23  N4  UNL     1      10.080  -3.741  28.437  1.00  0.00    -0.385 N 
HETATM   24  C12 UNL     1      12.367  -3.381  28.294  1.00  0.00     0.065 A 
ATOM     25  H42 UNL     1       9.174  -3.919  28.005  1.00  0.00     0.157 HD
ATOM     26  H41 UNL     1      10.110  -3.672  29.454  1.00  0.00     0.157 HD
HETATM   27  C13 UNL     1      13.447  -3.255  27.454  1.00  0.00     0.093 A 
HETATM   28  N5  UNL     1      13.296  -3.364  26.114  1.00  0.00    -0.356 N 
ATOM     29  H5  UNL     1      14.118  -3.265  25.518  1.00  0.00     0.166 HD
ENDBRANCH  18  19
ENDBRANCH  17  18
ENDBRANCH  16  17
ENDBRANCH   8  16
BRANCH  11  30
HETATM   30  C17 UNL     1      12.554 -10.510  23.366  1.00  0.00     0.001 C 
HETATM   31  C18 UNL     1      12.827 -11.900  22.959  1.00  0.00     0.034 C 
HETATM   32  C19 UNL     1      11.657 -12.856  22.946  1.00  0.00     0.006 C 
HETATM   33  C20 UNL     1      10.766 -12.793  23.899  1.00  0.00     0.109 C 
HETATM   34  C24 UNL     1      10.999 -11.734  24.913  1.00  0.00     0.065 C 
HETATM   35  C25 UNL     1      11.415 -10.411  24.273  1.00  0.00     0.011 C 
BRANCH  33  36
HETATM   36  N6  UNL     1       9.661 -13.670  23.927  1.00  0.00    -0.053 N 
HETATM   37  C21 UNL     1       8.661 -13.321  22.934  1.00  0.00     0.278 C 
HETATM   38  C22 UNL     1       9.976 -15.067  23.790  1.00  0.00     0.278 C 
HETATM   39  C23 UNL     1       8.983 -13.523  25.234  1.00  0.00     0.278 C 
ENDBRANCH  33  36
ENDBRANCH  11  30
TORSDOF 6
ENDMDL
MODEL 2
REMARK VINA RESULT: -8.514472994      0.776      1.217
REMARK  6 active torsions:
REMARK  status: ('A' for Active; 'I' for Inactive)
REMARK    1  A    between atoms: N2_8  and  C7_9 
REMARK    2  A    between atoms: C7_9  and  C8_10 
REMARK    3  A    between atoms: C8_10  and  C9_11 
REMARK    4  A    between atoms: C9_11  and  C10_12 
REMARK    5  A    between atoms: C16_25  and  C17_26 
REMARK    6  A    between atoms: C20_29  and  N6_30 
ROOT
HETATM    1  C1  UNL     1      15.399  -8.930  20.807  1.00  0.00     0.046 C 
HETATM    2  C2  UNL     1      13.977  -8.658  20.494  1.00  0.00    -0.055 C 
HETATM    3  C3  UNL     1      12.831  -8.240  20.148  1.00  0.00     0.046 C 
HETATM    4  C4  UNL     1      12.653  -6.868  19.530  1.00  0.00     0.126 C 
HETATM    5  N1  UNL     1      12.806  -5.856  20.498  1.00  0.00    -0.322 N 
HETATM    6  C5  UNL     1      14.095  -5.480  20.921  1.00  0.00     0.098 C 
HETATM    7  C6  UNL     1      14.073  -5.892  22.369  1.00  0.00     0.289 C 
HETATM    8  N2  UNL     1      12.718  -6.408  22.654  1.00  0.00    -0.028 N 
HETATM    9  C14 UNL     1      12.015  -5.733  21.631  1.00  0.00     0.300 C 
HETATM   10  C15 UNL     1      12.574  -7.684  23.071  1.00  0.00     0.257 C 
HETATM   11  C16 UNL     1      12.406  -9.017  22.502  1.00  0.00     0.008 C 
HETATM   12  C26 UNL     1      11.142  -8.971  21.631  1.00  0.00     0.131 C 
HETATM   13  N7  UNL     1      11.664  -9.076  20.221  1.00  0.00    -0.388 N 
ATOM     14  H7  UNL     1      11.266  -9.632  19.465  1.00  0.00     0.159 HD
HETATM   15  C27 UNL     1      13.395  -9.728  21.691  1.00  0.00     0.049 C 
ENDROOT
BRANCH   8  16
HETATM   16  C7  UNL     1      12.436  -5.572  23.875  1.00  0.00     0.245 C 
BRANCH  16  17
HETATM   17  C8  UNL     1      12.110  -4.167  23.665  1.00  0.00     0.036 C 
BRANCH  17  18
HETATM   18  C9  UNL     1      12.992  -3.328  24.592  1.00  0.00     0.078 C 
BRANCH  18  19
HETATM   19  C10 UNL     1      12.673  -3.402  26.007  1.00  0.00     0.082 A 
HETATM   20  N3  UNL     1      13.624  -3.490  26.930  1.00  0.00    -0.332 N 
HETATM   21  C11 UNL     1      13.442  -3.548  28.247  1.00  0.00     0.101 A 
ATOM     22  H3  UNL     1      14.587  -3.516  26.597  1.00  0.00     0.168 HD
HETATM   23  N4  UNL     1      14.407  -3.645  29.082  1.00  0.00    -0.385 N 
HETATM   24  C12 UNL     1      12.120  -3.512  28.720  1.00  0.00     0.065 A 
ATOM     25  H42 UNL     1      15.367  -3.670  28.740  1.00  0.00     0.157 HD
ATOM     26  H41 UNL     1      14.267  -3.689  30.092  1.00  0.00     0.157 HD
HETATM   27  C13 UNL     1      11.122  -3.420  27.780  1.00  0.00     0.093 A 
HETATM   28  N5  UNL     1      11.418  -3.367  26.461  1.00  0.00    -0.356 N 
ATOM     29  H5  UNL     1      10.654  -3.298  25.789  1.00  0.00     0.166 HD
ENDBRANCH  18  19
ENDBRANCH  17  18
ENDBRANCH  16  17
ENDBRANCH   8  16
BRANCH  11  30
HETATM   30  C17 UNL     1      12.214 -10.000  23.685  1.00  0.00     0.001 C 
HETATM   31  C18 UNL     1      12.714 -11.366  23.449  1.00  0.00     0.034 C 
HETATM   32  C19 UNL     1      11.684 -12.465  23.331  1.00  0.00     0.006 C 
HETATM   33  C20 UNL     1      10.643 -12.456  24.119  1.00  0.00     0.109 C 
HETATM   34  C24 UNL     1      10.575 -11.312  25.063  1.00  0.00     0.065 C 
HETATM   35  C25 UNL     1      10.934  -9.991  24.387  1.00  0.00     0.011 C 
BRANCH  33  36
HETATM   36  N6  UNL     1       9.661 -13.466  24.046  1.00  0.00    -0.053 N 
HETATM   37  C21 UNL     1       8.673 -13.193  23.017  1.00  0.00     0.278 C 
HETATM   38  C22 UNL     1      10.159 -14.803  23.859  1.00  0.00     0.278 C 
HETATM   39  C23 UNL     1       8.907 -13.477  25.320  1.00  0.00     0.278 C 
ENDBRANCH  33  36
ENDBRANCH  11  30
TORSDOF 6
ENDMDL
MODEL 3
REMARK VINA RESULT: -8.401047738      1.389      2.168
REMARK  6 active torsions:
REMARK  status: ('A' for Active; 'I' for Inactive)
REMARK    1  A    between atoms: N2_8  and  C7_9 
REMARK    2  A    between atoms: C7_9  and  C8_10 
REMARK    3  A    between atoms: C8_10  and  C9_11 
REMARK    4  A    between atoms: C9_11  and  C10_12 
REMARK    5  A    between atoms: C16_25  and  C17_26 
REMARK    6  A    between atoms: C20_29  and  N6_30 
ROOT
HETATM    1  C1  UNL     1      14.849  -9.082  20.466  1.00  0.00     0.046 C 
HETATM    2  C2  UNL     1      13.581  -8.430  20.066  1.00  0.00    -0.055 C 
HETATM    3  C3  UNL     1      12.616  -7.700  19.687  1.00  0.00     0.046 C 
HETATM    4  C4  UNL     1      12.837  -6.250  19.303  1.00  0.00     0.126 C 
HETATM    5  N1  UNL     1      13.078  -5.460  20.443  1.00  0.00    -0.322 N 
HETATM    6  C5  UNL     1      14.347  -5.474  21.051  1.00  0.00     0.098 C 
HETATM    7  C6  UNL     1      14.035  -6.076  22.396  1.00  0.00     0.289 C 
HETATM    8  N2  UNL     1      12.573  -6.282  22.450  1.00  0.00    -0.028 N 
HETATM    9  C14 UNL     1      12.187  -5.314  21.497  1.00  0.00     0.300 C 
HETATM   10  C15 UNL     1      12.091  -7.531  22.622  1.00  0.00     0.257 C 
HETATM   11  C16 UNL     1      11.709  -8.686  21.816  1.00  0.00     0.008 C 
HETATM   12  C26 UNL     1      10.619  -8.207  20.845  1.00  0.00     0.131 C 
HETATM   13  N7  UNL     1      11.293  -8.228  19.497  1.00  0.00    -0.388 N 
ATOM     14  H7  UNL     1      10.889  -8.554  18.620  1.00  0.00     0.159 HD
HETATM   15  C27 UNL     1      12.615  -9.489  20.995  1.00  0.00     0.049 C 
ENDROOT
BRANCH   8  16
HETATM   16  C7  UNL     1      12.321  -5.590  23.764  1.00  0.00     0.245 C 
BRANCH  16  17
HETATM   17  C8  UNL     1      11.948  -4.182  23.720  1.00  0.00     0.036 C 
BRANCH  17  18
HETATM   18  C9  UNL     1      12.912  -3.404  24.619  1.00  0.00     0.078 C 
BRANCH  18  19
HETATM   19  C10 UNL     1      12.627  -3.450  26.042  1.00  0.00     0.082 A 
HETATM   20  N3  UNL     1      13.599  -3.520  26.944  1.00  0.00    -0.332 N 
HETATM   21  C11 UNL     1      13.448  -3.552  28.266  1.00  0.00     0.101 A 
ATOM     22  H3  UNL     1      14.554  -3.554  26.589  1.00  0.00     0.168 HD
HETATM   23  N4  UNL     1      14.432  -3.633  29.080  1.00  0.00    -0.385 N 
HETATM   24  C12 UNL     1      12.137  -3.506  28.769  1.00  0.00     0.065 A 
ATOM     25  H42 UNL     1      15.384  -3.665  28.715  1.00  0.00     0.157 HD
ATOM     26  H41 UNL     1      14.317  -3.657  30.093  1.00  0.00     0.157 HD
HETATM   27  C13 UNL     1      11.118  -3.432  27.851  1.00  0.00     0.093 A 
HETATM   28  N5  UNL     1      11.382  -3.406  26.525  1.00  0.00    -0.356 N 
ATOM     29  H5  UNL     1      10.602  -3.350  25.870  1.00  0.00     0.166 HD
ENDBRANCH  18  19
ENDBRANCH  17  18
ENDBRANCH  16  17
ENDBRANCH   8  16
BRANCH  11  30
HETATM   30  C17 UNL     1      11.141  -9.754  22.784  1.00  0.00     0.001 C 
HETATM   31  C18 UNL     1      11.826  -9.841  24.087  1.00  0.00     0.034 C 
HETATM   32  C19 UNL     1      12.633 -11.090  24.358  1.00  0.00     0.006 C 
HETATM   33  C20 UNL     1      12.172 -12.248  23.970  1.00  0.00     0.109 C 
HETATM   34  C24 UNL     1      10.869 -12.206  23.260  1.00  0.00     0.065 C 
HETATM   35  C25 UNL     1      10.810 -11.069  22.242  1.00  0.00     0.011 C 
BRANCH  33  36
HETATM   36  N6  UNL     1      12.892 -13.439  24.208  1.00  0.00    -0.053 N 
HETATM   37  C21 UNL     1      13.516 -13.447  25.519  1.00  0.00     0.278 C 
HETATM   38  C22 UNL     1      12.143 -14.657  24.049  1.00  0.00     0.278 C 
HETATM   39  C23 UNL     1      14.010 -13.509  23.241  1.00  0.00     0.278 C 
ENDBRANCH  33  36
ENDBRANCH  11  30
TORSDOF 6
ENDMDL
MODEL 4
REMARK VINA RESULT: -8.352823642      1.448      2.006
REMARK  6 active torsions:
REMARK  status: ('A' for Active; 'I' for Inactive)
REMARK    1  A    between atoms: N2_8  and  C7_9 
REMARK    2  A    between atoms: C7_9  and  C8_10 
REMARK    3  A    between atoms: C8_10  and  C9_11 
REMARK    4  A    between atoms: C9_11  and  C10_12 
REMARK    5  A    between atoms: C16_25  and  C17_26 
REMARK    6  A    between atoms: C20_29  and  N6_30 
ROOT
HETATM    1  C1  UNL     1      15.594  -8.539  21.419  1.00  0.00     0.046 C 
HETATM    2  C2  UNL     1      14.555  -8.397  20.373  1.00  0.00    -0.055 C 
HETATM    3  C3  UNL     1      13.752  -8.085  19.443  1.00  0.00     0.046 C 
HETATM    4  C4  UNL     1      13.828  -6.730  18.768  1.00  0.00     0.126 C 
HETATM    5  N1  UNL     1      13.346  -5.716  19.618  1.00  0.00    -0.322 N 
HETATM    6  C5  UNL     1      14.161  -5.225  20.656  1.00  0.00     0.098 C 
HETATM    7  C6  UNL     1      13.387  -5.649  21.877  1.00  0.00     0.289 C 
HETATM    8  N2  UNL     1      12.143  -6.290  21.402  1.00  0.00    -0.028 N 
HETATM    9  C14 UNL     1      12.059  -5.675  20.134  1.00  0.00     0.300 C 
HETATM   10  C15 UNL     1      11.901  -7.577  21.730  1.00  0.00     0.257 C 
HETATM   11  C16 UNL     1      12.179  -8.916  21.220  1.00  0.00     0.008 C 
HETATM   12  C26 UNL     1      11.594  -8.980  19.801  1.00  0.00     0.131 C 
HETATM   13  N7  UNL     1      12.806  -9.025  18.907  1.00  0.00    -0.388 N 
ATOM     14  H7  UNL     1      12.932  -9.610  18.081  1.00  0.00     0.159 HD
HETATM   15  C27 UNL     1      13.504  -9.525  21.108  1.00  0.00     0.049 C 
ENDROOT
BRANCH   8  16
HETATM   16  C7  UNL     1      11.175  -5.493  22.236  1.00  0.00     0.245 C 
BRANCH  16  17
HETATM   17  C8  UNL     1      10.982  -5.908  23.620  1.00  0.00     0.036 C 
BRANCH  17  18
HETATM   18  C9  UNL     1      10.480  -4.702  24.416  1.00  0.00     0.078 C 
BRANCH  18  19
HETATM   19  C10 UNL     1      11.402  -4.167  25.403  1.00  0.00     0.082 A 
HETATM   20  N3  UNL     1      11.015  -3.905  26.645  1.00  0.00    -0.332 N 
HETATM   21  C11 UNL     1      11.779  -3.431  27.627  1.00  0.00     0.101 A 
ATOM     22  H3  UNL     1      10.037  -4.083  26.870  1.00  0.00     0.168 HD
HETATM   23  N4  UNL     1      11.336  -3.188  28.802  1.00  0.00    -0.385 N 
HETATM   24  C12 UNL     1      13.130  -3.180  27.331  1.00  0.00     0.065 A 
ATOM     25  H42 UNL     1      10.356  -3.370  29.017  1.00  0.00     0.157 HD
ATOM     26  H41 UNL     1      11.922  -2.824  29.554  1.00  0.00     0.157 HD
HETATM   27  C13 UNL     1      13.550  -3.447  26.051  1.00  0.00     0.093 A 
HETATM   28  N5  UNL     1      12.687  -3.929  25.127  1.00  0.00    -0.356 N 
ATOM     29  H5  UNL     1      13.031  -4.117  24.185  1.00  0.00     0.166 HD
ENDBRANCH  18  19
ENDBRANCH  17  18
ENDBRANCH  16  17
ENDBRANCH   8  16
BRANCH  11  30
HETATM   30  C17 UNL     1      11.455  -9.921  22.152  1.00  0.00     0.001 C 
HETATM   31  C18 UNL     1      11.852  -9.855  23.570  1.00  0.00     0.034 C 
HETATM   32  C19 UNL     1      12.624 -11.029  24.124  1.00  0.00     0.006 C 
HETATM   33  C20 UNL     1      12.293 -12.241  23.766  1.00  0.00     0.109 C 
HETATM   34  C24 UNL     1      11.168 -12.330  22.801  1.00  0.00     0.065 C 
HETATM   35  C25 UNL     1      11.289 -11.294  21.686  1.00  0.00     0.011 C 
BRANCH  33  36
HETATM   36  N6  UNL     1      12.985 -13.366  24.264  1.00  0.00    -0.053 N 
HETATM   37  C21 UNL     1      14.180 -13.657  23.493  1.00  0.00     0.278 C 
HETATM   38  C22 UNL     1      13.340 -13.307  25.657  1.00  0.00     0.278 C 
HETATM   39  C23 UNL     1      12.117 -14.554  24.106  1.00  0.00     0.278 C 
ENDBRANCH  33  36
ENDBRANCH  11  30
TORSDOF 6
ENDMDL
MODEL 5
REMARK VINA RESULT: -8.316617691      0.950      1.117
REMARK  6 active torsions:
REMARK  status: ('A' for Active; 'I' for Inactive)
REMARK    1  A    between atoms: N2_8  and  C7_9 
REMARK    2  A    between atoms: C7_9  and  C8_10 
REMARK    3  A    between atoms: C8_10  and  C9_11 
REMARK    4  A    between atoms: C9_11  and  C10_12 
REMARK    5  A    between atoms: C16_25  and  C17_26 
REMARK    6  A    between atoms: C20_29  and  N6_30 
ROOT
HETATM    1  C1  UNL     1      16.003  -9.300  20.479  1.00  0.00     0.046 C 
HETATM    2  C2  UNL     1      14.614  -9.358  19.968  1.00  0.00    -0.055 C 
HETATM    3  C3  UNL     1      13.484  -9.247  19.404  1.00  0.00     0.046 C 
HETATM    4  C4  UNL     1      13.231  -8.174  18.365  1.00  0.00     0.126 C 
HETATM    5  N1  UNL     1      13.133  -6.905  18.966  1.00  0.00    -0.322 N 
HETATM    6  C5  UNL     1      14.300  -6.223  19.360  1.00  0.00     0.098 C 
HETATM    7  C6  UNL     1      14.132  -6.172  20.856  1.00  0.00     0.289 C 
HETATM    8  N2  UNL     1      12.821  -6.778  21.167  1.00  0.00    -0.028 N 
HETATM    9  C14 UNL     1      12.188  -6.563  19.923  1.00  0.00     0.300 C 
HETATM   10  C15 UNL     1      12.773  -7.871  21.957  1.00  0.00     0.257 C 
HETATM   11  C16 UNL     1      12.840  -9.324  21.834  1.00  0.00     0.008 C 
HETATM   12  C26 UNL     1      11.708  -9.741  20.884  1.00  0.00     0.131 C 
HETATM   13  N7  UNL     1      12.423 -10.190  19.636  1.00  0.00    -0.388 N 
ATOM     14  H7  UNL     1      12.199 -11.005  19.065  1.00  0.00     0.159 HD
HETATM   15  C27 UNL     1      14.006 -10.088  21.387  1.00  0.00     0.049 C 
ENDROOT
BRANCH   8  16
HETATM   16  C7  UNL     1      12.282  -5.662  22.024  1.00  0.00     0.245 C 
BRANCH  16  17
HETATM   17  C8  UNL     1      11.994  -5.968  23.420  1.00  0.00     0.036 C 
BRANCH  17  18
HETATM   18  C9  UNL     1      11.143  -4.831  23.992  1.00  0.00     0.078 C 
BRANCH  18  19
HETATM   19  C10 UNL     1      11.637  -4.228  25.217  1.00  0.00     0.082 A 
HETATM   20  N3  UNL     1      10.845  -4.038  26.266  1.00  0.00    -0.332 N 
HETATM   21  C11 UNL     1      11.198  -3.511  27.437  1.00  0.00     0.101 A 
ATOM     22  H3  UNL     1       9.871  -4.323  26.165  1.00  0.00     0.168 HD
HETATM   23  N4  UNL     1      10.377  -3.344  28.404  1.00  0.00    -0.385 N 
HETATM   24  C12 UNL     1      12.537  -3.113  27.589  1.00  0.00     0.065 A 
ATOM     25  H42 UNL     1       9.406  -3.633  28.294  1.00  0.00     0.157 HD
ATOM     26  H41 UNL     1      10.648  -2.940  29.301  1.00  0.00     0.157 HD
HETATM   27  C13 UNL     1      13.372  -3.303  26.515  1.00  0.00     0.093 A 
HETATM   28  N5  UNL     1      12.909  -3.850  25.368  1.00  0.00    -0.356 N 
ATOM     29  H5  UNL     1      13.555  -3.978  24.589  1.00  0.00     0.166 HD
ENDBRANCH  18  19
ENDBRANCH  17  18
ENDBRANCH  16  17
ENDBRANCH   8  16
BRANCH  11  30
HETATM   30  C17 UNL     1      12.608  -9.915  23.248  1.00  0.00     0.001 C 
HETATM   31  C18 UNL     1      12.807 -11.372  23.355  1.00  0.00     0.034 C 
HETATM   32  C19 UNL     1      11.580 -12.218  23.604  1.00  0.00     0.006 C 
HETATM   33  C20 UNL     1      10.662 -11.790  24.428  1.00  0.00     0.109 C 
HETATM   34  C24 UNL     1      10.925 -10.459  25.032  1.00  0.00     0.065 C 
HETATM   35  C25 UNL     1      11.445  -9.457  24.003  1.00  0.00     0.011 C 
BRANCH  33  36
HETATM   36  N6  UNL     1       9.504 -12.551  24.692  1.00  0.00    -0.053 N 
HETATM   37  C21 UNL     1       8.311 -11.944  24.129  1.00  0.00     0.278 C 
HETATM   38  C22 UNL     1       9.559 -13.927  24.276  1.00  0.00     0.278 C 
HETATM   39  C23 UNL     1       9.281 -12.568  26.155  1.00  0.00     0.278 C 
ENDBRANCH  33  36
ENDBRANCH  11  30
TORSDOF 6
ENDMDL
