MODEL 1
REMARK VINA RESULT: -3.208094800      0.000      0.000
REMARK  3 active torsions:
REMARK  status: ('A' for Active; 'I' for Inactive)
REMARK    1  A    between atoms: N1_1  and  C1_5 
REMARK    2  A    between atoms: C1_5  and  C2_6 
REMARK    3  A    between atoms: C1_5  and  C3_13 
ROOT
HETATM    1  C1  UNL     1      21.828  11.589  28.632  1.00  0.00     0.283 C 
ENDROOT
BRANCH   1   2
HETATM    2  N1  UNL     1      21.650  13.005  28.891  1.00  0.00    -0.066 N 
ATOM      3  H13 UNL     1      20.700  13.205  29.204  1.00  0.00     0.275 HD
ATOM      4  H12 UNL     1      22.161  13.293  29.726  1.00  0.00     0.275 HD
ATOM      5  H11 UNL     1      21.902  13.581  28.088  1.00  0.00     0.275 HD
ENDBRANCH   1   2
BRANCH   1   6
HETATM    6  C2  UNL     1      20.541  10.863  28.558  1.00  0.00     0.146 A 
HETATM    7  N2  UNL     1      19.265  11.122  28.177  1.00  0.00    -0.272 N 
HETATM    8  N3  UNL     1      18.879   9.912  28.468  1.00  0.00    -0.240 N 
ATOM      9  H2  UNL     1      18.791  11.946  27.807  1.00  0.00     0.190 HD
HETATM   10  N4  UNL     1      20.100   9.612  28.849  1.00  0.00    -0.272 N 
ATOM     11  H3  UNL     1      17.995   9.406  28.420  1.00  0.00     0.208 HD
ATOM     12  H4  UNL     1      20.544   8.770  29.218  1.00  0.00     0.190 HD
ENDBRANCH   1   6
BRANCH   1  13
HETATM   13  C3  UNL     1      22.517  11.447  27.311  1.00  0.00     0.223 C 
HETATM   14  C4  UNL     1      22.251  12.630  26.393  1.00  0.00     0.037 C 
HETATM   15  C5  UNL     1      23.306  12.389  25.320  1.00  0.00     0.029 C 
HETATM   16  C6  UNL     1      24.436  11.771  26.098  1.00  0.00     0.233 C 
HETATM   17  N5  UNL     1      23.971  11.533  27.434  1.00  0.00    -0.069 N 
ATOM     18  H52 UNL     1      24.289  12.223  28.114  1.00  0.00     0.277 HD
ATOM     19  H51 UNL     1      24.397  10.723  27.884  1.00  0.00     0.277 HD
ENDBRANCH   1  13
TORSDOF 3
ENDMDL
MODEL 2
REMARK VINA RESULT: -3.132900189      1.333      1.769
REMARK  3 active torsions:
REMARK  status: ('A' for Active; 'I' for Inactive)
REMARK    1  A    between atoms: N1_1  and  C1_5 
REMARK    2  A    between atoms: C1_5  and  C2_6 
REMARK    3  A    between atoms: C1_5  and  C3_13 
ROOT
HETATM    1  C1  UNL     1      21.968  11.467  28.725  1.00  0.00     0.283 C 
ENDROOT
BRANCH   1   2
HETATM    2  N1  UNL     1      21.910  12.885  28.426  1.00  0.00    -0.066 N 
ATOM      3  H13 UNL     1      21.872  13.047  27.420  1.00  0.00     0.275 HD
ATOM      4  H12 UNL     1      21.006  13.279  28.689  1.00  0.00     0.275 HD
ATOM      5  H11 UNL     1      22.676  13.404  28.854  1.00  0.00     0.275 HD
ENDBRANCH   1   2
BRANCH   1   6
HETATM    6  C2  UNL     1      20.646  10.813  28.615  1.00  0.00     0.146 A 
HETATM    7  N2  UNL     1      20.101   9.601  28.891  1.00  0.00    -0.272 N 
HETATM    8  N3  UNL     1      18.927   9.976  28.467  1.00  0.00    -0.240 N 
ATOM      9  H2  UNL     1      20.469   8.733  29.280  1.00  0.00     0.190 HD
HETATM   10  N4  UNL     1      19.407  11.165  28.182  1.00  0.00    -0.272 N 
ATOM     11  H3  UNL     1      18.014   9.529  28.388  1.00  0.00     0.208 HD
ATOM     12  H4  UNL     1      19.008  12.018  27.790  1.00  0.00     0.190 HD
ENDBRANCH   1   6
BRANCH   1  13
HETATM   13  C3  UNL     1      22.888  10.826  27.733  1.00  0.00     0.223 C 
HETATM   14  C4  UNL     1      24.159  11.633  27.521  1.00  0.00     0.037 C 
HETATM   15  C5  UNL     1      25.010  10.616  26.772  1.00  0.00     0.029 C 
HETATM   16  C6  UNL     1      24.567   9.308  27.369  1.00  0.00     0.233 C 
HETATM   17  N5  UNL     1      23.452   9.575  28.232  1.00  0.00    -0.069 N 
ATOM     18  H52 UNL     1      23.691   9.593  29.224  1.00  0.00     0.277 HD
ATOM     19  H51 UNL     1      22.779   8.810  28.290  1.00  0.00     0.277 HD
ENDBRANCH   1  13
TORSDOF 3
ENDMDL
MODEL 3
REMARK VINA RESULT: -3.032873351      1.506      2.206
REMARK  3 active torsions:
REMARK  status: ('A' for Active; 'I' for Inactive)
REMARK    1  A    between atoms: N1_1  and  C1_5 
REMARK    2  A    between atoms: C1_5  and  C2_6 
REMARK    3  A    between atoms: C1_5  and  C3_13 
ROOT
HETATM    1  C1  UNL     1      22.619  11.655  27.577  1.00  0.00     0.283 C 
ENDROOT
BRANCH   1   2
HETATM    2  N1  UNL     1      22.277  12.215  26.284  1.00  0.00    -0.066 N 
ATOM      3  H13 UNL     1      21.754  11.545  25.720  1.00  0.00     0.275 HD
ATOM      4  H12 UNL     1      21.566  12.941  26.374  1.00  0.00     0.275 HD
ATOM      5  H11 UNL     1      23.094  12.560  25.781  1.00  0.00     0.275 HD
ENDBRANCH   1   2
BRANCH   1   6
HETATM    6  C2  UNL     1      21.520  10.847  28.150  1.00  0.00     0.146 A 
HETATM    7  N2  UNL     1      21.366   9.625  28.720  1.00  0.00    -0.272 N 
HETATM    8  N3  UNL     1      20.087   9.810  28.891  1.00  0.00    -0.240 N 
ATOM      9  H2  UNL     1      22.005   8.859  28.932  1.00  0.00     0.190 HD
HETATM   10  N4  UNL     1      20.185  11.001  28.346  1.00  0.00    -0.272 N 
ATOM     11  H3  UNL     1      19.326   9.257  29.285  1.00  0.00     0.208 HD
ATOM     12  H4  UNL     1      19.519  11.749  28.147  1.00  0.00     0.190 HD
ENDBRANCH   1   6
BRANCH   1  13
HETATM   13  C3  UNL     1      23.804  10.760  27.390  1.00  0.00     0.223 C 
HETATM   14  C4  UNL     1      24.622  11.136  26.165  1.00  0.00     0.037 C 
HETATM   15  C5  UNL     1      25.886  10.323  26.417  1.00  0.00     0.029 C 
HETATM   16  C6  UNL     1      25.995  10.335  27.918  1.00  0.00     0.233 C 
HETATM   17  N5  UNL     1      24.805  10.943  28.439  1.00  0.00    -0.069 N 
ATOM     18  H52 UNL     1      24.927  11.913  28.731  1.00  0.00     0.277 HD
ATOM     19  H51 UNL     1      24.520  10.584  29.351  1.00  0.00     0.277 HD
ENDBRANCH   1  13
TORSDOF 3
ENDMDL
MODEL 4
REMARK VINA RESULT: -3.030000892      1.753      2.389
REMARK  3 active torsions:
REMARK  status: ('A' for Active; 'I' for Inactive)
REMARK    1  A    between atoms: N1_1  and  C1_5 
REMARK    2  A    between atoms: C1_5  and  C2_6 
REMARK    3  A    between atoms: C1_5  and  C3_13 
ROOT
HETATM    1  C1  UNL     1      22.764  11.311  27.875  1.00  0.00     0.283 C 
ENDROOT
BRANCH   1   2
HETATM    2  N1  UNL     1      21.519  11.853  27.368  1.00  0.00    -0.066 N 
ATOM      3  H13 UNL     1      21.183  11.317  26.568  1.00  0.00     0.275 HD
ATOM      4  H12 UNL     1      20.751  11.677  28.016  1.00  0.00     0.275 HD
ATOM      5  H11 UNL     1      21.591  12.845  27.143  1.00  0.00     0.275 HD
ENDBRANCH   1   2
BRANCH   1   6
HETATM    6  C2  UNL     1      22.659   9.873  28.209  1.00  0.00     0.146 A 
HETATM    7  N2  UNL     1      23.436   8.764  28.119  1.00  0.00    -0.272 N 
HETATM    8  N3  UNL     1      22.510   8.012  28.645  1.00  0.00    -0.240 N 
ATOM      9  H2  UNL     1      24.379   8.587  27.774  1.00  0.00     0.190 HD
HETATM   10  N4  UNL     1      21.720   9.056  28.753  1.00  0.00    -0.272 N 
ATOM     11  H3  UNL     1      22.432   7.021  28.876  1.00  0.00     0.208 HD
ATOM     12  H4  UNL     1      20.774   9.198  29.107  1.00  0.00     0.190 HD
ENDBRANCH   1   6
BRANCH   1  13
HETATM   13  C3  UNL     1      23.801  11.465  26.807  1.00  0.00     0.223 C 
HETATM   14  C4  UNL     1      23.268  12.203  25.590  1.00  0.00     0.037 C 
HETATM   15  C5  UNL     1      24.570  12.504  24.858  1.00  0.00     0.029 C 
HETATM   16  C6  UNL     1      25.546  12.705  25.985  1.00  0.00     0.233 C 
HETATM   17  N5  UNL     1      24.878  12.366  27.209  1.00  0.00    -0.069 N 
ATOM     18  H52 UNL     1      24.564  13.174  27.748  1.00  0.00     0.277 HD
ATOM     19  H51 UNL     1      25.494  11.982  27.926  1.00  0.00     0.277 HD
ENDBRANCH   1  13
TORSDOF 3
ENDMDL
MODEL 5
REMARK VINA RESULT: -2.972759614      2.426      4.768
REMARK  3 active torsions:
REMARK  status: ('A' for Active; 'I' for Inactive)
REMARK    1  A    between atoms: N1_1  and  C1_5 
REMARK    2  A    between atoms: C1_5  and  C2_6 
REMARK    3  A    between atoms: C1_5  and  C3_13 
ROOT
HETATM    1  C1  UNL     1      24.626  11.807  26.798  1.00  0.00     0.283 C 
ENDROOT
BRANCH   1   2
HETATM    2  N1  UNL     1      25.333  11.656  28.055  1.00  0.00    -0.066 N 
ATOM      3  H13 UNL     1      26.341  11.607  27.907  1.00  0.00     0.275 HD
ATOM      4  H12 UNL     1      25.291  12.514  28.606  1.00  0.00     0.275 HD
ATOM      5  H11 UNL     1      25.000  10.857  28.594  1.00  0.00     0.275 HD
ENDBRANCH   1   2
BRANCH   1   6
HETATM    6  C2  UNL     1      25.089  10.847  25.772  1.00  0.00     0.146 A 
HETATM    7  N2  UNL     1      25.153  10.780  24.418  1.00  0.00    -0.272 N 
HETATM    8  N3  UNL     1      25.693   9.595  24.452  1.00  0.00    -0.240 N 
ATOM      9  H2  UNL     1      24.882  11.413  23.666  1.00  0.00     0.190 HD
HETATM   10  N4  UNL     1      25.654   9.612  25.765  1.00  0.00    -0.272 N 
ATOM     11  H3  UNL     1      26.013   8.929  23.749  1.00  0.00     0.208 HD
ATOM     12  H4  UNL     1      25.936   8.955  26.493  1.00  0.00     0.190 HD
ENDBRANCH   1   6
BRANCH   1  13
HETATM   13  C3  UNL     1      23.174  11.548  27.054  1.00  0.00     0.223 C 
HETATM   14  C4  UNL     1      22.957  10.467  28.100  1.00  0.00     0.037 C 
HETATM   15  C5  UNL     1      21.474  10.659  28.393  1.00  0.00     0.029 C 
HETATM   16  C6  UNL     1      21.291  12.142  28.220  1.00  0.00     0.233 C 
HETATM   17  N5  UNL     1      22.519  12.679  27.707  1.00  0.00    -0.069 N 
ATOM     18  H52 UNL     1      23.094  13.144  28.409  1.00  0.00     0.277 HD
ATOM     19  H51 UNL     1      22.396  13.492  27.103  1.00  0.00     0.277 HD
ENDBRANCH   1  13
TORSDOF 3
ENDMDL
