MODEL 1
REMARK VINA RESULT: -2.844819088      0.000      0.000
REMARK  2 active torsions:
REMARK  status: ('A' for Active; 'I' for Inactive)
REMARK    1  A    between atoms: N3_4  and  N4_6 
REMARK    2  A    between atoms: C5_11  and  N5_12 
ROOT
HETATM    1  N4  UNL     1      22.966  11.543  28.019  1.00  0.00    -0.307 N 
ATOM      2  H4  UNL     1      23.614  11.271  28.759  1.00  0.00     0.186 HD
HETATM    3  C2  UNL     1      23.429  11.956  26.901  1.00  0.00     0.005 C 
HETATM    4  C3  UNL     1      22.619  12.386  25.741  1.00  0.00     0.056 C 
HETATM    5  C4  UNL     1      23.625  12.777  24.663  1.00  0.00     0.039 C 
HETATM    6  C5  UNL     1      24.799  11.889  25.020  1.00  0.00     0.189 C 
HETATM    7  C6  UNL     1      24.857  12.092  26.537  1.00  0.00     0.086 C 
ENDROOT
BRANCH   1   8
HETATM    8  N3  UNL     1      21.589  11.458  28.246  1.00  0.00    -0.276 N 
HETATM    9  C1  UNL     1      21.099  10.345  28.662  1.00  0.00     0.215 C 
HETATM   10  N1  UNL     1      21.911   9.216  28.891  1.00  0.00    -0.065 NA
HETATM   11  N2  UNL     1      19.702  10.266  28.890  1.00  0.00    -0.065 NA
ATOM     12  H3  UNL     1      20.985  12.264  28.086  1.00  0.00     0.189 HD
ENDBRANCH   1   8
BRANCH   6  13
HETATM   13  N5  UNL     1      26.006  12.366  24.377  1.00  0.00    -0.075 N 
ATOM     14  H53 UNL     1      26.332  13.243  24.785  1.00  0.00     0.274 HD
ATOM     15  H52 UNL     1      26.813  11.785  24.604  1.00  0.00     0.274 HD
ATOM     16  H51 UNL     1      25.864  12.445  23.370  1.00  0.00     0.274 HD
ENDBRANCH   6  13
TORSDOF 2
ENDMDL
MODEL 2
REMARK VINA RESULT: -2.730677620      1.845      2.423
REMARK  2 active torsions:
REMARK  status: ('A' for Active; 'I' for Inactive)
REMARK    1  A    between atoms: N3_4  and  N4_6 
REMARK    2  A    between atoms: C5_11  and  N5_12 
ROOT
HETATM    1  N4  UNL     1      21.102  11.054  28.140  1.00  0.00    -0.307 N 
ATOM      2  H4  UNL     1      20.885  10.088  28.387  1.00  0.00     0.186 HD
HETATM    3  C2  UNL     1      22.300  11.366  27.822  1.00  0.00     0.005 C 
HETATM    4  C3  UNL     1      22.766  12.718  27.446  1.00  0.00     0.056 C 
HETATM    5  C4  UNL     1      24.255  12.570  27.153  1.00  0.00     0.039 C 
HETATM    6  C5  UNL     1      24.324  11.128  26.697  1.00  0.00     0.189 C 
HETATM    7  C6  UNL     1      23.462  10.451  27.766  1.00  0.00     0.086 C 
ENDROOT
BRANCH   1   8
HETATM    8  N3  UNL     1      20.083  12.012  28.158  1.00  0.00    -0.276 N 
HETATM    9  C1  UNL     1      18.903  11.653  28.517  1.00  0.00     0.215 C 
HETATM   10  N1  UNL     1      18.613  10.326  28.890  1.00  0.00    -0.065 NA
HETATM   11  N2  UNL     1      17.876  12.630  28.532  1.00  0.00    -0.065 NA
ATOM     12  H3  UNL     1      20.274  12.978  27.890  1.00  0.00     0.189 HD
ENDBRANCH   1   8
BRANCH   6  13
HETATM   13  N5  UNL     1      25.690  10.649  26.740  1.00  0.00    -0.075 N 
ATOM     14  H53 UNL     1      26.332  11.289  26.271  1.00  0.00     0.274 HD
ATOM     15  H52 UNL     1      26.083  10.704  27.680  1.00  0.00     0.274 HD
ATOM     16  H51 UNL     1      25.748   9.705  26.358  1.00  0.00     0.274 HD
ENDBRANCH   6  13
TORSDOF 2
ENDMDL
MODEL 3
REMARK VINA RESULT: -2.296727731      1.876      2.584
REMARK  2 active torsions:
REMARK  status: ('A' for Active; 'I' for Inactive)
REMARK    1  A    between atoms: N3_4  and  N4_6 
REMARK    2  A    between atoms: C5_11  and  N5_12 
ROOT
HETATM    1  N4  UNL     1      24.504  10.324  27.908  1.00  0.00    -0.307 N 
ATOM      2  H4  UNL     1      24.352  11.048  28.609  1.00  0.00     0.186 HD
HETATM    3  C2  UNL     1      24.801  10.661  26.711  1.00  0.00     0.005 C 
HETATM    4  C3  UNL     1      25.047   9.728  25.590  1.00  0.00     0.056 C 
HETATM    5  C4  UNL     1      25.366  10.611  24.388  1.00  0.00     0.039 C 
HETATM    6  C5  UNL     1      25.964  11.826  25.066  1.00  0.00     0.189 C 
HETATM    7  C6  UNL     1      24.959  12.041  26.200  1.00  0.00     0.086 C 
ENDROOT
BRANCH   1   8
HETATM    8  N3  UNL     1      24.382   8.979  28.273  1.00  0.00    -0.276 N 
HETATM    9  C1  UNL     1      23.213   8.509  28.522  1.00  0.00     0.215 C 
HETATM   10  N1  UNL     1      22.057   9.312  28.436  1.00  0.00    -0.065 NA
HETATM   11  N2  UNL     1      23.097   7.145  28.891  1.00  0.00    -0.065 NA
ATOM     12  H3  UNL     1      25.207   8.382  28.341  1.00  0.00     0.189 HD
ENDBRANCH   1   8
BRANCH   6  13
HETATM   13  N5  UNL     1      25.981  12.954  24.156  1.00  0.00    -0.075 N 
ATOM     14  H53 UNL     1      25.485  12.749  23.288  1.00  0.00     0.274 HD
ATOM     15  H52 UNL     1      25.396  13.719  24.488  1.00  0.00     0.274 HD
ATOM     16  H51 UNL     1      26.941  13.255  23.983  1.00  0.00     0.274 HD
ENDBRANCH   6  13
TORSDOF 2
ENDMDL
MODEL 4
REMARK VINA RESULT: -2.296190527     10.643     11.361
REMARK  2 active torsions:
REMARK  status: ('A' for Active; 'I' for Inactive)
REMARK    1  A    between atoms: N3_4  and  N4_6 
REMARK    2  A    between atoms: C5_11  and  N5_12 
ROOT
HETATM    1  N4  UNL     1      17.098   6.833  18.798  1.00  0.00    -0.307 N 
ATOM      2  H4  UNL     1      16.741   6.649  17.860  1.00  0.00     0.186 HD
HETATM    3  C2  UNL     1      17.576   5.868  19.488  1.00  0.00     0.005 C 
HETATM    4  C3  UNL     1      18.125   5.978  20.856  1.00  0.00     0.056 C 
HETATM    5  C4  UNL     1      18.567   4.568  21.233  1.00  0.00     0.039 C 
HETATM    6  C5  UNL     1      18.894   3.989  19.873  1.00  0.00     0.189 C 
HETATM    7  C6  UNL     1      17.677   4.452  19.068  1.00  0.00     0.086 C 
ENDROOT
BRANCH   1   8
HETATM    8  N3  UNL     1      17.056   8.135  19.306  1.00  0.00    -0.276 N 
HETATM    9  C1  UNL     1      16.237   8.976  18.783  1.00  0.00     0.215 C 
HETATM   10  N1  UNL     1      15.386   8.619  17.717  1.00  0.00    -0.065 NA
HETATM   11  N2  UNL     1      16.199  10.294  19.302  1.00  0.00    -0.065 NA
ATOM     12  H3  UNL     1      17.664   8.413  20.076  1.00  0.00     0.189 HD
ENDBRANCH   1   8
BRANCH   6  13
HETATM   13  N5  UNL     1      18.959   2.543  19.944  1.00  0.00    -0.075 N 
ATOM     14  H53 UNL     1      19.772   2.225  20.472  1.00  0.00     0.274 HD
ATOM     15  H52 UNL     1      18.229   2.158  20.543  1.00  0.00     0.274 HD
ATOM     16  H51 UNL     1      18.934   2.140  19.006  1.00  0.00     0.274 HD
ENDBRANCH   6  13
TORSDOF 2
ENDMDL
MODEL 5
REMARK VINA RESULT: -2.283346179      2.147      4.932
REMARK  2 active torsions:
REMARK  status: ('A' for Active; 'I' for Inactive)
REMARK    1  A    between atoms: N3_4  and  N4_6 
REMARK    2  A    between atoms: C5_11  and  N5_12 
ROOT
HETATM    1  N4  UNL     1      23.726  11.716  27.140  1.00  0.00    -0.307 N 
ATOM      2  H4  UNL     1      24.088  12.608  26.802  1.00  0.00     0.186 HD
HETATM    3  C2  UNL     1      22.596  11.683  27.737  1.00  0.00     0.005 C 
HETATM    4  C3  UNL     1      21.946  10.472  28.282  1.00  0.00     0.056 C 
HETATM    5  C4  UNL     1      20.629  10.952  28.883  1.00  0.00     0.039 C 
HETATM    6  C5  UNL     1      20.337  12.164  28.024  1.00  0.00     0.189 C 
HETATM    7  C6  UNL     1      21.711  12.838  28.009  1.00  0.00     0.086 C 
ENDROOT
BRANCH   1   8
HETATM    8  N3  UNL     1      24.475  10.552  26.941  1.00  0.00    -0.276 N 
HETATM    9  C1  UNL     1      25.272  10.494  25.935  1.00  0.00     0.215 C 
HETATM   10  N1  UNL     1      25.407  11.568  25.032  1.00  0.00    -0.065 NA
HETATM   11  N2  UNL     1      26.028   9.311  25.740  1.00  0.00    -0.065 NA
ATOM     12  H3  UNL     1      24.391   9.764  27.583  1.00  0.00     0.189 HD
ENDBRANCH   1   8
BRANCH   6  13
HETATM   13  N5  UNL     1      19.343  13.005  28.660  1.00  0.00    -0.075 N 
ATOM     14  H53 UNL     1      18.606  12.455  29.100  1.00  0.00     0.274 HD
ATOM     15  H52 UNL     1      19.710  13.462  29.495  1.00  0.00     0.274 HD
ATOM     16  H51 UNL     1      18.968  13.678  27.991  1.00  0.00     0.274 HD
ENDBRANCH   6  13
TORSDOF 2
ENDMDL
