MODEL 1
REMARK VINA RESULT: -9.187713722      0.000      0.000
REMARK  14 active torsions:
REMARK  status: ('A' for Active; 'I' for Inactive)
REMARK       I    between atoms: C1_4  and  N3_6 
REMARK    1  A    between atoms: N3_6  and  C2_8 
REMARK    2  A    between atoms: C2_8  and  C3_9 
REMARK    3  A    between atoms: C3_9  and  C4_10 
REMARK    4  A    between atoms: C4_10  and  C5_11 
REMARK    5  A    between atoms: C5_11  and  N4_12 
REMARK    6  A    between atoms: C5_11  and  C32_48 
REMARK       I    between atoms: N4_12  and  C6_14 
REMARK    7  A    between atoms: C6_14  and  C7_16 
REMARK    8  A    between atoms: C7_16  and  C8_17 
REMARK    9  A    between atoms: C7_16  and  N6_38 
REMARK   10  A    between atoms: C8_17  and  C9_18 
REMARK   11  A    between atoms: C9_18  and  C10_19 
REMARK   12  A    between atoms: C10_19  and  N5_20 
REMARK       I    between atoms: N6_38  and  C26_40 
REMARK   13  A    between atoms: C26_40  and  C27_42 
REMARK   14  A    between atoms: C27_42  and  C28_43 
ROOT
HETATM    1  C7  UNL     1      15.539  20.357   5.464  1.00  0.00     0.176 C 
ENDROOT
BRANCH   1   2
HETATM    2  C6  UNL     1      15.916  19.069   4.865  1.00  0.00     0.241 C 
HETATM    3  N4  UNL     1      17.245  18.715   4.608  1.00  0.00    -0.345 N 
ATOM      4  H4  UNL     1      18.007  19.354   4.835  1.00  0.00     0.163 HD
HETATM    5  O1  UNL     1      14.964  18.262   4.580  1.00  0.00    -0.271 OA
BRANCH   3   6
HETATM    6  C5  UNL     1      17.528  17.367   3.990  1.00  0.00     0.185 C 
BRANCH   6   7
HETATM    7  C4  UNL     1      18.724  16.874   4.705  1.00  0.00     0.038 C 
BRANCH   7   8
HETATM    8  C3  UNL     1      18.731  15.704   5.566  1.00  0.00     0.022 C 
BRANCH   8   9
HETATM    9  C2  UNL     1      19.522  14.501   5.198  1.00  0.00     0.122 C 
BRANCH   9  10
HETATM   10  N3  UNL     1      20.471  14.857   4.125  1.00  0.00    -0.365 N 
HETATM   11  C1  UNL     1      21.849  14.855   4.458  1.00  0.00     0.181 C 
HETATM   12  N1  UNL     1      22.413  15.812   5.106  1.00  0.00    -0.374 N 
HETATM   13  N2  UNL     1      22.663  13.752   4.069  1.00  0.00    -0.064 NA
ATOM     14  H12 UNL     1      23.405  15.811   5.347  1.00  0.00     0.158 HD
ATOM     15  H11 UNL     1      21.831  16.602   5.385  1.00  0.00     0.158 HD
ATOM     16  H3  UNL     1      20.150  15.093   3.186  1.00  0.00     0.162 HD
ENDBRANCH   9  10
ENDBRANCH   8   9
ENDBRANCH   7   8
ENDBRANCH   6   7
BRANCH   6  17
HETATM   17  C32 UNL     1      17.766  17.612   2.558  1.00  0.00     0.196 C 
HETATM   18  O5  UNL     1      18.248  18.753   2.267  1.00  0.00    -0.646 OA
HETATM   19  O6  UNL     1      17.512  16.740   1.532  1.00  0.00    -0.646 OA
ENDBRANCH   6  17
ENDBRANCH   3   6
ENDBRANCH   1   2
BRANCH   1  20
HETATM   20  C8  UNL     1      14.074  20.702   5.094  1.00  0.00     0.036 C 
BRANCH  20  21
HETATM   21  C9  UNL     1      14.054  21.678   3.977  1.00  0.00     0.033 C 
BRANCH  21  22
HETATM   22  C10 UNL     1      12.793  22.411   3.776  1.00  0.00     0.272 C 
BRANCH  22  23
HETATM   23  N5  UNL     1      12.407  23.297   4.809  1.00  0.00     0.092 N 
HETATM   24  C11 UNL     1      10.925  23.583   4.669  1.00  0.00     0.298 C 
HETATM   25  C12 UNL     1      10.560  23.807   3.255  1.00  0.00     0.198 C 
HETATM   26  O2  UNL     1       9.335  24.356   3.029  1.00  0.00    -0.389 OA
HETATM   27  C13 UNL     1       8.701  24.984   4.056  1.00  0.00     0.167 C 
HETATM   28  C14 UNL     1       8.947  26.474   4.108  1.00  0.00     0.026 C 
HETATM   29  C15 UNL     1       7.703  27.273   4.302  1.00  0.00     0.002 C 
HETATM   30  C16 UNL     1       6.993  26.966   5.624  1.00  0.00     0.000 C 
HETATM   31  C17 UNL     1       7.525  27.795   6.739  1.00  0.00     0.000 C 
HETATM   32  C18 UNL     1       7.490  27.195   8.094  1.00  0.00     0.000 C 
HETATM   33  C19 UNL     1       7.743  25.740   8.200  1.00  0.00     0.000 C 
HETATM   34  C20 UNL     1       8.602  25.307   9.348  1.00  0.00     0.000 C 
HETATM   35  C21 UNL     1       9.999  25.816   9.342  1.00  0.00     0.002 C 
HETATM   36  C22 UNL     1      10.538  26.249   8.025  1.00  0.00     0.026 C 
HETATM   37  C23 UNL     1      12.016  25.885   7.826  1.00  0.00     0.167 C 
HETATM   38  O3  UNL     1      12.336  26.050   6.470  1.00  0.00    -0.389 OA
HETATM   39  C24 UNL     1      13.362  25.207   6.067  1.00  0.00     0.198 C 
HETATM   40  C25 UNL     1      13.035  24.620   4.736  1.00  0.00     0.298 C 
ENDBRANCH  22  23
ENDBRANCH  21  22
ENDBRANCH  20  21
ENDBRANCH   1  20
BRANCH   1  41
HETATM   41  N6  UNL     1      15.617  20.340   6.896  1.00  0.00    -0.348 N 
HETATM   42  C26 UNL     1      15.827  21.540   7.626  1.00  0.00     0.222 C 
HETATM   43  O4  UNL     1      15.947  22.625   7.008  1.00  0.00    -0.273 OA
ATOM     44  H6  UNL     1      15.520  19.456   7.396  1.00  0.00     0.163 HD
BRANCH  42  45
HETATM   45  C27 UNL     1      15.912  21.553   9.102  1.00  0.00     0.141 C 
BRANCH  45  46
HETATM   46  C28 UNL     1      16.744  20.371   9.582  1.00  0.00    -0.043 A 
HETATM   47  C29 UNL     1      16.191  19.301  10.177  1.00  0.00     0.015 A 
HETATM   48  C30 UNL     1      17.031  18.296  10.567  1.00  0.00     0.050 A 
HETATM   49  S1  UNL     1      18.563  18.869  10.097  1.00  0.00    -0.113 SA
HETATM   50  C31 UNL     1      18.104  20.362   9.418  1.00  0.00     0.057 A 
ENDBRANCH  45  46
ENDBRANCH  42  45
ENDBRANCH   1  41
TORSDOF 14
ENDMDL
MODEL 2
REMARK VINA RESULT: -9.129905414      1.273      1.551
REMARK  14 active torsions:
REMARK  status: ('A' for Active; 'I' for Inactive)
REMARK       I    between atoms: C1_4  and  N3_6 
REMARK    1  A    between atoms: N3_6  and  C2_8 
REMARK    2  A    between atoms: C2_8  and  C3_9 
REMARK    3  A    between atoms: C3_9  and  C4_10 
REMARK    4  A    between atoms: C4_10  and  C5_11 
REMARK    5  A    between atoms: C5_11  and  N4_12 
REMARK    6  A    between atoms: C5_11  and  C32_48 
REMARK       I    between atoms: N4_12  and  C6_14 
REMARK    7  A    between atoms: C6_14  and  C7_16 
REMARK    8  A    between atoms: C7_16  and  C8_17 
REMARK    9  A    between atoms: C7_16  and  N6_38 
REMARK   10  A    between atoms: C8_17  and  C9_18 
REMARK   11  A    between atoms: C9_18  and  C10_19 
REMARK   12  A    between atoms: C10_19  and  N5_20 
REMARK       I    between atoms: N6_38  and  C26_40 
REMARK   13  A    between atoms: C26_40  and  C27_42 
REMARK   14  A    between atoms: C27_42  and  C28_43 
ROOT
HETATM    1  C7  UNL     1      15.559  20.260   5.409  1.00  0.00     0.176 C 
ENDROOT
BRANCH   1   2
HETATM    2  C6  UNL     1      16.028  19.005   4.803  1.00  0.00     0.241 C 
HETATM    3  N4  UNL     1      17.356  18.807   4.408  1.00  0.00    -0.345 N 
ATOM      4  H4  UNL     1      18.051  19.543   4.533  1.00  0.00     0.163 HD
HETATM    5  O1  UNL     1      15.160  18.079   4.644  1.00  0.00    -0.271 OA
BRANCH   3   6
HETATM    6  C5  UNL     1      17.738  17.482   3.795  1.00  0.00     0.185 C 
BRANCH   6   7
HETATM    7  C4  UNL     1      19.091  17.206   4.319  1.00  0.00     0.038 C 
BRANCH   7   8
HETATM    8  C3  UNL     1      19.514  15.916   4.838  1.00  0.00     0.022 C 
BRANCH   8   9
HETATM    9  C2  UNL     1      18.782  15.278   5.963  1.00  0.00     0.122 C 
BRANCH   9  10
HETATM   10  N3  UNL     1      18.700  16.231   7.087  1.00  0.00    -0.365 N 
HETATM   11  C1  UNL     1      19.113  15.761   8.359  1.00  0.00     0.181 C 
HETATM   12  N1  UNL     1      18.377  15.011   9.102  1.00  0.00    -0.374 N 
HETATM   13  N2  UNL     1      20.399  16.123   8.857  1.00  0.00    -0.064 NA
ATOM     14  H12 UNL     1      18.675  14.673  10.017  1.00  0.00     0.158 HD
ATOM     15  H11 UNL     1      17.457  14.752   8.746  1.00  0.00     0.158 HD
ATOM     16  H3  UNL     1      18.361  17.183   6.955  1.00  0.00     0.162 HD
ENDBRANCH   9  10
ENDBRANCH   8   9
ENDBRANCH   7   8
ENDBRANCH   6   7
BRANCH   6  17
HETATM   17  C32 UNL     1      17.708  17.679   2.336  1.00  0.00     0.196 C 
HETATM   18  O5  UNL     1      18.027  18.842   1.931  1.00  0.00    -0.646 OA
HETATM   19  O6  UNL     1      17.365  16.742   1.397  1.00  0.00    -0.646 OA
ENDBRANCH   6  17
ENDBRANCH   3   6
ENDBRANCH   1   2
BRANCH   1  20
HETATM   20  C8  UNL     1      14.105  20.553   4.956  1.00  0.00     0.036 C 
BRANCH  20  21
HETATM   21  C9  UNL     1      14.102  21.648   3.957  1.00  0.00     0.033 C 
BRANCH  21  22
HETATM   22  C10 UNL     1      12.826  22.359   3.774  1.00  0.00     0.272 C 
BRANCH  22  23
HETATM   23  N5  UNL     1      12.444  23.246   4.809  1.00  0.00     0.092 N 
HETATM   24  C11 UNL     1      10.966  23.550   4.661  1.00  0.00     0.298 C 
HETATM   25  C12 UNL     1      10.613  23.784   3.246  1.00  0.00     0.198 C 
HETATM   26  O2  UNL     1       9.395  24.349   3.015  1.00  0.00    -0.389 OA
HETATM   27  C13 UNL     1       8.763  24.980   4.040  1.00  0.00     0.167 C 
HETATM   28  C14 UNL     1       9.027  26.467   4.100  1.00  0.00     0.026 C 
HETATM   29  C15 UNL     1       7.791  27.280   4.290  1.00  0.00     0.002 C 
HETATM   30  C16 UNL     1       7.070  26.976   5.606  1.00  0.00     0.000 C 
HETATM   31  C17 UNL     1       7.605  27.794   6.728  1.00  0.00     0.000 C 
HETATM   32  C18 UNL     1       7.554  27.189   8.080  1.00  0.00     0.000 C 
HETATM   33  C19 UNL     1       7.790  25.731   8.182  1.00  0.00     0.000 C 
HETATM   34  C20 UNL     1       8.636  25.283   9.333  1.00  0.00     0.000 C 
HETATM   35  C21 UNL     1      10.039  25.775   9.338  1.00  0.00     0.002 C 
HETATM   36  C22 UNL     1      10.591  26.207   8.026  1.00  0.00     0.026 C 
HETATM   37  C23 UNL     1      12.066  25.826   7.834  1.00  0.00     0.167 C 
HETATM   38  O3  UNL     1      12.396  25.992   6.481  1.00  0.00    -0.389 OA
HETATM   39  C24 UNL     1      13.414  25.138   6.080  1.00  0.00     0.198 C 
HETATM   40  C25 UNL     1      13.088  24.561   4.745  1.00  0.00     0.298 C 
ENDBRANCH  22  23
ENDBRANCH  21  22
ENDBRANCH  20  21
ENDBRANCH   1  20
BRANCH   1  41
HETATM   41  N6  UNL     1      15.548  20.205   6.843  1.00  0.00    -0.348 N 
HETATM   42  C26 UNL     1      15.642  21.394   7.614  1.00  0.00     0.222 C 
HETATM   43  O4  UNL     1      15.736  22.502   7.033  1.00  0.00    -0.273 OA
ATOM     44  H6  UNL     1      15.473  19.303   7.313  1.00  0.00     0.163 HD
BRANCH  42  45
HETATM   45  C27 UNL     1      15.634  21.370   9.093  1.00  0.00     0.141 C 
BRANCH  45  46
HETATM   46  C28 UNL     1      16.609  20.313   9.596  1.00  0.00    -0.043 A 
HETATM   47  C29 UNL     1      16.194  19.196  10.216  1.00  0.00     0.015 A 
HETATM   48  C30 UNL     1      17.155  18.314  10.627  1.00  0.00     0.050 A 
HETATM   49  S1  UNL     1      18.602  19.065  10.140  1.00  0.00    -0.113 SA
HETATM   50  C31 UNL     1      17.958  20.472   9.429  1.00  0.00     0.057 A 
ENDBRANCH  45  46
ENDBRANCH  42  45
ENDBRANCH   1  41
TORSDOF 14
ENDMDL
MODEL 3
REMARK VINA RESULT: -9.044740280      2.074      3.138
REMARK  14 active torsions:
REMARK  status: ('A' for Active; 'I' for Inactive)
REMARK       I    between atoms: C1_4  and  N3_6 
REMARK    1  A    between atoms: N3_6  and  C2_8 
REMARK    2  A    between atoms: C2_8  and  C3_9 
REMARK    3  A    between atoms: C3_9  and  C4_10 
REMARK    4  A    between atoms: C4_10  and  C5_11 
REMARK    5  A    between atoms: C5_11  and  N4_12 
REMARK    6  A    between atoms: C5_11  and  C32_48 
REMARK       I    between atoms: N4_12  and  C6_14 
REMARK    7  A    between atoms: C6_14  and  C7_16 
REMARK    8  A    between atoms: C7_16  and  C8_17 
REMARK    9  A    between atoms: C7_16  and  N6_38 
REMARK   10  A    between atoms: C8_17  and  C9_18 
REMARK   11  A    between atoms: C9_18  and  C10_19 
REMARK   12  A    between atoms: C10_19  and  N5_20 
REMARK       I    between atoms: N6_38  and  C26_40 
REMARK   13  A    between atoms: C26_40  and  C27_42 
REMARK   14  A    between atoms: C27_42  and  C28_43 
ROOT
HETATM    1  C7  UNL     1      16.218  20.451   6.004  1.00  0.00     0.176 C 
ENDROOT
BRANCH   1   2
HETATM    2  C6  UNL     1      17.251  19.559   5.456  1.00  0.00     0.241 C 
HETATM    3  N4  UNL     1      17.443  18.253   5.920  1.00  0.00    -0.345 N 
ATOM      4  H4  UNL     1      16.860  17.875   6.666  1.00  0.00     0.163 HD
HETATM    5  O1  UNL     1      17.984  20.029   4.519  1.00  0.00    -0.271 OA
BRANCH   3   6
HETATM    6  C5  UNL     1      18.531  17.416   5.292  1.00  0.00     0.185 C 
BRANCH   6   7
HETATM    7  C4  UNL     1      17.890  16.796   4.114  1.00  0.00     0.038 C 
BRANCH   7   8
HETATM    8  C3  UNL     1      18.388  16.923   2.755  1.00  0.00     0.022 C 
BRANCH   8   9
HETATM    9  C2  UNL     1      17.482  17.346   1.656  1.00  0.00     0.122 C 
BRANCH   9  10
HETATM   10  N3  UNL     1      16.962  18.695   1.951  1.00  0.00    -0.365 N 
HETATM   11  C1  UNL     1      15.781  19.091   1.276  1.00  0.00     0.181 C 
HETATM   12  N1  UNL     1      15.774  19.491   0.052  1.00  0.00    -0.374 N 
HETATM   13  N2  UNL     1      14.533  19.052   1.962  1.00  0.00    -0.064 NA
ATOM     14  H12 UNL     1      14.924  19.776  -0.434  1.00  0.00     0.158 HD
ATOM     15  H11 UNL     1      16.667  19.520  -0.440  1.00  0.00     0.158 HD
ATOM     16  H3  UNL     1      17.432  19.314   2.612  1.00  0.00     0.162 HD
ENDBRANCH   9  10
ENDBRANCH   8   9
ENDBRANCH   7   8
ENDBRANCH   6   7
BRANCH   6  17
HETATM   17  C32 UNL     1      18.941  16.438   6.313  1.00  0.00     0.196 C 
HETATM   18  O5  UNL     1      19.667  16.896   7.253  1.00  0.00    -0.646 OA
HETATM   19  O6  UNL     1      18.624  15.106   6.335  1.00  0.00    -0.646 OA
ENDBRANCH   6  17
ENDBRANCH   3   6
ENDBRANCH   1   2
BRANCH   1  20
HETATM   20  C8  UNL     1      14.893  20.267   5.220  1.00  0.00     0.036 C 
BRANCH  20  21
HETATM   21  C9  UNL     1      14.495  21.553   4.598  1.00  0.00     0.033 C 
BRANCH  21  22
HETATM   22  C10 UNL     1      13.054  21.856   4.597  1.00  0.00     0.272 C 
BRANCH  22  23
HETATM   23  N5  UNL     1      12.624  22.876   5.479  1.00  0.00     0.092 N 
HETATM   24  C11 UNL     1      11.177  23.204   5.166  1.00  0.00     0.298 C 
HETATM   25  C12 UNL     1      10.953  23.270   3.707  1.00  0.00     0.198 C 
HETATM   26  O2  UNL     1       9.782  23.838   3.303  1.00  0.00    -0.389 OA
HETATM   27  C13 UNL     1       9.093  24.610   4.185  1.00  0.00     0.167 C 
HETATM   28  C14 UNL     1       9.411  26.085   4.087  1.00  0.00     0.026 C 
HETATM   29  C15 UNL     1       8.197  26.951   4.067  1.00  0.00     0.002 C 
HETATM   30  C16 UNL     1       7.357  26.835   5.342  1.00  0.00     0.000 C 
HETATM   31  C17 UNL     1       7.829  27.770   6.398  1.00  0.00     0.000 C 
HETATM   32  C18 UNL     1       7.641  27.340   7.805  1.00  0.00     0.000 C 
HETATM   33  C19 UNL     1       7.808  25.899   8.103  1.00  0.00     0.000 C 
HETATM   34  C20 UNL     1       8.537  25.574   9.370  1.00  0.00     0.000 C 
HETATM   35  C21 UNL     1       9.953  26.020   9.438  1.00  0.00     0.002 C 
HETATM   36  C22 UNL     1      10.630  26.269   8.137  1.00  0.00     0.026 C 
HETATM   37  C23 UNL     1      12.099  25.823   8.123  1.00  0.00     0.167 C 
HETATM   38  O3  UNL     1      12.547  25.809   6.794  1.00  0.00    -0.389 OA
HETATM   39  C24 UNL     1      13.560  24.883   6.591  1.00  0.00     0.198 C 
HETATM   40  C25 UNL     1      13.323  24.153   5.313  1.00  0.00     0.298 C 
ENDBRANCH  22  23
ENDBRANCH  21  22
ENDBRANCH  20  21
ENDBRANCH   1  20
BRANCH   1  41
HETATM   41  N6  UNL     1      15.932  20.177   7.383  1.00  0.00    -0.348 N 
HETATM   42  C26 UNL     1      16.394  21.046   8.406  1.00  0.00     0.222 C 
HETATM   43  O4  UNL     1      17.062  22.063   8.099  1.00  0.00    -0.273 OA
ATOM     44  H6  UNL     1      15.390  19.349   7.630  1.00  0.00     0.163 HD
BRANCH  42  45
HETATM   45  C27 UNL     1      16.116  20.790   9.836  1.00  0.00     0.141 C 
BRANCH  45  46
HETATM   46  C28 UNL     1      16.953  19.613  10.321  1.00  0.00    -0.043 A 
HETATM   47  C29 UNL     1      18.266  19.728  10.579  1.00  0.00     0.015 A 
HETATM   48  C30 UNL     1      18.921  18.609  11.010  1.00  0.00     0.050 A 
HETATM   49  S1  UNL     1      17.692  17.431  11.042  1.00  0.00    -0.113 SA
HETATM   50  C31 UNL     1      16.383  18.383  10.512  1.00  0.00     0.057 A 
ENDBRANCH  45  46
ENDBRANCH  42  45
ENDBRANCH   1  41
TORSDOF 14
ENDMDL
MODEL 4
REMARK VINA RESULT: -9.008859120      3.850      7.174
REMARK  14 active torsions:
REMARK  status: ('A' for Active; 'I' for Inactive)
REMARK       I    between atoms: C1_4  and  N3_6 
REMARK    1  A    between atoms: N3_6  and  C2_8 
REMARK    2  A    between atoms: C2_8  and  C3_9 
REMARK    3  A    between atoms: C3_9  and  C4_10 
REMARK    4  A    between atoms: C4_10  and  C5_11 
REMARK    5  A    between atoms: C5_11  and  N4_12 
REMARK    6  A    between atoms: C5_11  and  C32_48 
REMARK       I    between atoms: N4_12  and  C6_14 
REMARK    7  A    between atoms: C6_14  and  C7_16 
REMARK    8  A    between atoms: C7_16  and  C8_17 
REMARK    9  A    between atoms: C7_16  and  N6_38 
REMARK   10  A    between atoms: C8_17  and  C9_18 
REMARK   11  A    between atoms: C9_18  and  C10_19 
REMARK   12  A    between atoms: C10_19  and  N5_20 
REMARK       I    between atoms: N6_38  and  C26_40 
REMARK   13  A    between atoms: C26_40  and  C27_42 
REMARK   14  A    between atoms: C27_42  and  C28_43 
ROOT
HETATM    1  C7  UNL     1      11.210  24.364   4.686  1.00  0.00     0.176 C 
ENDROOT
BRANCH   1   2
HETATM    2  C6  UNL     1      12.640  24.164   4.963  1.00  0.00     0.241 C 
HETATM    3  N4  UNL     1      13.191  22.904   5.216  1.00  0.00    -0.345 N 
ATOM      4  H4  UNL     1      12.605  22.069   5.213  1.00  0.00     0.163 HD
HETATM    5  O1  UNL     1      13.380  25.208   4.966  1.00  0.00    -0.271 OA
BRANCH   3   6
HETATM    6  C5  UNL     1      14.672  22.805   5.490  1.00  0.00     0.185 C 
BRANCH   6   7
HETATM    7  C4  UNL     1      15.253  22.314   4.223  1.00  0.00     0.038 C 
BRANCH   7   8
HETATM    8  C3  UNL     1      14.568  21.420   3.306  1.00  0.00     0.022 C 
BRANCH   8   9
HETATM    9  C2  UNL     1      14.938  19.982   3.238  1.00  0.00     0.122 C 
BRANCH   9  10
HETATM   10  N3  UNL     1      16.298  19.806   3.785  1.00  0.00    -0.365 N 
HETATM   11  C1  UNL     1      16.998  18.634   3.404  1.00  0.00     0.181 C 
HETATM   12  N1  UNL     1      16.771  17.481   3.929  1.00  0.00    -0.374 N 
HETATM   13  N2  UNL     1      18.001  18.713   2.395  1.00  0.00    -0.064 NA
ATOM     14  H12 UNL     1      17.275  16.637   3.654  1.00  0.00     0.158 HD
ATOM     15  H11 UNL     1      16.053  17.424   4.651  1.00  0.00     0.158 HD
ATOM     16  H3  UNL     1      16.714  20.497   4.409  1.00  0.00     0.162 HD
ENDBRANCH   9  10
ENDBRANCH   8   9
ENDBRANCH   7   8
ENDBRANCH   6   7
BRANCH   6  17
HETATM   17  C32 UNL     1      14.822  21.854   6.605  1.00  0.00     0.196 C 
HETATM   18  O5  UNL     1      15.868  21.129   6.574  1.00  0.00    -0.646 OA
HETATM   19  O6  UNL     1      13.949  21.679   7.646  1.00  0.00    -0.646 OA
ENDBRANCH   6  17
ENDBRANCH   3   6
ENDBRANCH   1   2
BRANCH   1  20
HETATM   20  C8  UNL     1      10.738  23.358   3.603  1.00  0.00     0.036 C 
BRANCH  20  21
HETATM   21  C9  UNL     1       9.861  24.048   2.626  1.00  0.00     0.033 C 
BRANCH  21  22
HETATM   22  C10 UNL     1       8.443  23.654   2.634  1.00  0.00     0.272 C 
BRANCH  22  23
HETATM   23  N5  UNL     1       7.562  24.484   3.368  1.00  0.00     0.092 N 
HETATM   24  C11 UNL     1       6.149  24.238   2.877  1.00  0.00     0.298 C 
HETATM   25  C12 UNL     1       6.108  24.146   1.403  1.00  0.00     0.198 C 
HETATM   26  O2  UNL     1       4.875  24.221   0.829  1.00  0.00    -0.389 OA
HETATM   27  C13 UNL     1       3.845  24.725   1.558  1.00  0.00     0.167 C 
HETATM   28  C14 UNL     1       3.619  26.207   1.358  1.00  0.00     0.026 C 
HETATM   29  C15 UNL     1       2.188  26.561   1.131  1.00  0.00     0.002 C 
HETATM   30  C16 UNL     1       1.287  26.204   2.318  1.00  0.00     0.000 C 
HETATM   31  C17 UNL     1       1.248  27.297   3.326  1.00  0.00     0.000 C 
HETATM   32  C18 UNL     1       1.046  26.897   4.739  1.00  0.00     0.000 C 
HETATM   33  C19 UNL     1       1.681  25.636   5.186  1.00  0.00     0.000 C 
HETATM   34  C20 UNL     1       2.306  25.664   6.546  1.00  0.00     0.000 C 
HETATM   35  C21 UNL     1       3.444  26.605   6.719  1.00  0.00     0.002 C 
HETATM   36  C22 UNL     1       4.149  27.023   5.478  1.00  0.00     0.026 C 
HETATM   37  C23 UNL     1       5.668  27.152   5.658  1.00  0.00     0.167 C 
HETATM   38  O3  UNL     1       6.261  27.241   4.390  1.00  0.00    -0.389 OA
HETATM   39  C24 UNL     1       7.557  26.745   4.379  1.00  0.00     0.198 C 
HETATM   40  C25 UNL     1       7.769  25.919   3.157  1.00  0.00     0.298 C 
ENDBRANCH  22  23
ENDBRANCH  21  22
ENDBRANCH  20  21
ENDBRANCH   1  20
BRANCH   1  41
HETATM   41  N6  UNL     1      10.391  24.148   5.844  1.00  0.00    -0.348 N 
HETATM   42  C26 UNL     1       9.985  25.237   6.659  1.00  0.00     0.222 C 
HETATM   43  O4  UNL     1      10.348  26.401   6.361  1.00  0.00    -0.273 OA
ATOM     44  H6  UNL     1      10.097  23.200   6.084  1.00  0.00     0.163 HD
BRANCH  42  45
HETATM   45  C27 UNL     1       9.142  25.046   7.858  1.00  0.00     0.141 C 
BRANCH  45  46
HETATM   46  C28 UNL     1       9.060  26.349   8.644  1.00  0.00    -0.043 A 
HETATM   47  C29 UNL     1      10.039  26.746   9.473  1.00  0.00     0.015 A 
HETATM   48  C30 UNL     1       9.862  27.933  10.128  1.00  0.00     0.050 A 
HETATM   49  S1  UNL     1       8.341  28.458   9.573  1.00  0.00    -0.113 SA
HETATM   50  C31 UNL     1       7.968  27.167   8.527  1.00  0.00     0.057 A 
ENDBRANCH  45  46
ENDBRANCH  42  45
ENDBRANCH   1  41
TORSDOF 14
ENDMDL
MODEL 5
REMARK VINA RESULT: -8.948709149      4.704     12.315
REMARK  14 active torsions:
REMARK  status: ('A' for Active; 'I' for Inactive)
REMARK       I    between atoms: C1_4  and  N3_6 
REMARK    1  A    between atoms: N3_6  and  C2_8 
REMARK    2  A    between atoms: C2_8  and  C3_9 
REMARK    3  A    between atoms: C3_9  and  C4_10 
REMARK    4  A    between atoms: C4_10  and  C5_11 
REMARK    5  A    between atoms: C5_11  and  N4_12 
REMARK    6  A    between atoms: C5_11  and  C32_48 
REMARK       I    between atoms: N4_12  and  C6_14 
REMARK    7  A    between atoms: C6_14  and  C7_16 
REMARK    8  A    between atoms: C7_16  and  C8_17 
REMARK    9  A    between atoms: C7_16  and  N6_38 
REMARK   10  A    between atoms: C8_17  and  C9_18 
REMARK   11  A    between atoms: C9_18  and  C10_19 
REMARK   12  A    between atoms: C10_19  and  N5_20 
REMARK       I    between atoms: N6_38  and  C26_40 
REMARK   13  A    between atoms: C26_40  and  C27_42 
REMARK   14  A    between atoms: C27_42  and  C28_43 
ROOT
HETATM    1  C7  UNL     1       9.959  25.466   5.915  1.00  0.00     0.176 C 
ENDROOT
BRANCH   1   2
HETATM    2  C6  UNL     1       9.236  25.969   7.092  1.00  0.00     0.241 C 
HETATM    3  N4  UNL     1       9.380  27.277   7.565  1.00  0.00    -0.345 N 
ATOM      4  H4  UNL     1      10.004  27.935   7.096  1.00  0.00     0.163 HD
HETATM    5  O1  UNL     1       8.451  25.148   7.683  1.00  0.00    -0.271 OA
BRANCH   3   6
HETATM    6  C5  UNL     1       8.592  27.697   8.782  1.00  0.00     0.185 C 
BRANCH   6   7
HETATM    7  C4  UNL     1       7.778  28.841   8.323  1.00  0.00     0.038 C 
BRANCH   7   8
HETATM    8  C3  UNL     1       6.653  28.724   7.410  1.00  0.00     0.022 C 
BRANCH   8   9
HETATM    9  C2  UNL     1       5.573  27.736   7.667  1.00  0.00     0.122 C 
BRANCH   9  10
HETATM   10  N3  UNL     1       5.731  26.597   6.741  1.00  0.00    -0.365 N 
HETATM   11  C1  UNL     1       5.669  26.883   5.354  1.00  0.00     0.181 C 
HETATM   12  N1  UNL     1       4.562  27.079   4.728  1.00  0.00    -0.374 N 
HETATM   13  N2  UNL     1       6.876  26.962   4.599  1.00  0.00    -0.064 NA
ATOM     14  H12 UNL     1       4.518  27.285   3.730  1.00  0.00     0.158 HD
ATOM     15  H11 UNL     1       3.699  27.022   5.267  1.00  0.00     0.158 HD
ATOM     16  H3  UNL     1       5.878  25.648   7.084  1.00  0.00     0.162 HD
ENDBRANCH   9  10
ENDBRANCH   8   9
ENDBRANCH   7   8
ENDBRANCH   6   7
BRANCH   6  17
HETATM   17  C32 UNL     1       9.583  28.063   9.808  1.00  0.00     0.196 C 
HETATM   18  O5  UNL     1       9.146  28.779  10.765  1.00  0.00    -0.646 OA
HETATM   19  O6  UNL     1      10.909  27.717   9.817  1.00  0.00    -0.646 OA
ENDBRANCH   6  17
ENDBRANCH   3   6
ENDBRANCH   1   2
BRANCH   1  20
HETATM   20  C8  UNL     1      11.279  24.785   6.359  1.00  0.00     0.036 C 
BRANCH  20  21
HETATM   21  C9  UNL     1      12.436  25.494   5.762  1.00  0.00     0.033 C 
BRANCH  21  22
HETATM   22  C10 UNL     1      13.349  24.678   4.944  1.00  0.00     0.272 C 
BRANCH  22  23
HETATM   23  N5  UNL     1      14.120  23.713   5.633  1.00  0.00     0.092 N 
HETATM   24  C11 UNL     1      14.777  22.804   4.613  1.00  0.00     0.298 C 
HETATM   25  C12 UNL     1      13.829  22.442   3.539  1.00  0.00     0.198 C 
HETATM   26  O2  UNL     1      14.200  21.409   2.732  1.00  0.00    -0.389 OA
HETATM   27  C13 UNL     1      15.180  20.568   3.157  1.00  0.00     0.167 C 
HETATM   28  C14 UNL     1      14.665  19.337   3.869  1.00  0.00     0.026 C 
HETATM   29  C15 UNL     1      15.301  18.073   3.399  1.00  0.00     0.002 C 
HETATM   30  C16 UNL     1      16.813  18.037   3.641  1.00  0.00     0.000 C 
HETATM   31  C17 UNL     1      17.141  17.527   4.999  1.00  0.00     0.000 C 
HETATM   32  C18 UNL     1      18.376  18.051   5.631  1.00  0.00     0.000 C 
HETATM   33  C19 UNL     1      18.719  19.469   5.379  1.00  0.00     0.000 C 
HETATM   34  C20 UNL     1      19.237  20.236   6.556  1.00  0.00     0.000 C 
HETATM   35  C21 UNL     1      18.295  20.394   7.695  1.00  0.00     0.002 C 
HETATM   36  C22 UNL     1      16.849  20.241   7.381  1.00  0.00     0.026 C 
HETATM   37  C23 UNL     1      15.954  21.218   8.157  1.00  0.00     0.167 C 
HETATM   38  O3  UNL     1      14.677  21.211   7.574  1.00  0.00    -0.389 OA
HETATM   39  C24 UNL     1      14.016  22.418   7.743  1.00  0.00     0.198 C 
HETATM   40  C25 UNL     1      13.338  22.801   6.473  1.00  0.00     0.298 C 
ENDBRANCH  22  23
ENDBRANCH  21  22
ENDBRANCH  20  21
ENDBRANCH   1  20
BRANCH   1  41
HETATM   41  N6  UNL     1       9.206  24.487   5.185  1.00  0.00    -0.348 N 
HETATM   42  C26 UNL     1       9.360  24.353   3.780  1.00  0.00     0.222 C 
HETATM   43  O4  UNL     1      10.163  25.101   3.172  1.00  0.00    -0.273 OA
ATOM     44  H6  UNL     1       8.554  23.880   5.682  1.00  0.00     0.163 HD
BRANCH  42  45
HETATM   45  C27 UNL     1       8.598  23.353   3.001  1.00  0.00     0.141 C 
BRANCH  45  46
HETATM   46  C28 UNL     1       7.232  23.919   2.632  1.00  0.00    -0.043 A 
HETATM   47  C29 UNL     1       6.112  23.562   3.280  1.00  0.00     0.015 A 
HETATM   48  C30 UNL     1       4.940  24.132   2.867  1.00  0.00     0.050 A 
HETATM   49  S1  UNL     1       5.432  25.144   1.591  1.00  0.00    -0.113 SA
HETATM   50  C31 UNL     1       7.104  24.824   1.612  1.00  0.00     0.057 A 
ENDBRANCH  45  46
ENDBRANCH  42  45
ENDBRANCH   1  41
TORSDOF 14
ENDMDL
