MODEL 1
REMARK VINA RESULT: -9.017704408      0.000      0.000
REMARK  16 active torsions:
REMARK  status: ('A' for Active; 'I' for Inactive)
REMARK    1  A    between atoms: C3_3  and  N1_4 
REMARK    2  A    between atoms: C12_15  and  N3_16 
REMARK       I    between atoms: N3_16  and  C13_18 
REMARK    3  A    between atoms: C13_18  and  C14_20 
REMARK       I    between atoms: N5_26  and  C17_27 
REMARK    4  A    between atoms: C17_27  and  C18_29 
REMARK    5  A    between atoms: C18_29  and  C20_31 
REMARK    6  A    between atoms: C18_29  and  C29_45 
REMARK    7  A    between atoms: C20_31  and  C21_32 
REMARK    8  A    between atoms: C21_32  and  C22_33 
REMARK    9  A    between atoms: C22_33  and  C23_34 
REMARK   10  A    between atoms: C23_34  and  C24_35 
REMARK   11  A    between atoms: C24_35  and  C25_36 
REMARK       I    between atoms: C25_36  and  N6_38 
REMARK   12  A    between atoms: N6_38  and  C26_40 
REMARK   13  A    between atoms: C26_40  and  C27_41 
REMARK   14  A    between atoms: C27_41  and  C28_42 
REMARK   15  A    between atoms: C28_42  and  O5_43 
REMARK   16  A    between atoms: C29_45  and  C30_46 
ROOT
HETATM    1  C14 UNL     1      16.289  21.573   8.877  1.00  0.00     0.347 C 
HETATM    2  N4  UNL     1      17.469  21.879   8.116  1.00  0.00    -0.324 N 
ATOM      3  H4  UNL     1      17.437  22.529   7.331  1.00  0.00     0.165 HD
HETATM    4  C15 UNL     1      18.658  21.256   8.489  1.00  0.00     0.240 C 
HETATM    5  O2  UNL     1      19.773  21.731   8.195  1.00  0.00    -0.272 OA
HETATM    6  C16 UNL     1      18.605  19.989   9.260  1.00  0.00     0.262 C 
HETATM    7  N5  UNL     1      17.287  19.594   9.658  1.00  0.00    -0.214 N 
HETATM    8  C17 UNL     1      17.006  18.309  10.234  1.00  0.00     0.252 C 
HETATM    9  O3  UNL     1      15.770  18.115  10.537  1.00  0.00    -0.270 OA
HETATM   10  O8  UNL     1      16.250  20.412   9.511  1.00  0.00    -0.239 OA
ENDROOT
BRANCH   8  11
HETATM   11  C18 UNL     1      17.929  17.225  10.513  1.00  0.00     0.049 C 
HETATM   12  C19 UNL     1      17.335  15.897  10.848  1.00  0.00     0.026 C 
BRANCH  11  13
HETATM   13  C20 UNL     1      18.978  17.063   9.410  1.00  0.00     0.019 C 
BRANCH  13  14
HETATM   14  C21 UNL     1      18.606  16.021   8.411  1.00  0.00     0.001 C 
BRANCH  14  15
HETATM   15  C22 UNL     1      19.509  16.058   7.185  1.00  0.00     0.001 C 
BRANCH  15  16
HETATM   16  C23 UNL     1      18.810  16.647   5.998  1.00  0.00     0.009 C 
BRANCH  16  17
HETATM   17  C24 UNL     1      18.645  18.123   6.054  1.00  0.00     0.103 C 
BRANCH  17  18
HETATM   18  C25 UNL     1      17.430  18.666   5.452  1.00  0.00     0.217 C 
HETATM   19  O4  UNL     1      17.060  19.840   5.688  1.00  0.00    -0.274 OA
HETATM   20  N6  UNL     1      16.653  17.858   4.585  1.00  0.00    -0.361 N 
ATOM     21  H6  UNL     1      16.943  16.902   4.381  1.00  0.00     0.162 HD
BRANCH  20  22
HETATM   22  C26 UNL     1      15.455  18.391   3.993  1.00  0.00     0.124 C 
BRANCH  22  23
HETATM   23  C27 UNL     1      15.528  18.470   2.496  1.00  0.00     0.046 C 
BRANCH  23  24
HETATM   24  C28 UNL     1      16.842  17.810   2.073  1.00  0.00     0.165 C 
BRANCH  24  25
HETATM   25  O5  UNL     1      17.852  18.749   1.888  1.00  0.00    -0.401 OA
ATOM     26  H5  UNL     1      18.145  19.115   2.714  1.00  0.00     0.209 HD
ENDBRANCH  24  25
ENDBRANCH  23  24
ENDBRANCH  22  23
ENDBRANCH  20  22
ENDBRANCH  17  18
ENDBRANCH  16  17
ENDBRANCH  15  16
ENDBRANCH  14  15
ENDBRANCH  13  14
ENDBRANCH  11  13
BRANCH  11  27
HETATM   27  C29 UNL     1      18.745  17.632  11.754  1.00  0.00     0.132 C 
BRANCH  27  28
HETATM   28  C30 UNL     1      20.144  17.148  11.685  1.00  0.00     0.173 C 
HETATM   29  O6  UNL     1      20.438  16.023  12.223  1.00  0.00    -0.648 OA
HETATM   30  O7  UNL     1      21.199  17.795  11.087  1.00  0.00    -0.648 OA
ENDBRANCH  27  28
ENDBRANCH  11  27
ENDBRANCH   8  11
BRANCH   1  31
HETATM   31  C13 UNL     1      15.106  21.802   7.960  1.00  0.00     0.273 C 
HETATM   32  N3  UNL     1      15.290  22.229   6.638  1.00  0.00    -0.323 N 
ATOM     33  H3  UNL     1      16.251  22.382   6.334  1.00  0.00     0.169 HD
HETATM   34  O1  UNL     1      13.969  21.596   8.420  1.00  0.00    -0.268 OA
BRANCH  32  35
HETATM   35  C12 UNL     1      14.278  22.469   5.688  1.00  0.00     0.035 A 
HETATM   36  C11 UNL     1      14.397  21.865   4.425  1.00  0.00     0.032 A 
HETATM   37  C10 UNL     1      13.506  21.990   3.421  1.00  0.00     0.033 A 
HETATM   38  C9  UNL     1      12.390  22.762   3.629  1.00  0.00     0.044 A 
HETATM   39  N2  UNL     1      11.367  23.048   2.807  1.00  0.00    -0.341 N 
HETATM   40  C32 UNL     1      12.213  23.381   4.846  1.00  0.00     0.002 A 
HETATM   41  C3  UNL     1      10.491  23.862   3.464  1.00  0.00     0.110 A 
ATOM     42  H2  UNL     1      11.262  22.711   1.850  1.00  0.00     0.167 HD
HETATM   43  C2  UNL     1      11.022  24.065   4.727  1.00  0.00    -0.005 A 
HETATM   44  C1  UNL     1      10.403  24.895   5.795  1.00  0.00     0.053 C 
HETATM   45  C31 UNL     1      13.159  23.232   5.871  1.00  0.00     0.044 A 
BRANCH  41  46
HETATM   46  N1  UNL     1       9.288  24.370   2.923  1.00  0.00    -0.367 N 
HETATM   47  C4  UNL     1       9.374  25.414   1.921  1.00  0.00     0.124 C 
HETATM   48  C5  UNL     1       8.139  26.304   1.976  1.00  0.00     0.020 C 
HETATM   49  C6  UNL     1       6.887  25.496   1.756  1.00  0.00     0.003 C 
HETATM   50  C7  UNL     1       7.088  24.019   2.052  1.00  0.00     0.020 C 
HETATM   51  C8  UNL     1       7.967  23.913   3.292  1.00  0.00     0.124 C 
ENDBRANCH  41  46
ENDBRANCH  32  35
ENDBRANCH   1  31
TORSDOF 16
ENDMDL
MODEL 2
REMARK VINA RESULT: -8.935706715      5.021     12.674
REMARK  16 active torsions:
REMARK  status: ('A' for Active; 'I' for Inactive)
REMARK    1  A    between atoms: C3_3  and  N1_4 
REMARK    2  A    between atoms: C12_15  and  N3_16 
REMARK       I    between atoms: N3_16  and  C13_18 
REMARK    3  A    between atoms: C13_18  and  C14_20 
REMARK       I    between atoms: N5_26  and  C17_27 
REMARK    4  A    between atoms: C17_27  and  C18_29 
REMARK    5  A    between atoms: C18_29  and  C20_31 
REMARK    6  A    between atoms: C18_29  and  C29_45 
REMARK    7  A    between atoms: C20_31  and  C21_32 
REMARK    8  A    between atoms: C21_32  and  C22_33 
REMARK    9  A    between atoms: C22_33  and  C23_34 
REMARK   10  A    between atoms: C23_34  and  C24_35 
REMARK   11  A    between atoms: C24_35  and  C25_36 
REMARK       I    between atoms: C25_36  and  N6_38 
REMARK   12  A    between atoms: N6_38  and  C26_40 
REMARK   13  A    between atoms: C26_40  and  C27_41 
REMARK   14  A    between atoms: C27_41  and  C28_42 
REMARK   15  A    between atoms: C28_42  and  O5_43 
REMARK   16  A    between atoms: C29_45  and  C30_46 
ROOT
HETATM    1  C14 UNL     1       9.153  23.992   2.191  1.00  0.00     0.347 C 
HETATM    2  N4  UNL     1       9.584  25.362   2.202  1.00  0.00    -0.324 N 
ATOM      3  H4  UNL     1      10.573  25.604   2.267  1.00  0.00     0.165 HD
HETATM    4  C15 UNL     1       8.605  26.349   2.120  1.00  0.00     0.240 C 
HETATM    5  O2  UNL     1       8.860  27.501   1.716  1.00  0.00    -0.272 OA
HETATM    6  C16 UNL     1       7.213  26.028   2.523  1.00  0.00     0.262 C 
HETATM    7  N5  UNL     1       6.995  24.650   2.848  1.00  0.00    -0.214 N 
HETATM    8  C17 UNL     1       5.777  24.181   3.446  1.00  0.00     0.252 C 
HETATM    9  O3  UNL     1       5.743  22.914   3.672  1.00  0.00    -0.270 OA
HETATM   10  O8  UNL     1       7.923  23.731   2.606  1.00  0.00    -0.239 OA
ENDROOT
BRANCH   8  11
HETATM   11  C18 UNL     1       4.602  24.946   3.817  1.00  0.00     0.049 C 
HETATM   12  C19 UNL     1       3.537  24.230   4.580  1.00  0.00     0.026 C 
BRANCH  11  13
HETATM   13  C20 UNL     1       4.964  26.251   4.531  1.00  0.00     0.019 C 
BRANCH  13  14
HETATM   14  C21 UNL     1       4.190  26.453   5.788  1.00  0.00     0.001 C 
BRANCH  14  15
HETATM   15  C22 UNL     1       5.033  27.102   6.878  1.00  0.00     0.001 C 
BRANCH  15  16
HETATM   16  C23 UNL     1       6.425  27.394   6.405  1.00  0.00     0.009 C 
BRANCH  16  17
HETATM   17  C24 UNL     1       7.159  28.384   7.234  1.00  0.00     0.103 C 
BRANCH  17  18
HETATM   18  C25 UNL     1       8.484  27.986   7.705  1.00  0.00     0.217 C 
HETATM   19  O4  UNL     1       9.325  28.841   8.069  1.00  0.00    -0.274 OA
HETATM   20  N6  UNL     1       8.829  26.613   7.753  1.00  0.00    -0.361 N 
ATOM     21  H6  UNL     1       8.154  25.906   7.462  1.00  0.00     0.162 HD
BRANCH  20  22
HETATM   22  C26 UNL     1      10.134  26.220   8.214  1.00  0.00     0.124 C 
BRANCH  22  23
HETATM   23  C27 UNL     1      10.770  25.175   7.345  1.00  0.00     0.046 C 
BRANCH  23  24
HETATM   24  C28 UNL     1       9.919  25.063   6.078  1.00  0.00     0.165 C 
BRANCH  24  25
HETATM   25  O5  UNL     1      10.374  25.915   5.077  1.00  0.00    -0.401 OA
ATOM     26  H5  UNL     1      10.315  25.510   4.219  1.00  0.00     0.209 HD
ENDBRANCH  24  25
ENDBRANCH  23  24
ENDBRANCH  22  23
ENDBRANCH  20  22
ENDBRANCH  17  18
ENDBRANCH  16  17
ENDBRANCH  15  16
ENDBRANCH  14  15
ENDBRANCH  13  14
ENDBRANCH  11  13
BRANCH  11  27
HETATM   27  C29 UNL     1       3.928  25.405   2.511  1.00  0.00     0.132 C 
BRANCH  27  28
HETATM   28  C30 UNL     1       2.934  24.422   2.020  1.00  0.00     0.173 C 
HETATM   29  O6  UNL     1       1.687  24.701   2.114  1.00  0.00    -0.648 OA
HETATM   30  O7  UNL     1       3.210  23.199   1.455  1.00  0.00    -0.648 OA
ENDBRANCH  27  28
ENDBRANCH  11  27
ENDBRANCH   8  11
BRANCH   1  31
HETATM   31  C13 UNL     1      10.217  23.192   2.913  1.00  0.00     0.273 C 
HETATM   32  N3  UNL     1      11.516  23.695   3.069  1.00  0.00    -0.323 N 
ATOM     33  H3  UNL     1      11.704  24.614   2.669  1.00  0.00     0.169 HD
HETATM   34  O1  UNL     1       9.898  22.077   3.362  1.00  0.00    -0.268 OA
BRANCH  32  35
HETATM   35  C12 UNL     1      12.588  23.057   3.722  1.00  0.00     0.035 A 
HETATM   36  C11 UNL     1      13.389  22.175   2.978  1.00  0.00     0.032 A 
HETATM   37  C10 UNL     1      14.454  21.504   3.461  1.00  0.00     0.033 A 
HETATM   38  C9  UNL     1      14.798  21.681   4.777  1.00  0.00     0.044 A 
HETATM   39  N2  UNL     1      15.796  21.140   5.494  1.00  0.00    -0.341 N 
HETATM   40  C32 UNL     1      14.054  22.534   5.561  1.00  0.00     0.002 A 
HETATM   41  C3  UNL     1      15.733  21.623   6.769  1.00  0.00     0.110 A 
ATOM     42  H2  UNL     1      16.488  20.476   5.144  1.00  0.00     0.167 HD
HETATM   43  C2  UNL     1      14.650  22.487   6.804  1.00  0.00    -0.005 A 
HETATM   44  C1  UNL     1      14.197  23.247   7.999  1.00  0.00     0.053 C 
HETATM   45  C31 UNL     1      12.951  23.218   5.030  1.00  0.00     0.044 A 
BRANCH  41  46
HETATM   46  N1  UNL     1      16.622  21.284   7.813  1.00  0.00    -0.367 N 
HETATM   47  C4  UNL     1      16.578  19.934   8.340  1.00  0.00     0.124 C 
HETATM   48  C5  UNL     1      16.999  19.923   9.805  1.00  0.00     0.020 C 
HETATM   49  C6  UNL     1      18.389  20.482   9.966  1.00  0.00     0.003 C 
HETATM   50  C7  UNL     1      18.801  21.362   8.798  1.00  0.00     0.020 C 
HETATM   51  C8  UNL     1      17.588  22.190   8.394  1.00  0.00     0.124 C 
ENDBRANCH  41  46
ENDBRANCH  32  35
ENDBRANCH   1  31
TORSDOF 16
ENDMDL
MODEL 3
REMARK VINA RESULT: -8.925685152      1.266      2.276
REMARK  16 active torsions:
REMARK  status: ('A' for Active; 'I' for Inactive)
REMARK    1  A    between atoms: C3_3  and  N1_4 
REMARK    2  A    between atoms: C12_15  and  N3_16 
REMARK       I    between atoms: N3_16  and  C13_18 
REMARK    3  A    between atoms: C13_18  and  C14_20 
REMARK       I    between atoms: N5_26  and  C17_27 
REMARK    4  A    between atoms: C17_27  and  C18_29 
REMARK    5  A    between atoms: C18_29  and  C20_31 
REMARK    6  A    between atoms: C18_29  and  C29_45 
REMARK    7  A    between atoms: C20_31  and  C21_32 
REMARK    8  A    between atoms: C21_32  and  C22_33 
REMARK    9  A    between atoms: C22_33  and  C23_34 
REMARK   10  A    between atoms: C23_34  and  C24_35 
REMARK   11  A    between atoms: C24_35  and  C25_36 
REMARK       I    between atoms: C25_36  and  N6_38 
REMARK   12  A    between atoms: N6_38  and  C26_40 
REMARK   13  A    between atoms: C26_40  and  C27_41 
REMARK   14  A    between atoms: C27_41  and  C28_42 
REMARK   15  A    between atoms: C28_42  and  O5_43 
REMARK   16  A    between atoms: C29_45  and  C30_46 
ROOT
HETATM    1  C14 UNL     1      16.368  21.937   9.047  1.00  0.00     0.347 C 
HETATM    2  N4  UNL     1      17.392  22.284   8.102  1.00  0.00    -0.324 N 
ATOM      3  H4  UNL     1      17.245  23.018   7.409  1.00  0.00     0.165 HD
HETATM    4  C15 UNL     1      18.595  21.583   8.165  1.00  0.00     0.240 C 
HETATM    5  O2  UNL     1      19.656  22.050   7.704  1.00  0.00    -0.272 OA
HETATM    6  C16 UNL     1      18.623  20.242   8.798  1.00  0.00     0.262 C 
HETATM    7  N5  UNL     1      17.387  19.851   9.408  1.00  0.00    -0.214 N 
HETATM    8  C17 UNL     1      17.153  18.520   9.895  1.00  0.00     0.252 C 
HETATM    9  O3  UNL     1      15.991  18.336  10.417  1.00  0.00    -0.270 OA
HETATM   10  O8  UNL     1      16.389  20.715   9.555  1.00  0.00    -0.239 OA
ENDROOT
BRANCH   8  11
HETATM   11  C18 UNL     1      18.051  17.381   9.872  1.00  0.00     0.049 C 
HETATM   12  C19 UNL     1      17.514  16.082  10.378  1.00  0.00     0.026 C 
BRANCH  11  13
HETATM   13  C20 UNL     1      18.691  17.178   8.496  1.00  0.00     0.019 C 
BRANCH  13  14
HETATM   14  C21 UNL     1      18.690  15.752   8.066  1.00  0.00     0.001 C 
BRANCH  14  15
HETATM   15  C22 UNL     1      18.856  15.611   6.559  1.00  0.00     0.001 C 
BRANCH  15  16
HETATM   16  C23 UNL     1      18.740  16.932   5.861  1.00  0.00     0.009 C 
BRANCH  16  17
HETATM   17  C24 UNL     1      18.817  16.850   4.379  1.00  0.00     0.103 C 
BRANCH  17  18
HETATM   18  C25 UNL     1      17.995  17.798   3.631  1.00  0.00     0.217 C 
HETATM   19  O4  UNL     1      18.427  18.352   2.594  1.00  0.00    -0.274 OA
HETATM   20  N6  UNL     1      16.685  18.098   4.080  1.00  0.00    -0.361 N 
ATOM     21  H6  UNL     1      16.318  17.653   4.921  1.00  0.00     0.162 HD
BRANCH  20  22
HETATM   22  C26 UNL     1      15.874  19.033   3.345  1.00  0.00     0.124 C 
BRANCH  22  23
HETATM   23  C27 UNL     1      15.047  19.915   4.235  1.00  0.00     0.046 C 
BRANCH  23  24
HETATM   24  C28 UNL     1      15.986  20.489   5.297  1.00  0.00     0.165 C 
BRANCH  24  25
HETATM   25  O5  UNL     1      15.944  19.750   6.475  1.00  0.00    -0.401 OA
ATOM     26  H5  UNL     1      16.776  19.771   6.932  1.00  0.00     0.209 HD
ENDBRANCH  24  25
ENDBRANCH  23  24
ENDBRANCH  22  23
ENDBRANCH  20  22
ENDBRANCH  17  18
ENDBRANCH  16  17
ENDBRANCH  15  16
ENDBRANCH  14  15
ENDBRANCH  13  14
ENDBRANCH  11  13
BRANCH  11  27
HETATM   27  C29 UNL     1      19.236  17.719  10.795  1.00  0.00     0.132 C 
BRANCH  27  28
HETATM   28  C30 UNL     1      18.798  18.032  12.175  1.00  0.00     0.173 C 
HETATM   29  O6  UNL     1      18.704  19.258  12.533  1.00  0.00    -0.648 OA
HETATM   30  O7  UNL     1      18.469  17.119  13.150  1.00  0.00    -0.648 OA
ENDBRANCH  27  28
ENDBRANCH  11  27
ENDBRANCH   8  11
BRANCH   1  31
HETATM   31  C13 UNL     1      15.044  22.306   8.413  1.00  0.00     0.273 C 
HETATM   32  N3  UNL     1      14.857  23.556   7.806  1.00  0.00    -0.323 N 
ATOM     33  H3  UNL     1      15.651  24.196   7.820  1.00  0.00     0.169 HD
HETATM   34  O1  UNL     1      14.130  21.463   8.448  1.00  0.00    -0.268 OA
BRANCH  32  35
HETATM   35  C12 UNL     1      13.683  24.015   7.178  1.00  0.00     0.035 A 
HETATM   36  C11 UNL     1      12.952  25.038   7.804  1.00  0.00     0.032 A 
HETATM   37  C10 UNL     1      11.820  25.587   7.319  1.00  0.00     0.033 A 
HETATM   38  C9  UNL     1      11.329  25.126   6.124  1.00  0.00     0.044 A 
HETATM   39  N2  UNL     1      10.237  25.494   5.434  1.00  0.00    -0.341 N 
HETATM   40  C32 UNL     1      12.000  24.124   5.458  1.00  0.00     0.002 A 
HETATM   41  C3  UNL     1      10.163  24.743   4.297  1.00  0.00     0.110 A 
ATOM     42  H2  UNL     1       9.573  26.216   5.714  1.00  0.00     0.167 HD
HETATM   43  C2  UNL     1      11.258  23.896   4.318  1.00  0.00    -0.005 A 
HETATM   44  C1  UNL     1      11.587  22.891   3.272  1.00  0.00     0.053 C 
HETATM   45  C31 UNL     1      13.175  23.572   5.989  1.00  0.00     0.044 A 
BRANCH  41  46
HETATM   46  N1  UNL     1       9.151  24.849   3.316  1.00  0.00    -0.367 N 
HETATM   47  C4  UNL     1       7.825  24.364   3.644  1.00  0.00     0.124 C 
HETATM   48  C5  UNL     1       7.109  23.887   2.386  1.00  0.00     0.020 C 
HETATM   49  C6  UNL     1       7.003  25.001   1.377  1.00  0.00     0.003 C 
HETATM   50  C7  UNL     1       8.032  26.094   1.606  1.00  0.00     0.020 C 
HETATM   51  C8  UNL     1       9.341  25.419   2.001  1.00  0.00     0.124 C 
ENDBRANCH  41  46
ENDBRANCH  32  35
ENDBRANCH   1  31
TORSDOF 16
ENDMDL
MODEL 4
REMARK VINA RESULT: -8.878833460      4.951     13.033
REMARK  16 active torsions:
REMARK  status: ('A' for Active; 'I' for Inactive)
REMARK    1  A    between atoms: C3_3  and  N1_4 
REMARK    2  A    between atoms: C12_15  and  N3_16 
REMARK       I    between atoms: N3_16  and  C13_18 
REMARK    3  A    between atoms: C13_18  and  C14_20 
REMARK       I    between atoms: N5_26  and  C17_27 
REMARK    4  A    between atoms: C17_27  and  C18_29 
REMARK    5  A    between atoms: C18_29  and  C20_31 
REMARK    6  A    between atoms: C18_29  and  C29_45 
REMARK    7  A    between atoms: C20_31  and  C21_32 
REMARK    8  A    between atoms: C21_32  and  C22_33 
REMARK    9  A    between atoms: C22_33  and  C23_34 
REMARK   10  A    between atoms: C23_34  and  C24_35 
REMARK   11  A    between atoms: C24_35  and  C25_36 
REMARK       I    between atoms: C25_36  and  N6_38 
REMARK   12  A    between atoms: N6_38  and  C26_40 
REMARK   13  A    between atoms: C26_40  and  C27_41 
REMARK   14  A    between atoms: C27_41  and  C28_42 
REMARK   15  A    between atoms: C28_42  and  O5_43 
REMARK   16  A    between atoms: C29_45  and  C30_46 
ROOT
HETATM    1  C14 UNL     1       9.177  24.117   2.584  1.00  0.00     0.347 C 
HETATM    2  N4  UNL     1       9.400  25.528   2.432  1.00  0.00    -0.324 N 
ATOM      3  H4  UNL     1      10.315  25.941   2.615  1.00  0.00     0.165 HD
HETATM    4  C15 UNL     1       8.323  26.313   2.025  1.00  0.00     0.240 C 
HETATM    5  O2  UNL     1       8.484  27.423   1.478  1.00  0.00    -0.272 OA
HETATM    6  C16 UNL     1       6.940  25.822   2.244  1.00  0.00     0.262 C 
HETATM    7  N5  UNL     1       6.863  24.487   2.759  1.00  0.00    -0.214 N 
HETATM    8  C17 UNL     1       5.632  23.908   3.221  1.00  0.00     0.252 C 
HETATM    9  O3  UNL     1       5.736  22.699   3.650  1.00  0.00    -0.270 OA
HETATM   10  O8  UNL     1       7.940  23.714   2.831  1.00  0.00    -0.239 OA
ENDROOT
BRANCH   8  11
HETATM   11  C18 UNL     1       4.312  24.508   3.261  1.00  0.00     0.049 C 
HETATM   12  C19 UNL     1       3.274  23.814   4.079  1.00  0.00     0.026 C 
BRANCH  11  13
HETATM   13  C20 UNL     1       4.363  25.992   3.634  1.00  0.00     0.019 C 
BRANCH  13  14
HETATM   14  C21 UNL     1       4.350  26.213   5.108  1.00  0.00     0.001 C 
BRANCH  14  15
HETATM   15  C22 UNL     1       4.610  27.671   5.467  1.00  0.00     0.001 C 
BRANCH  15  16
HETATM   16  C23 UNL     1       5.870  27.831   6.262  1.00  0.00     0.009 C 
BRANCH  16  17
HETATM   17  C24 UNL     1       7.118  27.671   5.471  1.00  0.00     0.103 C 
BRANCH  17  18
HETATM   18  C25 UNL     1       8.188  26.895   6.093  1.00  0.00     0.217 C 
HETATM   19  O4  UNL     1       9.224  26.594   5.454  1.00  0.00    -0.274 OA
HETATM   20  N6  UNL     1       8.060  26.472   7.439  1.00  0.00    -0.361 N 
ATOM     21  H6  UNL     1       7.224  26.712   7.972  1.00  0.00     0.162 HD
BRANCH  20  22
HETATM   22  C26 UNL     1       9.112  25.706   8.052  1.00  0.00     0.124 C 
BRANCH  22  23
HETATM   23  C27 UNL     1       9.496  26.220   9.408  1.00  0.00     0.046 C 
BRANCH  23  24
HETATM   24  C28 UNL     1      10.463  27.385   9.190  1.00  0.00     0.165 C 
BRANCH  24  25
HETATM   25  O5  UNL     1       9.797  28.535   8.777  1.00  0.00    -0.401 OA
ATOM     26  H5  UNL     1      10.283  28.999   8.106  1.00  0.00     0.209 HD
ENDBRANCH  24  25
ENDBRANCH  23  24
ENDBRANCH  22  23
ENDBRANCH  20  22
ENDBRANCH  17  18
ENDBRANCH  16  17
ENDBRANCH  15  16
ENDBRANCH  14  15
ENDBRANCH  13  14
ENDBRANCH  11  13
BRANCH  11  27
HETATM   27  C29 UNL     1       3.767  24.500   1.820  1.00  0.00     0.132 C 
BRANCH  27  28
HETATM   28  C30 UNL     1       3.029  25.743   1.495  1.00  0.00     0.173 C 
HETATM   29  O6  UNL     1       3.595  26.626   0.759  1.00  0.00    -0.648 OA
HETATM   30  O7  UNL     1       1.759  26.066   1.911  1.00  0.00    -0.648 OA
ENDBRANCH  27  28
ENDBRANCH  11  27
ENDBRANCH   8  11
BRANCH   1  31
HETATM   31  C13 UNL     1      10.188  23.620   3.594  1.00  0.00     0.273 C 
HETATM   32  N3  UNL     1      10.988  24.517   4.316  1.00  0.00    -0.323 N 
ATOM     33  H3  UNL     1      10.855  25.510   4.122  1.00  0.00     0.169 HD
HETATM   34  O1  UNL     1      10.284  22.392   3.761  1.00  0.00    -0.268 OA
BRANCH  32  35
HETATM   35  C12 UNL     1      11.955  24.184   5.284  1.00  0.00     0.035 A 
HETATM   36  C11 UNL     1      12.082  25.016   6.409  1.00  0.00     0.032 A 
HETATM   37  C10 UNL     1      12.949  24.819   7.422  1.00  0.00     0.033 A 
HETATM   38  C9  UNL     1      13.781  23.730   7.369  1.00  0.00     0.044 A 
HETATM   39  N2  UNL     1      14.723  23.313   8.232  1.00  0.00    -0.341 N 
HETATM   40  C32 UNL     1      13.706  22.873   6.293  1.00  0.00     0.002 A 
HETATM   41  C3  UNL     1      15.291  22.172   7.744  1.00  0.00     0.110 A 
ATOM     42  H2  UNL     1      14.972  23.774   9.107  1.00  0.00     0.167 HD
HETATM   43  C2  UNL     1      14.656  21.905   6.541  1.00  0.00    -0.005 A 
HETATM   44  C1  UNL     1      14.953  20.751   5.652  1.00  0.00     0.053 C 
HETATM   45  C31 UNL     1      12.793  23.105   5.254  1.00  0.00     0.044 A 
BRANCH  41  46
HETATM   46  N1  UNL     1      16.318  21.438   8.379  1.00  0.00    -0.367 N 
HETATM   47  C4  UNL     1      17.624  22.053   8.501  1.00  0.00     0.124 C 
HETATM   48  C5  UNL     1      18.713  20.987   8.512  1.00  0.00     0.020 C 
HETATM   49  C6  UNL     1      18.503  20.020   9.648  1.00  0.00     0.003 C 
HETATM   50  C7  UNL     1      17.068  20.010  10.145  1.00  0.00     0.020 C 
HETATM   51  C8  UNL     1      16.157  20.110   8.928  1.00  0.00     0.124 C 
ENDBRANCH  41  46
ENDBRANCH  32  35
ENDBRANCH   1  31
TORSDOF 16
ENDMDL
MODEL 5
REMARK VINA RESULT: -8.653748930      5.129     13.261
REMARK  16 active torsions:
REMARK  status: ('A' for Active; 'I' for Inactive)
REMARK    1  A    between atoms: C3_3  and  N1_4 
REMARK    2  A    between atoms: C12_15  and  N3_16 
REMARK       I    between atoms: N3_16  and  C13_18 
REMARK    3  A    between atoms: C13_18  and  C14_20 
REMARK       I    between atoms: N5_26  and  C17_27 
REMARK    4  A    between atoms: C17_27  and  C18_29 
REMARK    5  A    between atoms: C18_29  and  C20_31 
REMARK    6  A    between atoms: C18_29  and  C29_45 
REMARK    7  A    between atoms: C20_31  and  C21_32 
REMARK    8  A    between atoms: C21_32  and  C22_33 
REMARK    9  A    between atoms: C22_33  and  C23_34 
REMARK   10  A    between atoms: C23_34  and  C24_35 
REMARK   11  A    between atoms: C24_35  and  C25_36 
REMARK       I    between atoms: C25_36  and  N6_38 
REMARK   12  A    between atoms: N6_38  and  C26_40 
REMARK   13  A    between atoms: C26_40  and  C27_41 
REMARK   14  A    between atoms: C27_41  and  C28_42 
REMARK   15  A    between atoms: C28_42  and  O5_43 
REMARK   16  A    between atoms: C29_45  and  C30_46 
ROOT
HETATM    1  C14 UNL     1       9.125  24.075   2.523  1.00  0.00     0.347 C 
HETATM    2  N4  UNL     1       9.380  25.473   2.309  1.00  0.00    -0.324 N 
ATOM      3  H4  UNL     1      10.305  25.872   2.474  1.00  0.00     0.165 HD
HETATM    4  C15 UNL     1       8.321  26.263   1.868  1.00  0.00     0.240 C 
HETATM    5  O2  UNL     1       8.507  27.344   1.273  1.00  0.00    -0.272 OA
HETATM    6  C16 UNL     1       6.928  25.814   2.109  1.00  0.00     0.262 C 
HETATM    7  N5  UNL     1       6.820  24.506   2.682  1.00  0.00    -0.214 N 
HETATM    8  C17 UNL     1       5.578  23.976   3.170  1.00  0.00     0.252 C 
HETATM    9  O3  UNL     1       5.655  22.785   3.652  1.00  0.00    -0.270 OA
HETATM   10  O8  UNL     1       7.880  23.712   2.788  1.00  0.00    -0.239 OA
ENDROOT
BRANCH   8  11
HETATM   11  C18 UNL     1       4.272  24.607   3.183  1.00  0.00     0.049 C 
HETATM   12  C19 UNL     1       3.116  23.768   3.618  1.00  0.00     0.026 C 
BRANCH  11  13
HETATM   13  C20 UNL     1       4.277  25.928   3.957  1.00  0.00     0.019 C 
BRANCH  13  14
HETATM   14  C21 UNL     1       3.837  25.766   5.372  1.00  0.00     0.001 C 
BRANCH  14  15
HETATM   15  C22 UNL     1       3.870  27.084   6.133  1.00  0.00     0.001 C 
BRANCH  15  16
HETATM   16  C23 UNL     1       5.086  27.195   7.002  1.00  0.00     0.009 C 
BRANCH  16  17
HETATM   17  C24 UNL     1       5.919  28.397   6.740  1.00  0.00     0.103 C 
BRANCH  17  18
HETATM   18  C25 UNL     1       7.344  28.280   7.039  1.00  0.00     0.217 C 
HETATM   19  O4  UNL     1       8.191  28.163   6.123  1.00  0.00    -0.274 OA
HETATM   20  N6  UNL     1       7.783  28.298   8.386  1.00  0.00    -0.361 N 
ATOM     21  H6  UNL     1       7.106  28.395   9.143  1.00  0.00     0.162 HD
BRANCH  20  22
HETATM   22  C26 UNL     1       9.186  28.181   8.684  1.00  0.00     0.124 C 
BRANCH  22  23
HETATM   23  C27 UNL     1       9.491  27.058   9.631  1.00  0.00     0.046 C 
BRANCH  23  24
HETATM   24  C28 UNL     1       9.299  25.752   8.857  1.00  0.00     0.165 C 
BRANCH  24  25
HETATM   25  O5  UNL     1       7.972  25.334   8.876  1.00  0.00    -0.401 OA
ATOM     26  H5  UNL     1       7.391  25.996   8.521  1.00  0.00     0.209 HD
ENDBRANCH  24  25
ENDBRANCH  23  24
ENDBRANCH  22  23
ENDBRANCH  20  22
ENDBRANCH  17  18
ENDBRANCH  16  17
ENDBRANCH  15  16
ENDBRANCH  14  15
ENDBRANCH  13  14
ENDBRANCH  11  13
BRANCH  11  27
HETATM   27  C29 UNL     1       3.953  25.020   1.734  1.00  0.00     0.132 C 
BRANCH  27  28
HETATM   28  C30 UNL     1       2.937  26.096   1.671  1.00  0.00     0.173 C 
HETATM   29  O6  UNL     1       1.717  25.814   1.942  1.00  0.00    -0.648 OA
HETATM   30  O7  UNL     1       3.166  27.412   1.342  1.00  0.00    -0.648 OA
ENDBRANCH  27  28
ENDBRANCH  11  27
ENDBRANCH   8  11
BRANCH   1  31
HETATM   31  C13 UNL     1      10.126  23.600   3.554  1.00  0.00     0.273 C 
HETATM   32  N3  UNL     1      10.956  24.508   4.226  1.00  0.00    -0.323 N 
ATOM     33  H3  UNL     1      10.854  25.493   3.981  1.00  0.00     0.169 HD
HETATM   34  O1  UNL     1      10.186  22.379   3.784  1.00  0.00    -0.268 OA
BRANCH  32  35
HETATM   35  C12 UNL     1      11.918  24.196   5.206  1.00  0.00     0.035 A 
HETATM   36  C11 UNL     1      11.945  24.969   6.380  1.00  0.00     0.032 A 
HETATM   37  C10 UNL     1      12.795  24.782   7.409  1.00  0.00     0.033 A 
HETATM   38  C9  UNL     1      13.712  23.765   7.324  1.00  0.00     0.044 A 
HETATM   39  N2  UNL     1      14.658  23.373   8.194  1.00  0.00    -0.341 N 
HETATM   40  C32 UNL     1      13.738  22.969   6.200  1.00  0.00     0.002 A 
HETATM   41  C3  UNL     1      15.329  22.311   7.663  1.00  0.00     0.110 A 
ATOM     42  H2  UNL     1      14.844  23.801   9.101  1.00  0.00     0.167 HD
HETATM   43  C2  UNL     1      14.754  22.065   6.427  1.00  0.00    -0.005 A 
HETATM   44  C1  UNL     1      15.168  20.991   5.485  1.00  0.00     0.053 C 
HETATM   45  C31 UNL     1      12.840  23.189   5.145  1.00  0.00     0.044 A 
BRANCH  41  46
HETATM   46  N1  UNL     1      16.393  21.623   8.291  1.00  0.00    -0.367 N 
HETATM   47  C4  UNL     1      16.150  20.276   8.768  1.00  0.00     0.124 C 
HETATM   48  C5  UNL     1      17.040  19.972   9.968  1.00  0.00     0.020 C 
HETATM   49  C6  UNL     1      18.495  20.125   9.607  1.00  0.00     0.003 C 
HETATM   50  C7  UNL     1      18.702  21.006   8.388  1.00  0.00     0.020 C 
HETATM   51  C8  UNL     1      17.719  22.166   8.485  1.00  0.00     0.124 C 
ENDBRANCH  41  46
ENDBRANCH  32  35
ENDBRANCH   1  31
TORSDOF 16
ENDMDL
