MODEL 1
REMARK VINA RESULT: -5.930265218      0.000      0.000
REMARK  3 active torsions:
REMARK  status: ('A' for Active; 'I' for Inactive)
REMARK    1  A    between atoms: C2_2  and  C3_3 
REMARK    2  A    between atoms: C3_3  and  C5_5 
REMARK    3  A    between atoms: N5_21  and  O2_22 
ROOT
HETATM    1  C5  UNL     1      27.819  32.288  25.301  1.00  0.00     0.078 A 
HETATM    2  C6  UNL     1      27.409  32.545  23.997  1.00  0.00     0.107 A 
HETATM    3  N1  UNL     1      26.337  31.994  23.469  1.00  0.00    -0.188 N 
ATOM      4  H1  UNL     1      25.794  31.397  24.092  1.00  0.00     0.184 HD
HETATM    5  C7  UNL     1      25.864  32.116  22.212  1.00  0.00     0.679 A 
HETATM    6  N2  UNL     1      24.892  31.587  21.637  1.00  0.00    -0.234 N 
ATOM      7  H21 UNL     1      24.534  31.679  20.686  1.00  0.00     0.174 HD
ATOM      8  H22 UNL     1      24.318  30.973  22.215  1.00  0.00     0.174 HD
HETATM    9  N3  UNL     1      26.656  32.963  21.414  1.00  0.00    -0.154 N 
ATOM     10  H3  UNL     1      26.384  33.130  20.445  1.00  0.00     0.187 HD
HETATM   11  C8  UNL     1      27.736  33.543  21.885  1.00  0.00     0.288 A 
HETATM   12  O1  UNL     1      28.401  34.310  21.084  1.00  0.00    -0.265 OA
HETATM   13  C9  UNL     1      28.178  33.374  23.181  1.00  0.00     0.132 A 
HETATM   14  N4  UNL     1      29.314  33.920  23.648  1.00  0.00    -0.344 N 
ATOM     15  H4  UNL     1      29.880  34.524  23.050  1.00  0.00     0.167 HD
HETATM   16  C10 UNL     1      29.696  33.665  24.909  1.00  0.00     0.214 A 
HETATM   17  N5  UNL     1      28.962  32.861  25.724  1.00  0.00    -0.222 N 
ENDROOT
BRANCH   1  18
HETATM   18  C3  UNL     1      26.991  31.527  26.172  1.00  0.00     0.058 C 
HETATM   19  C4  UNL     1      25.519  32.016  25.960  1.00  0.00     0.021 C 
BRANCH  18  20
HETATM   20  C2  UNL     1      26.852  30.074  25.645  1.00  0.00    -0.026 C 
HETATM   21  C1  UNL     1      25.710  29.727  25.011  1.00  0.00     0.007 C 
ENDBRANCH  18  20
ENDBRANCH   1  18
BRANCH  17  22
HETATM   22  O2  UNL     1      29.450  32.773  26.987  1.00  0.00    -0.282 OA
ATOM     23  H2  UNL     1      29.603  33.515  27.561  1.00  0.00     0.245 HD
ENDBRANCH  17  22
TORSDOF 3
ENDMDL
MODEL 2
REMARK VINA RESULT: -5.640818026      2.084      3.645
REMARK  3 active torsions:
REMARK  status: ('A' for Active; 'I' for Inactive)
REMARK    1  A    between atoms: C2_2  and  C3_3 
REMARK    2  A    between atoms: C3_3  and  C5_5 
REMARK    3  A    between atoms: N5_21  and  O2_22 
ROOT
HETATM    1  C5  UNL     1      28.362  33.104  23.582  1.00  0.00     0.078 A 
HETATM    2  C6  UNL     1      27.020  33.044  23.946  1.00  0.00     0.107 A 
HETATM    3  N1  UNL     1      26.630  32.850  25.187  1.00  0.00    -0.188 N 
ATOM      4  H1  UNL     1      27.375  32.791  25.882  1.00  0.00     0.184 HD
HETATM    5  C7  UNL     1      25.374  32.718  25.661  1.00  0.00     0.679 A 
HETATM    6  N2  UNL     1      24.940  32.485  26.806  1.00  0.00    -0.234 N 
ATOM      7  H21 UNL     1      23.990  32.386  27.165  1.00  0.00     0.174 HD
ATOM      8  H22 UNL     1      25.646  32.410  27.539  1.00  0.00     0.174 HD
HETATM    9  N3  UNL     1      24.400  32.822  24.650  1.00  0.00    -0.154 N 
ATOM     10  H3  UNL     1      23.414  32.743  24.900  1.00  0.00     0.187 HD
HETATM   11  C8  UNL     1      24.728  33.017  23.394  1.00  0.00     0.288 A 
HETATM   12  O1  UNL     1      23.768  33.105  22.531  1.00  0.00    -0.265 OA
HETATM   13  C9  UNL     1      26.034  33.135  22.965  1.00  0.00     0.132 A 
HETATM   14  N4  UNL     1      26.374  33.277  21.672  1.00  0.00    -0.344 N 
ATOM     15  H4  UNL     1      25.653  33.340  20.953  1.00  0.00     0.167 HD
HETATM   16  C10 UNL     1      27.672  33.336  21.337  1.00  0.00     0.214 A 
HETATM   17  N5  UNL     1      28.652  33.250  22.275  1.00  0.00    -0.222 N 
ENDROOT
BRANCH   1  18
HETATM   18  C3  UNL     1      29.372  33.113  24.584  1.00  0.00     0.058 C 
HETATM   19  C4  UNL     1      29.145  34.388  25.463  1.00  0.00     0.021 C 
BRANCH  18  20
HETATM   20  C2  UNL     1      29.082  32.020  25.646  1.00  0.00    -0.026 C 
HETATM   21  C1  UNL     1      29.087  30.726  25.254  1.00  0.00     0.007 C 
ENDBRANCH  18  20
ENDBRANCH   1  18
BRANCH  17  22
HETATM   22  O2  UNL     1      29.904  33.405  21.774  1.00  0.00    -0.282 OA
ATOM     23  H2  UNL     1      30.108  33.510  20.852  1.00  0.00     0.245 HD
ENDBRANCH  17  22
TORSDOF 3
ENDMDL
MODEL 3
REMARK VINA RESULT: -5.430359615      1.693      3.872
REMARK  3 active torsions:
REMARK  status: ('A' for Active; 'I' for Inactive)
REMARK    1  A    between atoms: C2_2  and  C3_3 
REMARK    2  A    between atoms: C3_3  and  C5_5 
REMARK    3  A    between atoms: N5_21  and  O2_22 
ROOT
HETATM    1  C5  UNL     1      25.899  32.141  23.726  1.00  0.00     0.078 A 
HETATM    2  C6  UNL     1      27.221  32.540  23.896  1.00  0.00     0.107 A 
HETATM    3  N1  UNL     1      27.794  32.614  25.078  1.00  0.00    -0.188 N 
ATOM      4  H1  UNL     1      27.221  32.314  25.867  1.00  0.00     0.184 HD
HETATM    5  C7  UNL     1      29.039  33.033  25.382  1.00  0.00     0.679 A 
HETATM    6  N2  UNL     1      29.623  33.173  26.475  1.00  0.00    -0.234 N 
ATOM      7  H21 UNL     1      30.564  33.491  26.705  1.00  0.00     0.174 HD
ATOM      8  H22 UNL     1      29.090  32.895  27.299  1.00  0.00     0.174 HD
HETATM    9  N3  UNL     1      29.774  33.419  24.245  1.00  0.00    -0.154 N 
ATOM     10  H3  UNL     1      30.733  33.747  24.361  1.00  0.00     0.187 HD
HETATM   11  C8  UNL     1      29.257  33.366  23.039  1.00  0.00     0.288 A 
HETATM   12  O1  UNL     1      30.005  33.735  22.050  1.00  0.00    -0.265 OA
HETATM   13  C9  UNL     1      27.971  32.936  22.789  1.00  0.00     0.132 A 
HETATM   14  N4  UNL     1      27.420  32.935  21.562  1.00  0.00    -0.344 N 
ATOM     15  H4  UNL     1      27.967  33.228  20.752  1.00  0.00     0.167 HD
HETATM   16  C10 UNL     1      26.145  32.546  21.414  1.00  0.00     0.214 A 
HETATM   17  N5  UNL     1      25.394  32.155  22.478  1.00  0.00    -0.222 N 
ENDROOT
BRANCH   1  18
HETATM   18  C3  UNL     1      25.159  31.640  24.833  1.00  0.00     0.058 C 
HETATM   19  C4  UNL     1      26.041  30.552  25.531  1.00  0.00     0.021 C 
BRANCH  18  20
HETATM   20  C2  UNL     1      25.115  32.696  25.969  1.00  0.00    -0.026 C 
HETATM   21  C1  UNL     1      24.787  33.969  25.652  1.00  0.00     0.007 C 
ENDBRANCH  18  20
ENDBRANCH   1  18
BRANCH  17  22
HETATM   22  O2  UNL     1      24.154  31.719  22.140  1.00  0.00    -0.282 OA
ATOM     23  H2  UNL     1      23.911  30.807  22.036  1.00  0.00     0.245 HD
ENDBRANCH  17  22
TORSDOF 3
ENDMDL
MODEL 4
REMARK VINA RESULT: -5.200485032      2.152      4.092
REMARK  3 active torsions:
REMARK  status: ('A' for Active; 'I' for Inactive)
REMARK    1  A    between atoms: C2_2  and  C3_3 
REMARK    2  A    between atoms: C3_3  and  C5_5 
REMARK    3  A    between atoms: N5_21  and  O2_22 
ROOT
HETATM    1  C5  UNL     1      25.711  33.252  23.439  1.00  0.00     0.078 A 
HETATM    2  C6  UNL     1      27.094  33.162  23.572  1.00  0.00     0.107 A 
HETATM    3  N1  UNL     1      27.773  33.894  24.428  1.00  0.00    -0.188 N 
ATOM      4  H1  UNL     1      27.218  34.505  25.027  1.00  0.00     0.184 HD
HETATM    5  C7  UNL     1      29.107  33.942  24.616  1.00  0.00     0.679 A 
HETATM    6  N2  UNL     1      29.814  34.642  25.369  1.00  0.00    -0.234 N 
ATOM      7  H21 UNL     1      30.823  34.678  25.512  1.00  0.00     0.174 HD
ATOM      8  H22 UNL     1      29.307  35.278  25.985  1.00  0.00     0.174 HD
HETATM    9  N3  UNL     1      29.807  33.065  23.766  1.00  0.00    -0.154 N 
ATOM     10  H3  UNL     1      30.824  33.017  23.830  1.00  0.00     0.187 HD
HETATM   11  C8  UNL     1      29.184  32.308  22.893  1.00  0.00     0.288 A 
HETATM   12  O1  UNL     1      29.906  31.528  22.155  1.00  0.00    -0.265 OA
HETATM   13  C9  UNL     1      27.814  32.308  22.737  1.00  0.00     0.132 A 
HETATM   14  N4  UNL     1      27.179  31.577  21.805  1.00  0.00    -0.344 N 
ATOM     15  H4  UNL     1      27.706  30.954  21.191  1.00  0.00     0.167 HD
HETATM   16  C10 UNL     1      25.845  31.673  21.689  1.00  0.00     0.214 A 
HETATM   17  N5  UNL     1      25.121  32.497  22.492  1.00  0.00    -0.222 N 
ENDROOT
BRANCH   1  18
HETATM   18  C3  UNL     1      24.958  34.042  24.351  1.00  0.00     0.058 C 
HETATM   19  C4  UNL     1      23.450  33.898  23.957  1.00  0.00     0.021 C 
BRANCH  18  20
HETATM   20  C2  UNL     1      24.922  33.362  25.745  1.00  0.00    -0.026 C 
HETATM   21  C1  UNL     1      25.030  32.016  25.806  1.00  0.00     0.007 C 
ENDBRANCH  18  20
ENDBRANCH   1  18
BRANCH  17  22
HETATM   22  O2  UNL     1      23.781  32.414  22.294  1.00  0.00    -0.282 OA
ATOM     23  H2  UNL     1      23.251  31.651  22.494  1.00  0.00     0.245 HD
ENDBRANCH  17  22
TORSDOF 3
ENDMDL
MODEL 5
REMARK VINA RESULT: -5.021852048      2.014      3.501
REMARK  3 active torsions:
REMARK  status: ('A' for Active; 'I' for Inactive)
REMARK    1  A    between atoms: C2_2  and  C3_3 
REMARK    2  A    between atoms: C3_3  and  C5_5 
REMARK    3  A    between atoms: N5_21  and  O2_22 
ROOT
HETATM    1  C5  UNL     1      27.371  31.879  25.287  1.00  0.00     0.078 A 
HETATM    2  C6  UNL     1      26.911  32.383  24.074  1.00  0.00     0.107 A 
HETATM    3  N1  UNL     1      27.717  32.885  23.163  1.00  0.00    -0.188 N 
ATOM      4  H1  UNL     1      28.713  32.841  23.380  1.00  0.00     0.184 HD
HETATM    5  C7  UNL     1      27.398  33.449  21.981  1.00  0.00     0.679 A 
HETATM    6  N2  UNL     1      28.101  33.984  21.101  1.00  0.00    -0.234 N 
ATOM      7  H21 UNL     1      27.860  34.411  20.206  1.00  0.00     0.174 HD
ATOM      8  H22 UNL     1      29.107  33.974  21.273  1.00  0.00     0.174 HD
HETATM    9  N3  UNL     1      26.011  33.464  21.744  1.00  0.00    -0.154 N 
ATOM     10  H3  UNL     1      25.659  33.864  20.873  1.00  0.00     0.187 HD
HETATM   11  C8  UNL     1      25.157  32.976  22.614  1.00  0.00     0.288 A 
HETATM   12  O1  UNL     1      23.900  33.026  22.313  1.00  0.00    -0.265 OA
HETATM   13  C9  UNL     1      25.542  32.418  23.816  1.00  0.00     0.132 A 
HETATM   14  N4  UNL     1      24.667  31.971  24.733  1.00  0.00    -0.344 N 
ATOM     15  H4  UNL     1      23.664  31.999  24.546  1.00  0.00     0.167 HD
HETATM   16  C10 UNL     1      25.125  31.486  25.897  1.00  0.00     0.214 A 
HETATM   17  N5  UNL     1      26.456  31.441  26.172  1.00  0.00    -0.222 N 
ENDROOT
BRANCH   1  18
HETATM   18  C3  UNL     1      28.768  31.747  25.519  1.00  0.00     0.058 C 
HETATM   19  C4  UNL     1      29.303  30.655  24.533  1.00  0.00     0.021 C 
BRANCH  18  20
HETATM   20  C2  UNL     1      29.524  32.982  24.962  1.00  0.00    -0.026 C 
HETATM   21  C1  UNL     1      29.410  34.157  25.622  1.00  0.00     0.007 C 
ENDBRANCH  18  20
ENDBRANCH   1  18
BRANCH  17  22
HETATM   22  O2  UNL     1      26.749  30.850  27.359  1.00  0.00    -0.282 OA
ATOM     23  H2  UNL     1      27.606  30.852  27.767  1.00  0.00     0.245 HD
ENDBRANCH  17  22
TORSDOF 3
ENDMDL
