MODEL 1
REMARK VINA RESULT: -6.072559425      0.000      0.000
REMARK  3 active torsions:
REMARK  status: ('A' for Active; 'I' for Inactive)
REMARK    1  A    between atoms: C3_5  and  N2_6 
REMARK    2  A    between atoms: N2_6  and  S1_8 
REMARK    3  A    between atoms: S1_8  and  C4_11 
ROOT
HETATM    1  S1  UNL     1      14.525  44.946  17.512  1.00  0.00     0.292 S 
HETATM    2  O1  UNL     1      14.777  43.471  17.624  1.00  0.00    -0.198 OA
HETATM    3  O2  UNL     1      14.297  45.374  16.096  1.00  0.00    -0.198 OA
ENDROOT
BRANCH   1   4
HETATM    4  N2  UNL     1      15.848  45.871  18.124  1.00  0.00    -0.110 N 
ATOM      5  H2  UNL     1      16.049  46.796  17.743  1.00  0.00     0.197 HD
BRANCH   4   6
HETATM    6  C3  UNL     1      16.579  45.381  19.068  1.00  0.00     0.708 A 
HETATM    7  N1  UNL     1      17.678  45.943  19.630  1.00  0.00    -0.178 N 
HETATM    8  C2  UNL     1      18.170  45.135  20.580  1.00  0.00     0.108 A 
ATOM      9  H1  UNL     1      18.072  46.847  19.369  1.00  0.00     0.185 HD
HETATM   10  C1  UNL     1      19.359  45.356  21.445  1.00  0.00     0.091 C 
HETATM   11  N5  UNL     1      17.354  44.066  20.592  1.00  0.00    -0.275 N 
HETATM   12  N4  UNL     1      16.400  44.201  19.692  1.00  0.00    -0.130 N 
ATOM     13  H5  UNL     1      17.459  43.261  21.210  1.00  0.00     0.189 HD
ATOM     14  H4  UNL     1      15.656  43.529  19.502  1.00  0.00     0.205 HD
ENDBRANCH   4   6
ENDBRANCH   1   4
BRANCH   1  15
HETATM   15  C4  UNL     1      13.064  45.288  18.406  1.00  0.00     0.157 A 
HETATM   16  N3  UNL     1      12.926  45.940  19.585  1.00  0.00    -0.348 N 
HETATM   17  C5  UNL     1      11.632  45.998  19.943  1.00  0.00     0.024 A 
ATOM     18  H3  UNL     1      13.696  46.333  20.125  1.00  0.00     0.166 HD
HETATM   19  C6  UNL     1      11.001  46.606  21.142  1.00  0.00     0.069 C 
HETATM   20  C7  UNL     1      10.925  45.349  18.936  1.00  0.00     0.042 A 
HETATM   21 BR1  UNL     1       9.030  45.082  18.838  1.00  0.00    -0.048 Br
HETATM   22  C8  UNL     1      11.811  44.905  17.977  1.00  0.00    -0.003 A 
HETATM   23  C9  UNL     1      11.440  44.158  16.730  1.00  0.00     0.053 C 
ENDBRANCH   1  15
TORSDOF 3
ENDMDL
MODEL 2
REMARK VINA RESULT: -6.050578614      1.418      1.610
REMARK  3 active torsions:
REMARK  status: ('A' for Active; 'I' for Inactive)
REMARK    1  A    between atoms: C3_5  and  N2_6 
REMARK    2  A    between atoms: N2_6  and  S1_8 
REMARK    3  A    between atoms: S1_8  and  C4_11 
ROOT
HETATM    1  S1  UNL     1      14.268  45.125  18.117  1.00  0.00     0.292 S 
HETATM    2  O1  UNL     1      14.243  43.685  17.695  1.00  0.00    -0.198 OA
HETATM    3  O2  UNL     1      14.399  46.054  16.951  1.00  0.00    -0.198 OA
ENDROOT
BRANCH   1   4
HETATM    4  N2  UNL     1      15.579  45.456  19.190  1.00  0.00    -0.110 N 
ATOM      5  H2  UNL     1      15.433  46.027  20.022  1.00  0.00     0.197 HD
BRANCH   4   6
HETATM    6  C3  UNL     1      16.747  44.974  18.927  1.00  0.00     0.708 A 
HETATM    7  N1  UNL     1      17.408  45.025  17.743  1.00  0.00    -0.178 N 
HETATM    8  C2  UNL     1      18.596  44.414  17.857  1.00  0.00     0.108 A 
ATOM      9  H1  UNL     1      17.054  45.462  16.893  1.00  0.00     0.185 HD
HETATM   10  C1  UNL     1      19.639  44.238  16.811  1.00  0.00     0.091 C 
HETATM   11  N5  UNL     1      18.654  43.987  19.130  1.00  0.00    -0.275 N 
HETATM   12  N4  UNL     1      17.555  44.315  19.780  1.00  0.00    -0.130 N 
ATOM     13  H5  UNL     1      19.440  43.479  19.538  1.00  0.00     0.189 HD
ATOM     14  H4  UNL     1      17.352  44.106  20.757  1.00  0.00     0.205 HD
ENDBRANCH   4   6
ENDBRANCH   1   4
BRANCH   1  15
HETATM   15  C4  UNL     1      12.737  45.463  18.888  1.00  0.00     0.157 A 
HETATM   16  N3  UNL     1      12.499  46.136  20.038  1.00  0.00    -0.348 N 
HETATM   17  C5  UNL     1      11.181  46.181  20.295  1.00  0.00     0.024 A 
ATOM     18  H3  UNL     1      13.219  46.552  20.628  1.00  0.00     0.166 HD
HETATM   19  C6  UNL     1      10.450  46.803  21.428  1.00  0.00     0.069 C 
HETATM   20  C7  UNL     1      10.563  45.500  19.250  1.00  0.00     0.042 A 
HETATM   21 BR1  UNL     1       8.685  45.202  19.012  1.00  0.00    -0.048 Br
HETATM   22  C8  UNL     1      11.527  45.051  18.372  1.00  0.00    -0.003 A 
HETATM   23  C9  UNL     1      11.264  44.273  17.117  1.00  0.00     0.053 C 
ENDBRANCH   1  15
TORSDOF 3
ENDMDL
MODEL 3
REMARK VINA RESULT: -5.909690549      3.100      4.459
REMARK  3 active torsions:
REMARK  status: ('A' for Active; 'I' for Inactive)
REMARK    1  A    between atoms: C3_5  and  N2_6 
REMARK    2  A    between atoms: N2_6  and  S1_8 
REMARK    3  A    between atoms: S1_8  and  C4_11 
ROOT
HETATM    1  S1  UNL     1      14.235  44.659  17.507  1.00  0.00     0.292 S 
HETATM    2  O1  UNL     1      14.187  45.405  16.207  1.00  0.00    -0.198 OA
HETATM    3  O2  UNL     1      15.445  45.010  18.316  1.00  0.00    -0.198 OA
ENDROOT
BRANCH   1   4
HETATM    4  N2  UNL     1      14.255  42.950  17.267  1.00  0.00    -0.110 N 
ATOM      5  H2  UNL     1      14.066  42.318  18.044  1.00  0.00     0.197 HD
BRANCH   4   6
HETATM    6  C3  UNL     1      14.510  42.480  16.092  1.00  0.00     0.708 A 
HETATM    7  N1  UNL     1      14.045  41.327  15.550  1.00  0.00    -0.178 N 
HETATM    8  C2  UNL     1      14.530  41.176  14.310  1.00  0.00     0.108 A 
ATOM      9  H1  UNL     1      13.419  40.671  16.018  1.00  0.00     0.185 HD
HETATM   10  C1  UNL     1      14.279  40.061  13.358  1.00  0.00     0.091 C 
HETATM   11  N5  UNL     1      15.302  42.256  14.098  1.00  0.00    -0.275 N 
HETATM   12  N4  UNL     1      15.298  43.043  15.156  1.00  0.00    -0.130 N 
ATOM     13  H5  UNL     1      15.819  42.442  13.238  1.00  0.00     0.189 HD
ATOM     14  H4  UNL     1      15.805  43.923  15.249  1.00  0.00     0.205 HD
ENDBRANCH   4   6
ENDBRANCH   1   4
BRANCH   1  15
HETATM   15  C4  UNL     1      12.830  45.138  18.429  1.00  0.00     0.157 A 
HETATM   16  N3  UNL     1      12.776  45.834  19.589  1.00  0.00    -0.348 N 
HETATM   17  C5  UNL     1      11.501  46.000  19.980  1.00  0.00     0.024 A 
ATOM     18  H3  UNL     1      13.589  46.183  20.096  1.00  0.00     0.166 HD
HETATM   19  C6  UNL     1      10.952  46.690  21.176  1.00  0.00     0.069 C 
HETATM   20  C7  UNL     1      10.718  45.376  19.014  1.00  0.00     0.042 A 
HETATM   21 BR1  UNL     1       8.806  45.251  18.976  1.00  0.00    -0.048 Br
HETATM   22  C8  UNL     1      11.540  44.838  18.046  1.00  0.00    -0.003 A 
HETATM   23  C9  UNL     1      11.077  44.084  16.835  1.00  0.00     0.053 C 
ENDBRANCH   1  15
TORSDOF 3
ENDMDL
MODEL 4
REMARK VINA RESULT: -5.802854524      2.985      3.961
REMARK  3 active torsions:
REMARK  status: ('A' for Active; 'I' for Inactive)
REMARK    1  A    between atoms: C3_5  and  N2_6 
REMARK    2  A    between atoms: N2_6  and  S1_8 
REMARK    3  A    between atoms: S1_8  and  C4_11 
ROOT
HETATM    1  S1  UNL     1      14.430  44.701  17.780  1.00  0.00     0.292 S 
HETATM    2  O1  UNL     1      15.578  44.996  18.699  1.00  0.00    -0.198 OA
HETATM    3  O2  UNL     1      14.318  43.241  17.466  1.00  0.00    -0.198 OA
ENDROOT
BRANCH   1   4
HETATM    4  N2  UNL     1      14.576  45.541  16.279  1.00  0.00    -0.110 N 
ATOM      5  H2  UNL     1      14.689  45.024  15.408  1.00  0.00     0.197 HD
BRANCH   4   6
HETATM    6  C3  UNL     1      14.540  46.831  16.272  1.00  0.00     0.708 A 
HETATM    7  N1  UNL     1      13.808  47.627  15.451  1.00  0.00    -0.178 N 
HETATM    8  C2  UNL     1      14.033  48.915  15.744  1.00  0.00     0.108 A 
ATOM      9  H1  UNL     1      13.181  47.293  14.720  1.00  0.00     0.185 HD
HETATM   10  C1  UNL     1      13.443  50.118  15.098  1.00  0.00     0.091 C 
HETATM   11  N5  UNL     1      14.916  48.899  16.758  1.00  0.00    -0.275 N 
HETATM   12  N4  UNL     1      15.226  47.659  17.082  1.00  0.00    -0.130 N 
ATOM     13  H5  UNL     1      15.294  49.730  17.214  1.00  0.00     0.189 HD
ATOM     14  H4  UNL     1      15.874  47.377  17.818  1.00  0.00     0.205 HD
ENDBRANCH   4   6
ENDBRANCH   1   4
BRANCH   1  15
HETATM   15  C4  UNL     1      12.969  45.172  18.613  1.00  0.00     0.157 A 
HETATM   16  N3  UNL     1      12.838  45.890  19.754  1.00  0.00    -0.348 N 
HETATM   17  C5  UNL     1      11.541  46.040  20.072  1.00  0.00     0.024 A 
ATOM     18  H3  UNL     1      13.616  46.265  20.297  1.00  0.00     0.166 HD
HETATM   19  C6  UNL     1      10.916  46.744  21.220  1.00  0.00     0.069 C 
HETATM   20  C7  UNL     1      10.823  45.382  19.078  1.00  0.00     0.042 A 
HETATM   21 BR1  UNL     1       8.919  45.220  18.939  1.00  0.00    -0.048 Br
HETATM   22  C8  UNL     1      11.707  44.840  18.168  1.00  0.00    -0.003 A 
HETATM   23  C9  UNL     1      11.324  44.053  16.949  1.00  0.00     0.053 C 
ENDBRANCH   1  15
TORSDOF 3
ENDMDL
MODEL 5
REMARK VINA RESULT: -5.769051446      1.267      1.672
REMARK  3 active torsions:
REMARK  status: ('A' for Active; 'I' for Inactive)
REMARK    1  A    between atoms: C3_5  and  N2_6 
REMARK    2  A    between atoms: N2_6  and  S1_8 
REMARK    3  A    between atoms: S1_8  and  C4_11 
ROOT
HETATM    1  S1  UNL     1      14.253  44.321  17.525  1.00  0.00     0.292 S 
HETATM    2  O1  UNL     1      13.944  42.908  17.124  1.00  0.00    -0.198 OA
HETATM    3  O2  UNL     1      14.448  45.214  16.339  1.00  0.00    -0.198 OA
ENDROOT
BRANCH   1   4
HETATM    4  N2  UNL     1      15.684  44.418  18.484  1.00  0.00    -0.110 N 
ATOM      5  H2  UNL     1      15.977  43.625  19.054  1.00  0.00     0.197 HD
BRANCH   4   6
HETATM    6  C3  UNL     1      16.379  45.506  18.473  1.00  0.00     0.708 A 
HETATM    7  N1  UNL     1      17.652  45.670  18.912  1.00  0.00    -0.178 N 
HETATM    8  C2  UNL     1      18.035  46.943  18.737  1.00  0.00     0.108 A 
ATOM      9  H1  UNL     1      18.231  44.935  19.317  1.00  0.00     0.185 HD
HETATM   10  C1  UNL     1      19.346  47.559  19.075  1.00  0.00     0.091 C 
HETATM   11  N5  UNL     1      16.976  47.558  18.182  1.00  0.00    -0.275 N 
HETATM   12  N4  UNL     1      15.980  46.710  18.020  1.00  0.00    -0.130 N 
ATOM     13  H5  UNL     1      16.947  48.544  17.923  1.00  0.00     0.189 HD
ATOM     14  H4  UNL     1      15.067  46.928  17.621  1.00  0.00     0.205 HD
ENDBRANCH   4   6
ENDBRANCH   1   4
BRANCH   1  15
HETATM   15  C4  UNL     1      12.871  44.918  18.411  1.00  0.00     0.157 A 
HETATM   16  N3  UNL     1      12.847  45.624  19.566  1.00  0.00    -0.348 N 
HETATM   17  C5  UNL     1      11.581  45.896  19.927  1.00  0.00     0.024 A 
ATOM     18  H3  UNL     1      13.674  45.909  20.090  1.00  0.00     0.166 HD
HETATM   19  C6  UNL     1      11.064  46.635  21.106  1.00  0.00     0.069 C 
HETATM   20  C7  UNL     1      10.772  45.331  18.946  1.00  0.00     0.042 A 
HETATM   21 BR1  UNL     1       8.858  45.361  18.864  1.00  0.00    -0.048 Br
HETATM   22  C8  UNL     1      11.570  44.722  18.000  1.00  0.00    -0.003 A 
HETATM   23  C9  UNL     1      11.075  44.000  16.782  1.00  0.00     0.053 C 
ENDBRANCH   1  15
TORSDOF 3
ENDMDL
