MODEL 1
REMARK VINA RESULT: -5.570937768      0.000      0.000
REMARK  8 active torsions:
REMARK  status: ('A' for Active; 'I' for Inactive)
REMARK    1  A    between atoms: C2_2  and  C5_5 
REMARK    2  A    between atoms: C6_6  and  C7_7 
REMARK    3  A    between atoms: C8_8  and  C9_9 
REMARK    4  A    between atoms: C9_9  and  O1_10 
REMARK       I    between atoms: N1_16  and  C14_17 
REMARK       I    between atoms: C14_17  and  N2_19 
REMARK    5  A    between atoms: N2_19  and  C15_21 
REMARK    6  A    between atoms: C15_21  and  C16_22 
REMARK    7  A    between atoms: C16_22  and  C17_23 
REMARK    8  A    between atoms: C18_25  and  O3_26 
ROOT
HETATM    1  C9  UNL     1      15.040  44.627  17.661  1.00  0.00     0.149 C 
HETATM    2  C10 UNL     1      14.569  43.719  16.574  1.00  0.00     0.080 C 
HETATM    3  C11 UNL     1      15.775  43.727  15.632  1.00  0.00     0.101 C 
HETATM    4  C12 UNL     1      16.228  45.168  15.677  1.00  0.00     0.059 C 
HETATM    5  C13 UNL     1      15.373  45.300  14.429  1.00  0.00     0.137 C 
HETATM    6  N1  UNL     1      15.450  43.869  14.252  1.00  0.00    -0.328 N 
HETATM    7  C14 UNL     1      15.282  42.917  13.179  1.00  0.00     0.318 C 
HETATM    8  O2  UNL     1      14.988  43.395  12.058  1.00  0.00    -0.247 OA
HETATM    9  N2  UNL     1      15.442  41.538  13.388  1.00  0.00    -0.343 N 
ATOM     10  H2  UNL     1      15.686  41.207  14.321  1.00  0.00     0.164 HD
HETATM   11  C18 UNL     1      15.646  45.783  16.914  1.00  0.00     0.172 C 
ENDROOT
BRANCH   1  12
HETATM   12  C8  UNL     1      13.912  45.085  18.476  1.00  0.00    -0.051 C 
HETATM   13  C7  UNL     1      12.972  45.475  19.133  1.00  0.00    -0.012 C 
BRANCH  13  14
HETATM   14  C6  UNL     1      11.865  45.946  19.883  1.00  0.00    -0.014 C 
HETATM   15  C5  UNL     1      10.909  46.364  20.511  1.00  0.00    -0.084 C 
BRANCH  15  16
HETATM   16  C2  UNL     1       9.745  46.865  21.245  1.00  0.00     0.013 C 
HETATM   17  C1  UNL     1       9.755  48.361  21.203  1.00  0.00     0.028 C 
HETATM   18  C3  UNL     1       8.504  46.263  20.636  1.00  0.00     0.028 C 
HETATM   19  C4  UNL     1       9.823  46.444  22.719  1.00  0.00     0.028 C 
ENDBRANCH  15  16
ENDBRANCH  13  14
ENDBRANCH   1  12
BRANCH   1  20
HETATM   20  O1  UNL     1      16.012  43.998  18.410  1.00  0.00    -0.375 OA
ATOM     21  H1  UNL     1      16.213  43.126  18.088  1.00  0.00     0.212 HD
ENDBRANCH   1  20
BRANCH  11  22
HETATM   22  O3  UNL     1      16.721  46.307  17.657  1.00  0.00    -0.391 OA
ATOM     23  H3  UNL     1      17.165  46.971  17.142  1.00  0.00     0.210 HD
ENDBRANCH  11  22
BRANCH   9  24
HETATM   24  C15 UNL     1      15.274  40.580  12.339  1.00  0.00     0.127 C 
BRANCH  24  25
HETATM   25  C16 UNL     1      14.347  39.467  12.752  1.00  0.00     0.051 C 
BRANCH  25  26
HETATM   26  C17 UNL     1      13.043  40.044  13.276  1.00  0.00     0.224 C 
HETATM   27  F1  UNL     1      13.019  39.818  14.638  1.00  0.00    -0.255 F 
ENDBRANCH  25  26
ENDBRANCH  24  25
ENDBRANCH   9  24
TORSDOF 8
ENDMDL
MODEL 2
REMARK VINA RESULT: -5.427548018      1.283      1.420
REMARK  8 active torsions:
REMARK  status: ('A' for Active; 'I' for Inactive)
REMARK    1  A    between atoms: C2_2  and  C5_5 
REMARK    2  A    between atoms: C6_6  and  C7_7 
REMARK    3  A    between atoms: C8_8  and  C9_9 
REMARK    4  A    between atoms: C9_9  and  O1_10 
REMARK       I    between atoms: N1_16  and  C14_17 
REMARK       I    between atoms: C14_17  and  N2_19 
REMARK    5  A    between atoms: N2_19  and  C15_21 
REMARK    6  A    between atoms: C15_21  and  C16_22 
REMARK    7  A    between atoms: C16_22  and  C17_23 
REMARK    8  A    between atoms: C18_25  and  O3_26 
ROOT
HETATM    1  C9  UNL     1      15.469  44.781  17.901  1.00  0.00     0.149 C 
HETATM    2  C10 UNL     1      15.150  44.332  16.514  1.00  0.00     0.080 C 
HETATM    3  C11 UNL     1      16.526  44.407  15.849  1.00  0.00     0.101 C 
HETATM    4  C12 UNL     1      17.117  45.667  16.437  1.00  0.00     0.059 C 
HETATM    5  C13 UNL     1      16.576  46.310  15.171  1.00  0.00     0.137 C 
HETATM    6  N1  UNL     1      16.529  45.004  14.556  1.00  0.00    -0.328 N 
HETATM    7  C14 UNL     1      16.495  44.457  13.220  1.00  0.00     0.318 C 
HETATM    8  O2  UNL     1      16.510  45.288  12.281  1.00  0.00    -0.247 OA
HETATM    9  N2  UNL     1      16.450  43.072  12.994  1.00  0.00    -0.343 N 
ATOM     10  H2  UNL     1      16.445  42.443  13.796  1.00  0.00     0.164 HD
HETATM   11  C18 UNL     1      16.350  45.982  17.686  1.00  0.00     0.172 C 
ENDROOT
BRANCH   1  12
HETATM   12  C8  UNL     1      14.249  45.169  18.613  1.00  0.00    -0.051 C 
HETATM   13  C7  UNL     1      13.243  45.510  19.195  1.00  0.00    -0.012 C 
BRANCH  13  14
HETATM   14  C6  UNL     1      12.072  45.932  19.873  1.00  0.00    -0.014 C 
HETATM   15  C5  UNL     1      11.067  46.314  20.444  1.00  0.00    -0.084 C 
BRANCH  15  16
HETATM   16  C2  UNL     1       9.848  46.781  21.109  1.00  0.00     0.013 C 
HETATM   17  C1  UNL     1       9.833  48.278  21.094  1.00  0.00     0.028 C 
HETATM   18  C3  UNL     1       8.661  46.169  20.409  1.00  0.00     0.028 C 
HETATM   19  C4  UNL     1       9.837  46.333  22.577  1.00  0.00     0.028 C 
ENDBRANCH  15  16
ENDBRANCH  13  14
ENDBRANCH   1  12
BRANCH   1  20
HETATM   20  O1  UNL     1      16.177  43.799  18.561  1.00  0.00    -0.375 OA
ATOM     21  H1  UNL     1      16.477  43.112  17.977  1.00  0.00     0.212 HD
ENDBRANCH   1  20
BRANCH  11  22
HETATM   22  O3  UNL     1      17.288  46.065  18.733  1.00  0.00    -0.391 OA
ATOM     23  H3  UNL     1      17.571  45.191  18.972  1.00  0.00     0.210 HD
ENDBRANCH  11  22
BRANCH   9  24
HETATM   24  C15 UNL     1      16.410  42.511  11.678  1.00  0.00     0.127 C 
BRANCH  24  25
HETATM   25  C16 UNL     1      15.672  41.198  11.661  1.00  0.00     0.051 C 
BRANCH  25  26
HETATM   26  C17 UNL     1      14.836  41.055  12.922  1.00  0.00     0.224 C 
HETATM   27  F1  UNL     1      15.451  40.098  13.707  1.00  0.00    -0.255 F 
ENDBRANCH  25  26
ENDBRANCH  24  25
ENDBRANCH   9  24
TORSDOF 8
ENDMDL
MODEL 3
REMARK VINA RESULT: -5.219765387      1.119      1.196
REMARK  8 active torsions:
REMARK  status: ('A' for Active; 'I' for Inactive)
REMARK    1  A    between atoms: C2_2  and  C5_5 
REMARK    2  A    between atoms: C6_6  and  C7_7 
REMARK    3  A    between atoms: C8_8  and  C9_9 
REMARK    4  A    between atoms: C9_9  and  O1_10 
REMARK       I    between atoms: N1_16  and  C14_17 
REMARK       I    between atoms: C14_17  and  N2_19 
REMARK    5  A    between atoms: N2_19  and  C15_21 
REMARK    6  A    between atoms: C15_21  and  C16_22 
REMARK    7  A    between atoms: C16_22  and  C17_23 
REMARK    8  A    between atoms: C18_25  and  O3_26 
ROOT
HETATM    1  C9  UNL     1      14.547  44.132  17.255  1.00  0.00     0.149 C 
HETATM    2  C10 UNL     1      13.921  43.093  16.385  1.00  0.00     0.080 C 
HETATM    3  C11 UNL     1      14.979  42.941  15.289  1.00  0.00     0.101 C 
HETATM    4  C12 UNL     1      15.439  44.362  15.065  1.00  0.00     0.059 C 
HETATM    5  C13 UNL     1      14.414  44.340  13.945  1.00  0.00     0.137 C 
HETATM    6  N1  UNL     1      14.459  42.896  13.964  1.00  0.00    -0.328 N 
HETATM    7  C14 UNL     1      14.135  41.809  13.071  1.00  0.00     0.318 C 
HETATM    8  O2  UNL     1      13.685  42.133  11.946  1.00  0.00    -0.247 OA
HETATM    9  N2  UNL     1      14.318  40.469  13.447  1.00  0.00    -0.343 N 
ATOM     10  H2  UNL     1      14.693  40.265  14.374  1.00  0.00     0.164 HD
HETATM   11  C18 UNL     1      15.043  45.158  16.273  1.00  0.00     0.172 C 
ENDROOT
BRANCH   1  12
HETATM   12  C8  UNL     1      13.550  44.726  18.148  1.00  0.00    -0.051 C 
HETATM   13  C7  UNL     1      12.710  45.215  18.871  1.00  0.00    -0.012 C 
BRANCH  13  14
HETATM   14  C6  UNL     1      11.712  45.789  19.699  1.00  0.00    -0.014 C 
HETATM   15  C5  UNL     1      10.841  46.281  20.393  1.00  0.00    -0.084 C 
BRANCH  15  16
HETATM   16  C2  UNL     1       9.776  46.859  21.217  1.00  0.00     0.013 C 
HETATM   17  C1  UNL     1       9.881  48.351  21.167  1.00  0.00     0.028 C 
HETATM   18  C3  UNL     1       8.453  46.340  20.714  1.00  0.00     0.028 C 
HETATM   19  C4  UNL     1       9.946  46.432  22.681  1.00  0.00     0.028 C 
ENDBRANCH  15  16
ENDBRANCH  13  14
ENDBRANCH   1  12
BRANCH   1  20
HETATM   20  O1  UNL     1      15.614  43.590  17.939  1.00  0.00    -0.375 OA
ATOM     21  H1  UNL     1      15.389  43.343  18.829  1.00  0.00     0.212 HD
ENDBRANCH   1  20
BRANCH  11  22
HETATM   22  O3  UNL     1      16.216  45.754  16.775  1.00  0.00    -0.391 OA
ATOM     23  H3  UNL     1      16.199  46.685  16.589  1.00  0.00     0.210 HD
ENDBRANCH  11  22
BRANCH   9  24
HETATM   24  C15 UNL     1      13.998  39.378  12.578  1.00  0.00     0.127 C 
BRANCH  24  25
HETATM   25  C16 UNL     1      13.012  38.436  13.218  1.00  0.00     0.051 C 
BRANCH  25  26
HETATM   26  C17 UNL     1      11.697  39.154  13.474  1.00  0.00     0.224 C 
HETATM   27  F1  UNL     1      11.171  38.630  14.638  1.00  0.00    -0.255 F 
ENDBRANCH  25  26
ENDBRANCH  24  25
ENDBRANCH   9  24
TORSDOF 8
ENDMDL
MODEL 4
REMARK VINA RESULT: -5.205322958      0.855      1.254
REMARK  8 active torsions:
REMARK  status: ('A' for Active; 'I' for Inactive)
REMARK    1  A    between atoms: C2_2  and  C5_5 
REMARK    2  A    between atoms: C6_6  and  C7_7 
REMARK    3  A    between atoms: C8_8  and  C9_9 
REMARK    4  A    between atoms: C9_9  and  O1_10 
REMARK       I    between atoms: N1_16  and  C14_17 
REMARK       I    between atoms: C14_17  and  N2_19 
REMARK    5  A    between atoms: N2_19  and  C15_21 
REMARK    6  A    between atoms: C15_21  and  C16_22 
REMARK    7  A    between atoms: C16_22  and  C17_23 
REMARK    8  A    between atoms: C18_25  and  O3_26 
ROOT
HETATM    1  C9  UNL     1      15.296  44.761  17.883  1.00  0.00     0.149 C 
HETATM    2  C10 UNL     1      14.918  44.128  16.586  1.00  0.00     0.080 C 
HETATM    3  C11 UNL     1      16.248  44.172  15.830  1.00  0.00     0.101 C 
HETATM    4  C12 UNL     1      16.811  45.519  16.218  1.00  0.00     0.059 C 
HETATM    5  C13 UNL     1      16.168  45.974  14.920  1.00  0.00     0.137 C 
HETATM    6  N1  UNL     1      16.147  44.600  14.475  1.00  0.00    -0.328 N 
HETATM    7  C14 UNL     1      16.062  43.887  13.223  1.00  0.00     0.318 C 
HETATM    8  O2  UNL     1      15.982  44.592  12.189  1.00  0.00    -0.247 OA
HETATM    9  N2  UNL     1      16.070  42.484  13.173  1.00  0.00    -0.343 N 
ATOM     10  H2  UNL     1      16.142  41.962  14.047  1.00  0.00     0.164 HD
HETATM   11  C18 UNL     1      16.105  45.959  17.465  1.00  0.00     0.172 C 
ENDROOT
BRANCH   1  12
HETATM   12  C8  UNL     1      14.103  45.187  18.617  1.00  0.00    -0.051 C 
HETATM   13  C7  UNL     1      13.116  45.557  19.214  1.00  0.00    -0.012 C 
BRANCH  13  14
HETATM   14  C6  UNL     1      11.963  46.013  19.903  1.00  0.00    -0.014 C 
HETATM   15  C5  UNL     1      10.976  46.388  20.508  1.00  0.00    -0.084 C 
BRANCH  15  16
HETATM   16  C2  UNL     1       9.799  46.835  21.258  1.00  0.00     0.013 C 
HETATM   17  C1  UNL     1       9.902  46.331  22.663  1.00  0.00     0.028 C 
HETATM   18  C3  UNL     1       9.724  48.339  21.171  1.00  0.00     0.028 C 
HETATM   19  C4  UNL     1       8.522  46.244  20.647  1.00  0.00     0.028 C 
ENDBRANCH  15  16
ENDBRANCH  13  14
ENDBRANCH   1  12
BRANCH   1  20
HETATM   20  O1  UNL     1      16.088  43.899  18.613  1.00  0.00    -0.375 OA
ATOM     21  H1  UNL     1      15.643  43.087  18.824  1.00  0.00     0.212 HD
ENDBRANCH   1  20
BRANCH  11  22
HETATM   22  O3  UNL     1      17.097  46.212  18.431  1.00  0.00    -0.391 OA
ATOM     23  H3  UNL     1      17.953  46.050  18.053  1.00  0.00     0.210 HD
ENDBRANCH  11  22
BRANCH   9  24
HETATM   24  C15 UNL     1      15.980  41.759  11.943  1.00  0.00     0.127 C 
BRANCH  24  25
HETATM   25  C16 UNL     1      14.958  40.657  12.026  1.00  0.00     0.051 C 
BRANCH  25  26
HETATM   26  C17 UNL     1      13.620  41.220  12.477  1.00  0.00     0.224 C 
HETATM   27  F1  UNL     1      13.408  40.772  13.766  1.00  0.00    -0.255 F 
ENDBRANCH  25  26
ENDBRANCH  24  25
ENDBRANCH   9  24
TORSDOF 8
ENDMDL
MODEL 5
REMARK VINA RESULT: -5.133717882      4.455      8.535
REMARK  8 active torsions:
REMARK  status: ('A' for Active; 'I' for Inactive)
REMARK    1  A    between atoms: C2_2  and  C5_5 
REMARK    2  A    between atoms: C6_6  and  C7_7 
REMARK    3  A    between atoms: C8_8  and  C9_9 
REMARK    4  A    between atoms: C9_9  and  O1_10 
REMARK       I    between atoms: N1_16  and  C14_17 
REMARK       I    between atoms: C14_17  and  N2_19 
REMARK    5  A    between atoms: N2_19  and  C15_21 
REMARK    6  A    between atoms: C15_21  and  C16_22 
REMARK    7  A    between atoms: C16_22  and  C17_23 
REMARK    8  A    between atoms: C18_25  and  O3_26 
ROOT
HETATM    1  C9  UNL     1      14.217  45.197  17.805  1.00  0.00     0.149 C 
HETATM    2  C10 UNL     1      12.997  45.905  18.293  1.00  0.00     0.080 C 
HETATM    3  C11 UNL     1      12.145  44.733  18.784  1.00  0.00     0.101 C 
HETATM    4  C12 UNL     1      12.397  43.672  17.739  1.00  0.00     0.059 C 
HETATM    5  C13 UNL     1      11.121  44.216  17.121  1.00  0.00     0.137 C 
HETATM    6  N1  UNL     1      10.775  44.793  18.399  1.00  0.00    -0.328 N 
HETATM    7  C14 UNL     1       9.584  45.257  19.071  1.00  0.00     0.318 C 
HETATM    8  O2  UNL     1       8.513  45.163  18.425  1.00  0.00    -0.247 OA
HETATM    9  N2  UNL     1       9.631  45.780  20.373  1.00  0.00    -0.343 N 
ATOM     10  H2  UNL     1      10.530  45.827  20.851  1.00  0.00     0.164 HD
HETATM   11  C18 UNL     1      13.659  44.041  17.019  1.00  0.00     0.172 C 
ENDROOT
BRANCH   1  12
HETATM   12  C8  UNL     1      15.006  46.069  16.932  1.00  0.00    -0.051 C 
HETATM   13  C7  UNL     1      15.662  46.803  16.227  1.00  0.00    -0.012 C 
BRANCH  13  14
HETATM   14  C6  UNL     1      16.431  47.680  15.420  1.00  0.00    -0.014 C 
HETATM   15  C5  UNL     1      17.086  48.420  14.709  1.00  0.00    -0.084 C 
BRANCH  15  16
HETATM   16  C2  UNL     1      17.856  49.311  13.838  1.00  0.00     0.013 C 
HETATM   17  C1  UNL     1      17.698  48.856  12.420  1.00  0.00     0.028 C 
HETATM   18  C3  UNL     1      17.379  50.724  14.063  1.00  0.00     0.028 C 
HETATM   19  C4  UNL     1      19.349  49.235  14.184  1.00  0.00     0.028 C 
ENDBRANCH  15  16
ENDBRANCH  13  14
ENDBRANCH   1  12
BRANCH   1  20
HETATM   20  O1  UNL     1      14.944  44.722  18.875  1.00  0.00    -0.375 OA
ATOM     21  H1  UNL     1      14.874  45.280  19.641  1.00  0.00     0.212 HD
ENDBRANCH   1  20
BRANCH  11  22
HETATM   22  O3  UNL     1      14.530  42.940  17.127  1.00  0.00    -0.391 OA
ATOM     23  H3  UNL     1      14.043  42.138  16.982  1.00  0.00     0.210 HD
ENDBRANCH  11  22
BRANCH   9  24
HETATM   24  C15 UNL     1       8.463  46.250  21.052  1.00  0.00     0.127 C 
BRANCH  24  25
HETATM   25  C16 UNL     1       8.766  47.461  21.895  1.00  0.00     0.051 C 
BRANCH  25  26
HETATM   26  C17 UNL     1       9.950  48.216  21.314  1.00  0.00     0.224 C 
HETATM   27  F1  UNL     1       9.487  49.461  20.934  1.00  0.00    -0.255 F 
ENDBRANCH  25  26
ENDBRANCH  24  25
ENDBRANCH   9  24
TORSDOF 8
ENDMDL
