MODEL 1
REMARK VINA RESULT: -6.256673154      0.000      0.000
REMARK  2 active torsions:
REMARK  status: ('A' for Active; 'I' for Inactive)
REMARK    1  A    between atoms: C8_15  and  C9_16 
REMARK    2  A    between atoms: N4_20  and  C12_21 
ROOT
HETATM    1  C1  UNL     1      12.970  43.676  13.760  1.00  0.00     0.065 C 
HETATM    2  C2  UNL     1      12.722  43.977  14.996  1.00  0.00     0.114 A 
HETATM    3  N1  UNL     1      13.742  44.198  15.929  1.00  0.00    -0.284 N 
ATOM      4  H1  UNL     1      14.744  44.180  15.739  1.00  0.00     0.188 HD
HETATM    5  N2  UNL     1      13.142  44.448  17.170  1.00  0.00    -0.282 N 
ATOM      6  H2  UNL     1      13.651  44.640  18.033  1.00  0.00     0.188 HD
HETATM    7  C3  UNL     1      11.726  44.395  17.059  1.00  0.00     0.152 A 
HETATM    8  C4  UNL     1      10.867  44.727  18.028  1.00  0.00     0.087 A 
HETATM    9  N3  UNL     1       9.529  44.607  17.904  1.00  0.00    -0.319 N 
ATOM     10  H3  UNL     1       9.197  44.106  17.079  1.00  0.00     0.169 HD
HETATM   11  C5  UNL     1       8.591  45.067  18.732  1.00  0.00     0.256 A 
HETATM   12  O1  UNL     1       7.350  44.896  18.503  1.00  0.00    -0.267 OA
HETATM   13  C6  UNL     1       8.931  45.745  19.870  1.00  0.00     0.030 A 
HETATM   14  C7  UNL     1       7.976  46.188  20.664  1.00  0.00     0.030 C 
HETATM   15  C8  UNL     1      10.274  45.921  20.098  1.00  0.00    -0.021 A 
HETATM   16  C10 UNL     1      11.227  45.420  19.181  1.00  0.00    -0.023 A 
HETATM   17  C11 UNL     1      12.596  45.880  19.479  1.00  0.00     0.051 C 
HETATM   18  N4  UNL     1      11.454  44.098  15.656  1.00  0.00    -0.311 N 
ENDROOT
BRANCH  18  19
HETATM   19  C12 UNL     1      10.256  44.051  14.954  1.00  0.00     0.100 C 
HETATM   20  C13 UNL     1       9.823  45.340  14.230  1.00  0.00     0.053 C 
HETATM   21  C14 UNL     1       8.528  44.802  13.641  1.00  0.00    -0.022 C 
HETATM   22  C15 UNL     1       8.667  43.504  13.411  1.00  0.00    -0.086 C 
HETATM   23  C16 UNL     1       7.647  42.579  12.838  1.00  0.00     0.043 C 
HETATM   24  C17 UNL     1      10.063  43.063  13.850  1.00  0.00     0.059 C 
ENDBRANCH  18  19
BRANCH  15  25
HETATM   25  C9  UNL     1      10.698  46.599  21.347  1.00  0.00     0.154 C 
HETATM   26 CL1  UNL     1      10.354  48.321  21.383  1.00  0.00    -0.126 Cl
ENDBRANCH  15  25
TORSDOF 2
ENDMDL
MODEL 2
REMARK VINA RESULT: -6.142868766      4.361      6.128
REMARK  2 active torsions:
REMARK  status: ('A' for Active; 'I' for Inactive)
REMARK    1  A    between atoms: C8_15  and  C9_16 
REMARK    2  A    between atoms: N4_20  and  C12_21 
ROOT
HETATM    1  C1  UNL     1       9.230  44.103  14.369  1.00  0.00     0.065 C 
HETATM    2  C2  UNL     1       9.803  45.252  14.192  1.00  0.00     0.114 A 
HETATM    3  N1  UNL     1       9.261  46.236  13.358  1.00  0.00    -0.284 N 
ATOM      4  H1  UNL     1       8.379  46.173  12.849  1.00  0.00     0.188 HD
HETATM    5  N2  UNL     1      10.144  47.323  13.346  1.00  0.00    -0.282 N 
ATOM      6  H2  UNL     1       9.999  48.183  12.817  1.00  0.00     0.188 HD
HETATM    7  C3  UNL     1      11.270  47.062  14.173  1.00  0.00     0.152 A 
HETATM    8  C4  UNL     1      12.218  47.950  14.484  1.00  0.00     0.087 A 
HETATM    9  N3  UNL     1      13.303  47.646  15.225  1.00  0.00    -0.319 N 
ATOM     10  H3  UNL     1      13.451  46.656  15.421  1.00  0.00     0.169 HD
HETATM   11  C5  UNL     1      14.205  48.489  15.731  1.00  0.00     0.256 A 
HETATM   12  O1  UNL     1      15.190  48.080  16.425  1.00  0.00    -0.267 OA
HETATM   13  C6  UNL     1      14.102  49.836  15.519  1.00  0.00     0.030 A 
HETATM   14  C7  UNL     1      15.012  50.639  16.037  1.00  0.00     0.030 C 
HETATM   15  C8  UNL     1      13.032  50.257  14.770  1.00  0.00    -0.021 A 
HETATM   16  C10 UNL     1      12.100  49.321  14.265  1.00  0.00    -0.023 A 
HETATM   17  C11 UNL     1      10.915  49.967  13.668  1.00  0.00     0.051 C 
HETATM   18  N4  UNL     1      11.049  45.728  14.724  1.00  0.00    -0.311 N 
ENDROOT
BRANCH  18  19
HETATM   19  C12 UNL     1      11.756  45.013  15.683  1.00  0.00     0.100 C 
HETATM   20  C13 UNL     1      10.994  44.629  16.967  1.00  0.00     0.053 C 
HETATM   21  C14 UNL     1      12.138  43.898  17.654  1.00  0.00    -0.022 C 
HETATM   22  C15 UNL     1      12.916  43.352  16.730  1.00  0.00    -0.086 C 
HETATM   23  C16 UNL     1      14.149  42.544  16.958  1.00  0.00     0.043 C 
HETATM   24  C17 UNL     1      12.367  43.692  15.345  1.00  0.00     0.059 C 
ENDBRANCH  18  19
BRANCH  15  25
HETATM   25  C9  UNL     1      12.906  51.702  14.461  1.00  0.00     0.154 C 
HETATM   26 CL1  UNL     1      12.102  52.637  15.713  1.00  0.00    -0.126 Cl
ENDBRANCH  15  25
TORSDOF 2
ENDMDL
MODEL 3
REMARK VINA RESULT: -6.047008427      4.482      6.424
REMARK  2 active torsions:
REMARK  status: ('A' for Active; 'I' for Inactive)
REMARK    1  A    between atoms: C8_15  and  C9_16 
REMARK    2  A    between atoms: N4_20  and  C12_21 
ROOT
HETATM    1  C1  UNL     1      10.738  44.377  18.170  1.00  0.00     0.065 C 
HETATM    2  C2  UNL     1      11.991  44.696  18.255  1.00  0.00     0.114 A 
HETATM    3  N1  UNL     1      12.551  45.215  19.427  1.00  0.00    -0.284 N 
ATOM      4  H1  UNL     1      12.065  45.359  20.313  1.00  0.00     0.188 HD
HETATM    5  N2  UNL     1      13.898  45.502  19.171  1.00  0.00    -0.282 N 
ATOM      6  H2  UNL     1      14.548  45.893  19.852  1.00  0.00     0.188 HD
HETATM    7  C3  UNL     1      14.232  45.171  17.830  1.00  0.00     0.152 A 
HETATM    8  C4  UNL     1      15.466  45.192  17.317  1.00  0.00     0.087 A 
HETATM    9  N3  UNL     1      15.734  44.928  16.022  1.00  0.00    -0.319 N 
ATOM     10  H3  UNL     1      14.928  44.852  15.402  1.00  0.00     0.169 HD
HETATM   11  C5  UNL     1      16.931  44.754  15.459  1.00  0.00     0.256 A 
HETATM   12  O1  UNL     1      17.057  44.501  14.218  1.00  0.00    -0.267 OA
HETATM   13  C6  UNL     1      18.075  44.843  16.201  1.00  0.00     0.030 A 
HETATM   14  C7  UNL     1      19.241  44.663  15.610  1.00  0.00     0.030 C 
HETATM   15  C8  UNL     1      17.918  45.115  17.538  1.00  0.00    -0.021 A 
HETATM   16  C10 UNL     1      16.624  45.281  18.086  1.00  0.00    -0.023 A 
HETATM   17  C11 UNL     1      16.639  45.358  19.559  1.00  0.00     0.051 C 
HETATM   18  N4  UNL     1      13.004  44.645  17.239  1.00  0.00    -0.311 N 
ENDROOT
BRANCH  18  19
HETATM   19  C12 UNL     1      12.771  44.059  16.002  1.00  0.00     0.100 C 
HETATM   20  C13 UNL     1      13.140  42.569  15.856  1.00  0.00     0.053 C 
HETATM   21  C14 UNL     1      12.715  42.409  14.405  1.00  0.00    -0.022 C 
HETATM   22  C15 UNL     1      11.710  43.236  14.158  1.00  0.00    -0.086 C 
HETATM   23  C16 UNL     1      10.986  43.408  12.865  1.00  0.00     0.043 C 
HETATM   24  C17 UNL     1      11.394  44.036  15.421  1.00  0.00     0.059 C 
ENDBRANCH  18  19
BRANCH  15  25
HETATM   25  C9  UNL     1      19.129  45.280  18.377  1.00  0.00     0.154 C 
HETATM   26 CL1  UNL     1      19.640  46.948  18.582  1.00  0.00    -0.126 Cl
ENDBRANCH  15  25
TORSDOF 2
ENDMDL
MODEL 4
REMARK VINA RESULT: -5.996217266      2.379      3.350
REMARK  2 active torsions:
REMARK  status: ('A' for Active; 'I' for Inactive)
REMARK    1  A    between atoms: C8_15  and  C9_16 
REMARK    2  A    between atoms: N4_20  and  C12_21 
ROOT
HETATM    1  C1  UNL     1      10.315  45.935  10.727  1.00  0.00     0.065 C 
HETATM    2  C2  UNL     1      10.627  45.503  11.908  1.00  0.00     0.114 A 
HETATM    3  N1  UNL     1      11.870  44.925  12.187  1.00  0.00    -0.284 N 
ATOM      4  H1  UNL     1      12.643  44.817  11.531  1.00  0.00     0.188 HD
HETATM    5  N2  UNL     1      11.864  44.520  13.528  1.00  0.00    -0.282 N 
ATOM      6  H2  UNL     1      12.645  44.064  14.000  1.00  0.00     0.188 HD
HETATM    7  C3  UNL     1      10.619  44.831  14.138  1.00  0.00     0.152 A 
HETATM    8  C4  UNL     1      10.348  44.702  15.441  1.00  0.00     0.087 A 
HETATM    9  N3  UNL     1       9.135  44.953  15.972  1.00  0.00    -0.319 N 
ATOM     10  H3  UNL     1       8.375  45.107  15.309  1.00  0.00     0.169 HD
HETATM   11  C5  UNL     1       8.811  45.023  17.264  1.00  0.00     0.256 A 
HETATM   12  O1  UNL     1       7.623  45.275  17.646  1.00  0.00    -0.267 OA
HETATM   13  C6  UNL     1       9.754  44.824  18.235  1.00  0.00     0.030 A 
HETATM   14  C7  UNL     1       9.397  44.903  19.502  1.00  0.00     0.030 C 
HETATM   15  C8  UNL     1      11.029  44.555  17.803  1.00  0.00    -0.021 A 
HETATM   16  C10 UNL     1      11.319  44.502  16.419  1.00  0.00    -0.023 A 
HETATM   17  C11 UNL     1      12.766  44.411  16.147  1.00  0.00     0.051 C 
HETATM   18  N4  UNL     1       9.822  45.471  13.096  1.00  0.00    -0.311 N 
ENDROOT
BRANCH  18  19
HETATM   19  C12 UNL     1       8.578  46.087  13.154  1.00  0.00     0.100 C 
HETATM   20  C13 UNL     1       8.545  47.611  12.922  1.00  0.00     0.053 C 
HETATM   21  C14 UNL     1       7.043  47.793  13.075  1.00  0.00    -0.022 C 
HETATM   22  C15 UNL     1       6.432  46.689  12.671  1.00  0.00    -0.086 C 
HETATM   23  C16 UNL     1       4.963  46.433  12.647  1.00  0.00     0.043 C 
HETATM   24  C17 UNL     1       7.480  45.666  12.233  1.00  0.00     0.059 C 
ENDBRANCH  18  19
BRANCH  15  25
HETATM   25  C9  UNL     1      12.076  44.274  18.814  1.00  0.00     0.154 C 
HETATM   26 CL1  UNL     1      12.770  45.710  19.549  1.00  0.00    -0.126 Cl
ENDBRANCH  15  25
TORSDOF 2
ENDMDL
MODEL 5
REMARK VINA RESULT: -5.863642641      2.871      3.983
REMARK  2 active torsions:
REMARK  status: ('A' for Active; 'I' for Inactive)
REMARK    1  A    between atoms: C8_15  and  C9_16 
REMARK    2  A    between atoms: N4_20  and  C12_21 
ROOT
HETATM    1  C1  UNL     1      13.749  41.509  11.545  1.00  0.00     0.065 C 
HETATM    2  C2  UNL     1      14.122  41.982  12.693  1.00  0.00     0.114 A 
HETATM    3  N1  UNL     1      15.469  42.176  13.017  1.00  0.00    -0.284 N 
ATOM      4  H1  UNL     1      16.265  42.006  12.403  1.00  0.00     0.188 HD
HETATM    5  N2  UNL     1      15.531  42.644  14.336  1.00  0.00    -0.282 N 
ATOM      6  H2  UNL     1      16.393  42.868  14.833  1.00  0.00     0.188 HD
HETATM    7  C3  UNL     1      14.225  42.763  14.885  1.00  0.00     0.152 A 
HETATM    8  C4  UNL     1      13.936  43.314  16.067  1.00  0.00     0.087 A 
HETATM    9  N3  UNL     1      12.689  43.355  16.580  1.00  0.00    -0.319 N 
ATOM     10  H3  UNL     1      11.982  42.809  16.088  1.00  0.00     0.169 HD
HETATM   11  C5  UNL     1      12.273  44.026  17.655  1.00  0.00     0.256 A 
HETATM   12  O1  UNL     1      11.060  43.992  18.039  1.00  0.00    -0.267 OA
HETATM   13  C6  UNL     1      13.143  44.783  18.389  1.00  0.00     0.030 A 
HETATM   14  C7  UNL     1      12.695  45.434  19.445  1.00  0.00     0.030 C 
HETATM   15  C8  UNL     1      14.446  44.808  17.957  1.00  0.00    -0.021 A 
HETATM   16  C10 UNL     1      14.832  44.084  16.805  1.00  0.00    -0.023 A 
HETATM   17  C11 UNL     1      16.209  44.395  16.375  1.00  0.00     0.051 C 
HETATM   18  N4  UNL     1      13.315  42.342  13.823  1.00  0.00    -0.311 N 
ENDROOT
BRANCH  18  19
HETATM   19  C12 UNL     1      11.927  42.369  13.754  1.00  0.00     0.100 C 
HETATM   20  C13 UNL     1      11.284  43.648  13.183  1.00  0.00     0.053 C 
HETATM   21  C14 UNL     1       9.835  43.204  13.306  1.00  0.00    -0.022 C 
HETATM   22  C15 UNL     1       9.776  41.887  13.169  1.00  0.00    -0.086 C 
HETATM   23  C16 UNL     1       8.555  41.033  13.219  1.00  0.00     0.043 C 
HETATM   24  C17 UNL     1      11.188  41.339  12.963  1.00  0.00     0.059 C 
ENDBRANCH  18  19
BRANCH  15  25
HETATM   25  C9  UNL     1      15.443  45.566  18.752  1.00  0.00     0.154 C 
HETATM   26 CL1  UNL     1      16.474  44.561  19.758  1.00  0.00    -0.126 Cl
ENDBRANCH  15  25
TORSDOF 2
ENDMDL
