MODEL 1
REMARK VINA RESULT: -6.769889940      0.000      0.000
REMARK  5 active torsions:
REMARK  status: ('A' for Active; 'I' for Inactive)
REMARK    1  A    between atoms: C2_2  and  C3_3 
REMARK    2  A    between atoms: C3_3  and  N1_4 
REMARK    3  A    between atoms: N2_6  and  C4_8 
REMARK    4  A    between atoms: C4_8  and  N3_10 
REMARK    5  A    between atoms: N3_10  and  C5_12 
ROOT
HETATM    1  C5  UNL     1      37.000  26.234  19.267  1.00  0.00     0.088 C 
HETATM    2  C6  UNL     1      38.158  27.075  19.655  1.00  0.00     0.055 C 
HETATM    3  C7  UNL     1      38.236  28.395  18.923  1.00  0.00     0.021 C 
HETATM    4  C8  UNL     1      39.023  28.294  17.634  1.00  0.00     0.037 C 
HETATM    5  C9  UNL     1      39.096  29.300  19.823  1.00  0.00     0.037 C 
HETATM    6  N4  UNL     1      36.976  29.038  18.771  1.00  0.00    -0.405 N 
ATOM      7  H4  UNL     1      36.840  30.015  19.028  1.00  0.00     0.154 HD
HETATM    8  C10 UNL     1      35.925  28.256  18.245  1.00  0.00     0.021 C 
HETATM    9  C11 UNL     1      35.564  28.818  16.866  1.00  0.00     0.037 C 
HETATM   10  C12 UNL     1      34.670  28.465  19.102  1.00  0.00     0.037 C 
HETATM   11  C13 UNL     1      36.176  26.798  18.137  1.00  0.00     0.055 C 
ENDROOT
BRANCH   1  12
HETATM   12  N3  UNL     1      37.363  24.872  18.952  1.00  0.00    -0.361 N 
ATOM     13  H3  UNL     1      37.678  24.647  18.009  1.00  0.00     0.162 HD
BRANCH  12  14
HETATM   14  C4  UNL     1      37.294  23.838  19.921  1.00  0.00     0.186 C 
HETATM   15  S1  UNL     1      35.828  23.257  20.330  1.00  0.00    -0.040 SA
BRANCH  14  16
HETATM   16  N2  UNL     1      38.431  23.280  20.556  1.00  0.00    -0.281 N 
HETATM   17  N1  UNL     1      39.614  23.609  20.248  1.00  0.00    -0.331 N 
ATOM     18  H1  UNL     1      39.737  24.304  19.512  1.00  0.00     0.180 HD
ATOM     19  H2  UNL     1      38.291  22.586  21.290  1.00  0.00     0.189 HD
BRANCH  17  20
HETATM   20  C3  UNL     1      40.788  23.073  20.860  1.00  0.00     0.166 C 
BRANCH  20  21
HETATM   21  C2  UNL     1      42.036  23.716  20.420  1.00  0.00    -0.016 C 
HETATM   22  C1  UNL     1      43.140  23.722  21.174  1.00  0.00     0.008 C 
ENDBRANCH  20  21
ENDBRANCH  17  20
ENDBRANCH  14  16
ENDBRANCH  12  14
ENDBRANCH   1  12
TORSDOF 5
ENDMDL
MODEL 2
REMARK VINA RESULT: -6.517054726      2.845      3.481
REMARK  5 active torsions:
REMARK  status: ('A' for Active; 'I' for Inactive)
REMARK    1  A    between atoms: C2_2  and  C3_3 
REMARK    2  A    between atoms: C3_3  and  N1_4 
REMARK    3  A    between atoms: N2_6  and  C4_8 
REMARK    4  A    between atoms: C4_8  and  N3_10 
REMARK    5  A    between atoms: N3_10  and  C5_12 
ROOT
HETATM    1  C5  UNL     1      39.559  26.783  16.900  1.00  0.00     0.088 C 
HETATM    2  C6  UNL     1      40.317  28.043  16.708  1.00  0.00     0.055 C 
HETATM    3  C7  UNL     1      39.449  29.252  16.448  1.00  0.00     0.021 C 
HETATM    4  C8  UNL     1      39.170  29.455  14.974  1.00  0.00     0.037 C 
HETATM    5  C9  UNL     1      40.321  30.460  16.839  1.00  0.00     0.037 C 
HETATM    6  N4  UNL     1      38.283  29.303  17.260  1.00  0.00    -0.405 N 
ATOM      7  H4  UNL     1      38.034  30.140  17.787  1.00  0.00     0.154 HD
HETATM    8  C10 UNL     1      37.487  28.138  17.299  1.00  0.00     0.021 C 
HETATM    9  C11 UNL     1      36.149  28.457  16.621  1.00  0.00     0.037 C 
HETATM   10  C12 UNL     1      37.130  27.825  18.757  1.00  0.00     0.037 C 
HETATM   11  C13 UNL     1      38.071  26.918  16.691  1.00  0.00     0.055 C 
ENDROOT
BRANCH   1  12
HETATM   12  N3  UNL     1      40.052  25.691  16.094  1.00  0.00    -0.361 N 
ATOM     13  H3  UNL     1      39.654  25.538  15.167  1.00  0.00     0.162 HD
BRANCH  12  14
HETATM   14  C4  UNL     1      41.076  24.825  16.556  1.00  0.00     0.186 C 
HETATM   15  S1  UNL     1      41.705  23.744  15.512  1.00  0.00    -0.040 SA
BRANCH  14  16
HETATM   16  N2  UNL     1      41.584  24.846  17.878  1.00  0.00    -0.281 N 
HETATM   17  N1  UNL     1      41.513  23.846  18.651  1.00  0.00    -0.331 N 
ATOM     18  H1  UNL     1      41.071  23.000  18.294  1.00  0.00     0.180 HD
ATOM     19  H2  UNL     1      42.024  25.699  18.220  1.00  0.00     0.189 HD
BRANCH  17  20
HETATM   20  C3  UNL     1      42.012  23.822  19.990  1.00  0.00     0.166 C 
BRANCH  20  21
HETATM   21  C2  UNL     1      41.075  23.240  20.964  1.00  0.00    -0.016 C 
HETATM   22  C1  UNL     1      39.817  22.924  20.642  1.00  0.00     0.008 C 
ENDBRANCH  20  21
ENDBRANCH  17  20
ENDBRANCH  14  16
ENDBRANCH  12  14
ENDBRANCH   1  12
TORSDOF 5
ENDMDL
MODEL 3
REMARK VINA RESULT: -6.501627110      2.663      3.378
REMARK  5 active torsions:
REMARK  status: ('A' for Active; 'I' for Inactive)
REMARK    1  A    between atoms: C2_2  and  C3_3 
REMARK    2  A    between atoms: C3_3  and  N1_4 
REMARK    3  A    between atoms: N2_6  and  C4_8 
REMARK    4  A    between atoms: C4_8  and  N3_10 
REMARK    5  A    between atoms: N3_10  and  C5_12 
ROOT
HETATM    1  C5  UNL     1      39.933  26.816  17.332  1.00  0.00     0.088 C 
HETATM    2  C6  UNL     1      40.394  28.045  16.642  1.00  0.00     0.055 C 
HETATM    3  C7  UNL     1      39.387  29.172  16.651  1.00  0.00     0.021 C 
HETATM    4  C8  UNL     1      38.453  29.119  15.461  1.00  0.00     0.037 C 
HETATM    5  C9  UNL     1      40.216  30.449  16.426  1.00  0.00     0.037 C 
HETATM    6  N4  UNL     1      38.715  29.327  17.894  1.00  0.00    -0.405 N 
ATOM      7  H4  UNL     1      38.649  30.233  18.358  1.00  0.00     0.154 HD
HETATM    8  C10 UNL     1      38.142  28.165  18.455  1.00  0.00     0.021 C 
HETATM    9  C11 UNL     1      36.619  28.333  18.435  1.00  0.00     0.037 C 
HETATM   10  C12 UNL     1      38.516  28.090  19.940  1.00  0.00     0.037 C 
HETATM   11  C13 UNL     1      38.507  26.876  17.818  1.00  0.00     0.055 C 
ENDROOT
BRANCH   1  12
HETATM   12  N3  UNL     1      40.115  25.617  16.546  1.00  0.00    -0.361 N 
ATOM     13  H3  UNL     1      39.517  25.461  15.735  1.00  0.00     0.162 HD
BRANCH  12  14
HETATM   14  C4  UNL     1      41.102  24.653  16.873  1.00  0.00     0.186 C 
HETATM   15  S1  UNL     1      41.723  23.744  15.672  1.00  0.00    -0.040 SA
BRANCH  14  16
HETATM   16  N2  UNL     1      41.580  24.433  18.188  1.00  0.00    -0.281 N 
HETATM   17  N1  UNL     1      40.936  23.759  19.044  1.00  0.00    -0.331 N 
ATOM     18  H1  UNL     1      40.039  23.365  18.760  1.00  0.00     0.180 HD
ATOM     19  H2  UNL     1      42.478  24.834  18.456  1.00  0.00     0.189 HD
BRANCH  17  20
HETATM   20  C3  UNL     1      41.378  23.512  20.379  1.00  0.00     0.166 C 
BRANCH  20  21
HETATM   21  C2  UNL     1      42.809  23.785  20.593  1.00  0.00    -0.016 C 
HETATM   22  C1  UNL     1      43.355  23.809  21.813  1.00  0.00     0.008 C 
ENDBRANCH  20  21
ENDBRANCH  17  20
ENDBRANCH  14  16
ENDBRANCH  12  14
ENDBRANCH   1  12
TORSDOF 5
ENDMDL
MODEL 4
REMARK VINA RESULT: -6.499519015      2.579      4.350
REMARK  5 active torsions:
REMARK  status: ('A' for Active; 'I' for Inactive)
REMARK    1  A    between atoms: C2_2  and  C3_3 
REMARK    2  A    between atoms: C3_3  and  N1_4 
REMARK    3  A    between atoms: N2_6  and  C4_8 
REMARK    4  A    between atoms: C4_8  and  N3_10 
REMARK    5  A    between atoms: N3_10  and  C5_12 
ROOT
HETATM    1  C5  UNL     1      38.410  23.894  19.304  1.00  0.00     0.088 C 
HETATM    2  C6  UNL     1      37.376  22.864  19.041  1.00  0.00     0.055 C 
HETATM    3  C7  UNL     1      35.962  23.397  19.030  1.00  0.00     0.021 C 
HETATM    4  C8  UNL     1      35.325  23.368  20.403  1.00  0.00     0.037 C 
HETATM    5  C9  UNL     1      35.154  22.371  18.216  1.00  0.00     0.037 C 
HETATM    6  N4  UNL     1      35.829  24.649  18.369  1.00  0.00    -0.405 N 
ATOM      7  H4  UNL     1      35.120  24.803  17.651  1.00  0.00     0.154 HD
HETATM    8  C10 UNL     1      36.726  25.669  18.755  1.00  0.00     0.021 C 
HETATM    9  C11 UNL     1      35.918  26.770  19.450  1.00  0.00     0.037 C 
HETATM   10  C12 UNL     1      37.302  26.330  17.496  1.00  0.00     0.037 C 
HETATM   11  C13 UNL     1      37.856  25.260  19.623  1.00  0.00     0.055 C 
ENDROOT
BRANCH   1  12
HETATM   12  N3  UNL     1      39.347  23.511  20.334  1.00  0.00    -0.361 N 
ATOM     13  H3  UNL     1      38.993  23.228  21.248  1.00  0.00     0.162 HD
BRANCH  12  14
HETATM   14  C4  UNL     1      40.747  23.518  20.110  1.00  0.00     0.186 C 
HETATM   15  S1  UNL     1      41.299  24.059  18.676  1.00  0.00    -0.040 SA
BRANCH  14  16
HETATM   16  N2  UNL     1      41.698  23.079  21.065  1.00  0.00    -0.281 N 
HETATM   17  N1  UNL     1      42.110  23.818  22.006  1.00  0.00    -0.331 N 
ATOM     18  H1  UNL     1      41.734  24.765  22.066  1.00  0.00     0.180 HD
ATOM     19  H2  UNL     1      42.063  22.130  20.991  1.00  0.00     0.189 HD
BRANCH  17  20
HETATM   20  C3  UNL     1      43.065  23.418  22.990  1.00  0.00     0.166 C 
BRANCH  20  21
HETATM   21  C2  UNL     1      42.858  22.054  23.501  1.00  0.00    -0.016 C 
HETATM   22  C1  UNL     1      41.855  21.748  24.330  1.00  0.00     0.008 C 
ENDBRANCH  20  21
ENDBRANCH  17  20
ENDBRANCH  14  16
ENDBRANCH  12  14
ENDBRANCH   1  12
TORSDOF 5
ENDMDL
MODEL 5
REMARK VINA RESULT: -6.462962646      1.267      1.316
REMARK  5 active torsions:
REMARK  status: ('A' for Active; 'I' for Inactive)
REMARK    1  A    between atoms: C2_2  and  C3_3 
REMARK    2  A    between atoms: C3_3  and  N1_4 
REMARK    3  A    between atoms: N2_6  and  C4_8 
REMARK    4  A    between atoms: C4_8  and  N3_10 
REMARK    5  A    between atoms: N3_10  and  C5_12 
ROOT
HETATM    1  C5  UNL     1      37.005  26.292  19.349  1.00  0.00     0.088 C 
HETATM    2  C6  UNL     1      38.152  27.160  19.712  1.00  0.00     0.055 C 
HETATM    3  C7  UNL     1      38.215  28.455  18.935  1.00  0.00     0.021 C 
HETATM    4  C8  UNL     1      39.008  28.320  17.653  1.00  0.00     0.037 C 
HETATM    5  C9  UNL     1      39.062  29.401  19.806  1.00  0.00     0.037 C 
HETATM    6  N4  UNL     1      36.949  29.076  18.757  1.00  0.00    -0.405 N 
ATOM      7  H4  UNL     1      36.799  30.060  18.980  1.00  0.00     0.154 HD
HETATM    8  C10 UNL     1      35.909  28.264  18.255  1.00  0.00     0.021 C 
HETATM    9  C11 UNL     1      35.545  28.773  16.857  1.00  0.00     0.037 C 
HETATM   10  C12 UNL     1      34.648  28.487  19.101  1.00  0.00     0.037 C 
HETATM   11  C13 UNL     1      36.178  26.807  18.198  1.00  0.00     0.055 C 
ENDROOT
BRANCH   1  12
HETATM   12  N3  UNL     1      37.387  24.924  19.083  1.00  0.00    -0.361 N 
ATOM     13  H3  UNL     1      36.721  24.176  19.278  1.00  0.00     0.162 HD
BRANCH  12  14
HETATM   14  C4  UNL     1      38.662  24.593  18.558  1.00  0.00     0.186 C 
HETATM   15  S1  UNL     1      38.840  24.530  16.940  1.00  0.00    -0.040 SA
BRANCH  14  16
HETATM   16  N2  UNL     1      39.793  24.313  19.363  1.00  0.00    -0.281 N 
HETATM   17  N1  UNL     1      39.814  23.368  20.205  1.00  0.00    -0.331 N 
ATOM     18  H1  UNL     1      38.976  22.795  20.295  1.00  0.00     0.180 HD
ATOM     19  H2  UNL     1      40.624  24.896  19.260  1.00  0.00     0.189 HD
BRANCH  17  20
HETATM   20  C3  UNL     1      40.931  23.050  21.036  1.00  0.00     0.166 C 
BRANCH  20  21
HETATM   21  C2  UNL     1      42.174  23.739  20.655  1.00  0.00    -0.016 C 
HETATM   22  C1  UNL     1      43.292  23.649  21.382  1.00  0.00     0.008 C 
ENDBRANCH  20  21
ENDBRANCH  17  20
ENDBRANCH  14  16
ENDBRANCH  12  14
ENDBRANCH   1  12
TORSDOF 5
ENDMDL
