MODEL 1
REMARK VINA RESULT: -5.166178806      0.000      0.000
REMARK  6 active torsions:
REMARK  status: ('A' for Active; 'I' for Inactive)
REMARK    1  A    between atoms: N1_1  and  C1_4 
REMARK    2  A    between atoms: N3_8  and  C3_9 
REMARK    3  A    between atoms: C3_9  and  C4_10 
REMARK    4  A    between atoms: C4_10  and  C5_11 
REMARK    5  A    between atoms: C5_11  and  N4_12 
REMARK    6  A    between atoms: C5_11  and  N5_16 
ROOT
HETATM    1  C3  UNL     1      84.048 -15.420  65.521  1.00  0.00     0.173 C 
ENDROOT
BRANCH   1   2
HETATM    2  N3  UNL     1      83.061 -15.824  64.558  1.00  0.00    -0.233 N 
HETATM    3  N2  UNL     1      82.603 -17.055  64.291  1.00  0.00    -0.292 N 
HETATM    4  C2  UNL     1      81.678 -16.997  63.315  1.00  0.00     0.158 A 
ATOM      5  H2  UNL     1      82.910 -17.908  64.757  1.00  0.00     0.188 HD
HETATM    6  C1  UNL     1      81.582 -15.653  62.986  1.00  0.00     0.132 A 
HETATM    7  N6  UNL     1      82.436 -14.962  63.761  1.00  0.00    -0.268 N 
ATOM      8  H6  UNL     1      82.580 -13.952  63.741  1.00  0.00     0.190 HD
BRANCH   6   9
HETATM    9  N1  UNL     1      80.778 -15.192  62.070  1.00  0.00    -0.383 N 
ATOM     10  H12 UNL     1      80.243 -15.720  61.382  1.00  0.00     0.157 HD
ATOM     11  H11 UNL     1      80.589 -14.199  61.934  1.00  0.00     0.157 HD
ENDBRANCH   6   9
ENDBRANCH   1   2
BRANCH   1  12
HETATM   12  C4  UNL     1      84.607 -14.044  65.256  1.00  0.00     0.085 C 
BRANCH  12  13
HETATM   13  C5  UNL     1      84.102 -13.152  66.398  1.00  0.00     0.379 C 
BRANCH  13  14
HETATM   14  N4  UNL     1      84.290 -11.764  66.112  1.00  0.00    -0.050 N 
ATOM     15  H43 UNL     1      84.676 -11.627  65.178  1.00  0.00     0.276 HD
ATOM     16  H42 UNL     1      83.398 -11.286  65.989  1.00  0.00     0.276 HD
ATOM     17  H41 UNL     1      84.862 -11.304  66.821  1.00  0.00     0.276 HD
ENDBRANCH  13  14
BRANCH  13  18
HETATM   18  N5  UNL     1      84.780 -13.578  67.590  1.00  0.00    -0.050 N 
ATOM     19  H53 UNL     1      84.892 -14.590  67.647  1.00  0.00     0.276 HD
ATOM     20  H52 UNL     1      85.772 -13.338  67.595  1.00  0.00     0.276 HD
ATOM     21  H51 UNL     1      84.267 -13.185  68.379  1.00  0.00     0.276 HD
ENDBRANCH  13  18
ENDBRANCH  12  13
ENDBRANCH   1  12
TORSDOF 6
ENDMDL
MODEL 2
REMARK VINA RESULT: -5.113979148      0.742      1.397
REMARK  6 active torsions:
REMARK  status: ('A' for Active; 'I' for Inactive)
REMARK    1  A    between atoms: N1_1  and  C1_4 
REMARK    2  A    between atoms: N3_8  and  C3_9 
REMARK    3  A    between atoms: C3_9  and  C4_10 
REMARK    4  A    between atoms: C4_10  and  C5_11 
REMARK    5  A    between atoms: C5_11  and  N4_12 
REMARK    6  A    between atoms: C5_11  and  N5_16 
ROOT
HETATM    1  C3  UNL     1      83.875 -15.371  65.513  1.00  0.00     0.173 C 
ENDROOT
BRANCH   1   2
HETATM    2  N3  UNL     1      82.958 -15.729  64.466  1.00  0.00    -0.233 N 
HETATM    3  N2  UNL     1      82.459 -14.960  63.488  1.00  0.00    -0.292 N 
HETATM    4  C2  UNL     1      81.631 -15.686  62.715  1.00  0.00     0.158 A 
ATOM      5  H2  UNL     1      82.675 -13.973  63.351  1.00  0.00     0.188 HD
HETATM    6  C1  UNL     1      81.639 -16.958  63.266  1.00  0.00     0.132 A 
HETATM    7  N6  UNL     1      82.459 -16.954  64.333  1.00  0.00    -0.268 N 
ATOM      8  H6  UNL     1      82.662 -17.752  64.935  1.00  0.00     0.190 HD
BRANCH   6   9
HETATM    9  N1  UNL     1      80.951 -17.955  62.789  1.00  0.00    -0.383 N 
ATOM     10  H12 UNL     1      80.903 -18.278  61.823  1.00  0.00     0.157 HD
ATOM     11  H11 UNL     1      80.352 -18.551  63.359  1.00  0.00     0.157 HD
ENDBRANCH   6   9
ENDBRANCH   1   2
BRANCH   1  12
HETATM   12  C4  UNL     1      84.550 -14.041  65.280  1.00  0.00     0.085 C 
BRANCH  12  13
HETATM   13  C5  UNL     1      84.068 -13.115  66.405  1.00  0.00     0.379 C 
BRANCH  13  14
HETATM   14  N4  UNL     1      84.267 -11.737  66.082  1.00  0.00    -0.050 N 
ATOM     15  H43 UNL     1      85.105 -11.607  65.515  1.00  0.00     0.276 HD
ATOM     16  H42 UNL     1      83.568 -11.408  65.416  1.00  0.00     0.276 HD
ATOM     17  H41 UNL     1      84.288 -11.151  66.917  1.00  0.00     0.276 HD
ENDBRANCH  13  14
BRANCH  13  18
HETATM   18  N5  UNL     1      84.756 -13.519  67.599  1.00  0.00    -0.050 N 
ATOM     19  H53 UNL     1      84.550 -12.925  68.402  1.00  0.00     0.276 HD
ATOM     20  H52 UNL     1      84.403 -14.392  67.990  1.00  0.00     0.276 HD
ATOM     21  H51 UNL     1      85.750 -13.554  67.370  1.00  0.00     0.276 HD
ENDBRANCH  13  18
ENDBRANCH  12  13
ENDBRANCH   1  12
TORSDOF 6
ENDMDL
MODEL 3
REMARK VINA RESULT: -5.069014425      1.484      5.071
REMARK  6 active torsions:
REMARK  status: ('A' for Active; 'I' for Inactive)
REMARK    1  A    between atoms: N1_1  and  C1_4 
REMARK    2  A    between atoms: N3_8  and  C3_9 
REMARK    3  A    between atoms: C3_9  and  C4_10 
REMARK    4  A    between atoms: C4_10  and  C5_11 
REMARK    5  A    between atoms: C5_11  and  N4_12 
REMARK    6  A    between atoms: C5_11  and  N5_16 
ROOT
HETATM    1  C3  UNL     1      83.133 -15.383  63.766  1.00  0.00     0.173 C 
ENDROOT
BRANCH   1   2
HETATM    2  N3  UNL     1      83.667 -14.531  64.792  1.00  0.00    -0.233 N 
HETATM    3  N2  UNL     1      83.788 -13.197  64.796  1.00  0.00    -0.292 N 
HETATM    4  C2  UNL     1      84.341 -12.791  65.953  1.00  0.00     0.158 A 
ATOM      5  H2  UNL     1      83.502 -12.580  64.035  1.00  0.00     0.188 HD
HETATM    6  C1  UNL     1      84.562 -13.953  66.677  1.00  0.00     0.132 A 
HETATM    7  N6  UNL     1      84.140 -14.999  65.943  1.00  0.00    -0.268 N 
ATOM      8  H6  UNL     1      84.176 -15.979  66.222  1.00  0.00     0.190 HD
BRANCH   6   9
HETATM    9  N1  UNL     1      85.091 -13.971  67.867  1.00  0.00    -0.383 N 
ATOM     10  H12 UNL     1      85.072 -13.236  68.573  1.00  0.00     0.157 HD
ATOM     11  H11 UNL     1      85.610 -14.765  68.241  1.00  0.00     0.157 HD
ENDBRANCH   6   9
ENDBRANCH   1   2
BRANCH   1  12
HETATM   12  C4  UNL     1      82.565 -16.674  64.302  1.00  0.00     0.085 C 
BRANCH  12  13
HETATM   13  C5  UNL     1      81.710 -17.266  63.175  1.00  0.00     0.379 C 
BRANCH  13  14
HETATM   14  N4  UNL     1      80.873 -16.280  62.567  1.00  0.00    -0.050 N 
ATOM     15  H43 UNL     1      81.083 -16.176  61.574  1.00  0.00     0.276 HD
ATOM     16  H42 UNL     1      79.909 -16.605  62.494  1.00  0.00     0.276 HD
ATOM     17  H41 UNL     1      80.926 -15.384  63.053  1.00  0.00     0.276 HD
ENDBRANCH  13  14
BRANCH  13  18
HETATM   18  N5  UNL     1      80.971 -18.359  63.743  1.00  0.00    -0.050 N 
ATOM     19  H53 UNL     1      81.455 -18.809  64.519  1.00  0.00     0.276 HD
ATOM     20  H52 UNL     1      80.146 -18.059  64.262  1.00  0.00     0.276 HD
ATOM     21  H51 UNL     1      80.755 -18.999  62.978  1.00  0.00     0.276 HD
ENDBRANCH  13  18
ENDBRANCH  12  13
ENDBRANCH   1  12
TORSDOF 6
ENDMDL
MODEL 4
REMARK VINA RESULT: -4.995524071      0.411      1.085
REMARK  6 active torsions:
REMARK  status: ('A' for Active; 'I' for Inactive)
REMARK    1  A    between atoms: N1_1  and  C1_4 
REMARK    2  A    between atoms: N3_8  and  C3_9 
REMARK    3  A    between atoms: C3_9  and  C4_10 
REMARK    4  A    between atoms: C4_10  and  C5_11 
REMARK    5  A    between atoms: C5_11  and  N4_12 
REMARK    6  A    between atoms: C5_11  and  N5_16 
ROOT
HETATM    1  C3  UNL     1      83.869 -15.348  65.656  1.00  0.00     0.173 C 
ENDROOT
BRANCH   1   2
HETATM    2  N3  UNL     1      82.975 -15.726  64.597  1.00  0.00    -0.233 N 
HETATM    3  N2  UNL     1      82.460 -16.933  64.325  1.00  0.00    -0.292 N 
HETATM    4  C2  UNL     1      81.666 -16.858  63.241  1.00  0.00     0.158 A 
ATOM      5  H2  UNL     1      82.643 -17.783  64.859  1.00  0.00     0.188 HD
HETATM    6  C1  UNL     1      81.713 -15.529  62.849  1.00  0.00     0.132 A 
HETATM    7  N6  UNL     1      82.519 -14.862  63.695  1.00  0.00    -0.268 N 
ATOM      8  H6  UNL     1      82.741 -13.868  63.652  1.00  0.00     0.190 HD
BRANCH   6   9
HETATM    9  N1  UNL     1      81.063 -15.057  61.823  1.00  0.00    -0.383 N 
ATOM     10  H12 UNL     1      81.268 -15.194  60.834  1.00  0.00     0.157 HD
ATOM     11  H11 UNL     1      80.235 -14.466  61.903  1.00  0.00     0.157 HD
ENDBRANCH   6   9
ENDBRANCH   1   2
BRANCH   1  12
HETATM   12  C4  UNL     1      84.940 -14.383  65.212  1.00  0.00     0.085 C 
BRANCH  12  13
HETATM   13  C5  UNL     1      84.932 -13.236  66.231  1.00  0.00     0.379 C 
BRANCH  13  14
HETATM   14  N4  UNL     1      84.712 -13.707  67.562  1.00  0.00    -0.050 N 
ATOM     15  H43 UNL     1      83.760 -13.512  67.872  1.00  0.00     0.276 HD
ATOM     16  H42 UNL     1      84.686 -14.726  67.595  1.00  0.00     0.276 HD
ATOM     17  H41 UNL     1      85.400 -13.332  68.216  1.00  0.00     0.276 HD
ENDBRANCH  13  14
BRANCH  13  18
HETATM   18  N5  UNL     1      83.935 -12.299  65.794  1.00  0.00    -0.050 N 
ATOM     19  H53 UNL     1      83.458 -11.832  66.564  1.00  0.00     0.276 HD
ATOM     20  H52 UNL     1      84.331 -11.465  65.361  1.00  0.00     0.276 HD
ATOM     21  H51 UNL     1      83.301 -12.809  65.178  1.00  0.00     0.276 HD
ENDBRANCH  13  18
ENDBRANCH  12  13
ENDBRANCH   1  12
TORSDOF 6
ENDMDL
MODEL 5
REMARK VINA RESULT: -4.980457881      0.907      1.987
REMARK  6 active torsions:
REMARK  status: ('A' for Active; 'I' for Inactive)
REMARK    1  A    between atoms: N1_1  and  C1_4 
REMARK    2  A    between atoms: N3_8  and  C3_9 
REMARK    3  A    between atoms: C3_9  and  C4_10 
REMARK    4  A    between atoms: C4_10  and  C5_11 
REMARK    5  A    between atoms: C5_11  and  N4_12 
REMARK    6  A    between atoms: C5_11  and  N5_16 
ROOT
HETATM    1  C3  UNL     1      83.505 -14.140  64.521  1.00  0.00     0.173 C 
ENDROOT
BRANCH   1   2
HETATM    2  N3  UNL     1      82.744 -15.233  63.981  1.00  0.00    -0.233 N 
HETATM    3  N2  UNL     1      81.975 -15.259  62.884  1.00  0.00    -0.292 N 
HETATM    4  C2  UNL     1      81.437 -16.482  62.731  1.00  0.00     0.158 A 
ATOM      5  H2  UNL     1      81.821 -14.468  62.257  1.00  0.00     0.188 HD
HETATM    6  C1  UNL     1      81.916 -17.225  63.799  1.00  0.00     0.132 A 
HETATM    7  N6  UNL     1      82.711 -16.437  64.544  1.00  0.00    -0.268 N 
ATOM      8  H6  UNL     1      83.204 -16.715  65.393  1.00  0.00     0.190 HD
BRANCH   6   9
HETATM    9  N1  UNL     1      81.614 -18.477  63.999  1.00  0.00    -0.383 N 
ATOM     10  H12 UNL     1      80.696 -18.916  63.945  1.00  0.00     0.157 HD
ATOM     11  H11 UNL     1      82.300 -19.189  64.247  1.00  0.00     0.157 HD
ENDBRANCH   6   9
ENDBRANCH   1   2
BRANCH   1  12
HETATM   12  C4  UNL     1      84.381 -14.544  65.681  1.00  0.00     0.085 C 
BRANCH  12  13
HETATM   13  C5  UNL     1      84.781 -13.242  66.388  1.00  0.00     0.379 C 
BRANCH  13  14
HETATM   14  N4  UNL     1      84.643 -13.342  67.807  1.00  0.00    -0.050 N 
ATOM     15  H43 UNL     1      84.181 -12.519  68.193  1.00  0.00     0.276 HD
ATOM     16  H42 UNL     1      83.953 -14.049  68.063  1.00  0.00     0.276 HD
ATOM     17  H41 UNL     1      85.538 -13.515  68.265  1.00  0.00     0.276 HD
ENDBRANCH  13  14
BRANCH  13  18
HETATM   18  N5  UNL     1      83.981 -12.196  65.816  1.00  0.00    -0.050 N 
ATOM     19  H53 UNL     1      83.104 -12.044  66.313  1.00  0.00     0.276 HD
ATOM     20  H52 UNL     1      84.374 -11.266  65.959  1.00  0.00     0.276 HD
ATOM     21  H51 UNL     1      83.849 -12.430  64.831  1.00  0.00     0.276 HD
ENDBRANCH  13  18
ENDBRANCH  12  13
ENDBRANCH   1  12
TORSDOF 6
ENDMDL
