MODEL 1
REMARK VINA RESULT: -5.913861072      0.000      0.000
REMARK  3 active torsions:
REMARK  status: ('A' for Active; 'I' for Inactive)
REMARK       I    between atoms: C1_4  and  N3_6 
REMARK    1  A    between atoms: N3_6  and  C2_8 
REMARK    2  A    between atoms: C2_8  and  N4_9 
REMARK    3  A    between atoms: C2_8  and  C3_13 
ROOT
HETATM    1  C2  UNL     1      85.514 -14.760  66.242  1.00  0.00     0.336 C 
ENDROOT
BRANCH   1   2
HETATM    2  N3  UNL     1      85.601 -13.338  66.029  1.00  0.00    -0.332 N 
HETATM    3  C1  UNL     1      84.607 -12.491  66.537  1.00  0.00     0.183 C 
HETATM    4  N1  UNL     1      84.169 -11.431  65.951  1.00  0.00    -0.374 N 
HETATM    5  N2  UNL     1      84.032 -12.829  67.810  1.00  0.00    -0.064 NA
ATOM      6  H12 UNL     1      83.446 -10.815  66.320  1.00  0.00     0.158 HD
ATOM      7  H11 UNL     1      84.576 -11.192  65.047  1.00  0.00     0.158 HD
ATOM      8  H3  UNL     1      86.386 -12.948  65.509  1.00  0.00     0.164 HD
ENDBRANCH   1   2
BRANCH   1   9
HETATM    9  N4  UNL     1      86.718 -15.425  65.731  1.00  0.00    -0.053 N 
ATOM     10  H43 UNL     1      86.747 -15.428  64.712  1.00  0.00     0.277 HD
ATOM     11  H42 UNL     1      87.559 -14.875  65.905  1.00  0.00     0.277 HD
ATOM     12  H41 UNL     1      86.793 -16.366  66.117  1.00  0.00     0.277 HD
ENDBRANCH   1   9
BRANCH   1  13
HETATM   13  C3  UNL     1      84.384 -15.263  65.416  1.00  0.00     0.084 A 
HETATM   14  C4  UNL     1      84.160 -15.196  64.074  1.00  0.00     0.057 A 
HETATM   15  C5  UNL     1      82.948 -15.831  63.862  1.00  0.00     0.169 A 
HETATM   16  O1  UNL     1      82.513 -16.239  65.044  1.00  0.00    -0.250 OA
HETATM   17  N5  UNL     1      83.331 -15.922  65.980  1.00  0.00    -0.262 N 
ATOM     18  H5  UNL     1      83.214 -16.127  66.973  1.00  0.00     0.194 HD
ENDBRANCH   1  13
TORSDOF 3
ENDMDL
MODEL 2
REMARK VINA RESULT: -5.641257514      2.038      3.664
REMARK  3 active torsions:
REMARK  status: ('A' for Active; 'I' for Inactive)
REMARK       I    between atoms: C1_4  and  N3_6 
REMARK    1  A    between atoms: N3_6  and  C2_8 
REMARK    2  A    between atoms: C2_8  and  N4_9 
REMARK    3  A    between atoms: C2_8  and  C3_13 
ROOT
HETATM    1  C2  UNL     1      85.589 -15.097  65.502  1.00  0.00     0.336 C 
ENDROOT
BRANCH   1   2
HETATM    2  N3  UNL     1      84.676 -15.433  64.439  1.00  0.00    -0.332 N 
HETATM    3  C1  UNL     1      83.453 -16.050  64.734  1.00  0.00     0.183 C 
HETATM    4  N1  UNL     1      82.884 -16.948  64.007  1.00  0.00    -0.374 N 
HETATM    5  N2  UNL     1      82.781 -15.650  65.939  1.00  0.00    -0.064 NA
ATOM      6  H12 UNL     1      81.994 -17.397  64.221  1.00  0.00     0.158 HD
ATOM      7  H11 UNL     1      83.361 -17.232  63.152  1.00  0.00     0.158 HD
ATOM      8  H3  UNL     1      84.920 -15.222  63.472  1.00  0.00     0.164 HD
ENDBRANCH   1   2
BRANCH   1   9
HETATM    9  N4  UNL     1      85.588 -16.149  66.524  1.00  0.00    -0.053 N 
ATOM     10  H43 UNL     1      85.136 -15.842  67.385  1.00  0.00     0.277 HD
ATOM     11  H42 UNL     1      84.954 -16.912  66.285  1.00  0.00     0.277 HD
ATOM     12  H41 UNL     1      86.537 -16.482  66.690  1.00  0.00     0.277 HD
ENDBRANCH   1   9
BRANCH   1  13
HETATM   13  C3  UNL     1      85.063 -13.876  66.167  1.00  0.00     0.084 A 
HETATM   14  C4  UNL     1      84.694 -12.668  65.656  1.00  0.00     0.057 A 
HETATM   15  C5  UNL     1      84.280 -11.910  66.738  1.00  0.00     0.169 A 
HETATM   16  O1  UNL     1      84.413 -12.669  67.815  1.00  0.00    -0.250 OA
HETATM   17  N5  UNL     1      84.870 -13.830  67.518  1.00  0.00    -0.262 N 
ATOM     18  H5  UNL     1      85.058 -14.587  68.176  1.00  0.00     0.194 HD
ENDBRANCH   1  13
TORSDOF 3
ENDMDL
MODEL 3
REMARK VINA RESULT: -5.545359703      1.487      1.815
REMARK  3 active torsions:
REMARK  status: ('A' for Active; 'I' for Inactive)
REMARK       I    between atoms: C1_4  and  N3_6 
REMARK    1  A    between atoms: N3_6  and  C2_8 
REMARK    2  A    between atoms: C2_8  and  N4_9 
REMARK    3  A    between atoms: C2_8  and  C3_13 
ROOT
HETATM    1  C2  UNL     1      83.427 -15.030  65.552  1.00  0.00     0.336 C 
ENDROOT
BRANCH   1   2
HETATM    2  N3  UNL     1      84.027 -13.776  65.175  1.00  0.00    -0.332 N 
HETATM    3  C1  UNL     1      84.177 -12.757  66.124  1.00  0.00     0.183 C 
HETATM    4  N1  UNL     1      84.051 -11.498  65.884  1.00  0.00    -0.374 N 
HETATM    5  N2  UNL     1      84.498 -13.144  67.471  1.00  0.00    -0.064 NA
ATOM      6  H12 UNL     1      84.160 -10.756  66.575  1.00  0.00     0.158 HD
ATOM      7  H11 UNL     1      83.823 -11.223  64.928  1.00  0.00     0.158 HD
ATOM      8  H3  UNL     1      84.343 -13.630  64.216  1.00  0.00     0.164 HD
ENDBRANCH   1   2
BRANCH   1   9
HETATM    9  N4  UNL     1      84.463 -15.989  65.954  1.00  0.00    -0.053 N 
ATOM     10  H43 UNL     1      84.069 -16.903  66.176  1.00  0.00     0.277 HD
ATOM     11  H42 UNL     1      85.051 -16.266  65.168  1.00  0.00     0.277 HD
ATOM     12  H41 UNL     1      85.012 -15.613  66.726  1.00  0.00     0.277 HD
ENDBRANCH   1   9
BRANCH   1  13
HETATM   13  C3  UNL     1      82.790 -15.599  64.335  1.00  0.00     0.084 A 
HETATM   14  C4  UNL     1      82.222 -14.991  63.257  1.00  0.00     0.057 A 
HETATM   15  C5  UNL     1      81.791 -16.014  62.429  1.00  0.00     0.169 A 
HETATM   16  O1  UNL     1      82.109 -17.153  63.026  1.00  0.00    -0.250 OA
HETATM   17  N5  UNL     1      82.696 -16.948  64.147  1.00  0.00    -0.262 N 
ATOM     18  H5  UNL     1      83.035 -17.668  64.787  1.00  0.00     0.194 HD
ENDBRANCH   1  13
TORSDOF 3
ENDMDL
MODEL 4
REMARK VINA RESULT: -5.540259447      1.397      1.588
REMARK  3 active torsions:
REMARK  status: ('A' for Active; 'I' for Inactive)
REMARK       I    between atoms: C1_4  and  N3_6 
REMARK    1  A    between atoms: N3_6  and  C2_8 
REMARK    2  A    between atoms: C2_8  and  N4_9 
REMARK    3  A    between atoms: C2_8  and  C3_13 
ROOT
HETATM    1  C2  UNL     1      83.996 -14.962  65.937  1.00  0.00     0.336 C 
ENDROOT
BRANCH   1   2
HETATM    2  N3  UNL     1      84.576 -13.690  65.591  1.00  0.00    -0.332 N 
HETATM    3  C1  UNL     1      84.304 -12.559  66.373  1.00  0.00     0.183 C 
HETATM    4  N1  UNL     1      84.157 -11.363  65.917  1.00  0.00    -0.374 N 
HETATM    5  N2  UNL     1      84.181 -12.747  67.792  1.00  0.00    -0.064 NA
ATOM      6  H12 UNL     1      83.960 -10.540  66.486  1.00  0.00     0.158 HD
ATOM      7  H11 UNL     1      84.245 -11.230  64.910  1.00  0.00     0.158 HD
ATOM      8  H3  UNL     1      85.185 -13.612  64.777  1.00  0.00     0.164 HD
ENDBRANCH   1   2
BRANCH   1   9
HETATM    9  N4  UNL     1      85.048 -15.968  66.120  1.00  0.00    -0.053 N 
ATOM     10  H43 UNL     1      84.667 -16.866  66.415  1.00  0.00     0.277 HD
ATOM     11  H42 UNL     1      85.453 -16.261  65.230  1.00  0.00     0.277 HD
ATOM     12  H41 UNL     1      85.758 -15.624  66.765  1.00  0.00     0.277 HD
ENDBRANCH   1   9
BRANCH   1  13
HETATM   13  C3  UNL     1      83.192 -15.414  64.770  1.00  0.00     0.084 A 
HETATM   14  C4  UNL     1      82.706 -16.643  64.441  1.00  0.00     0.057 A 
HETATM   15  C5  UNL     1      82.031 -16.475  63.245  1.00  0.00     0.169 A 
HETATM   16  O1  UNL     1      82.136 -15.196  62.918  1.00  0.00    -0.250 OA
HETATM   17  N5  UNL     1      82.812 -14.542  63.790  1.00  0.00    -0.262 N 
ATOM     18  H5  UNL     1      83.028 -13.546  63.757  1.00  0.00     0.194 HD
ENDBRANCH   1  13
TORSDOF 3
ENDMDL
MODEL 5
REMARK VINA RESULT: -5.458928235      2.323      4.364
REMARK  3 active torsions:
REMARK  status: ('A' for Active; 'I' for Inactive)
REMARK       I    between atoms: C1_4  and  N3_6 
REMARK    1  A    between atoms: N3_6  and  C2_8 
REMARK    2  A    between atoms: C2_8  and  N4_9 
REMARK    3  A    between atoms: C2_8  and  C3_13 
ROOT
HETATM    1  C2  UNL     1      83.864 -14.895  64.947  1.00  0.00     0.336 C 
ENDROOT
BRANCH   1   2
HETATM    2  N3  UNL     1      82.476 -14.970  64.570  1.00  0.00    -0.332 N 
HETATM    3  C1  UNL     1      82.045 -15.955  63.672  1.00  0.00     0.183 C 
HETATM    4  N1  UNL     1      81.130 -15.793  62.779  1.00  0.00    -0.374 N 
HETATM    5  N2  UNL     1      82.670 -17.247  63.751  1.00  0.00    -0.064 NA
ATOM      6  H12 UNL     1      80.816 -16.510  62.126  1.00  0.00     0.158 HD
ATOM      7  H11 UNL     1      80.686 -14.876  62.723  1.00  0.00     0.158 HD
ATOM      8  H3  UNL     1      81.806 -14.306  64.958  1.00  0.00     0.164 HD
ENDBRANCH   1   2
BRANCH   1   9
HETATM    9  N4  UNL     1      84.187 -15.952  65.912  1.00  0.00    -0.053 N 
ATOM     10  H43 UNL     1      83.388 -16.559  66.092  1.00  0.00     0.277 HD
ATOM     11  H42 UNL     1      84.819 -16.648  65.517  1.00  0.00     0.277 HD
ATOM     12  H41 UNL     1      84.558 -15.545  66.770  1.00  0.00     0.277 HD
ENDBRANCH   1   9
BRANCH   1  13
HETATM   13  C3  UNL     1      84.058 -13.608  65.666  1.00  0.00     0.084 A 
HETATM   14  C4  UNL     1      84.554 -13.343  66.906  1.00  0.00     0.057 A 
HETATM   15  C5  UNL     1      84.502 -11.967  67.048  1.00  0.00     0.169 A 
HETATM   16  O1  UNL     1      83.995 -11.482  65.926  1.00  0.00    -0.250 OA
HETATM   17  N5  UNL     1      83.722 -12.416  65.091  1.00  0.00    -0.262 N 
ATOM     18  H5  UNL     1      83.324 -12.291  64.160  1.00  0.00     0.194 HD
ENDBRANCH   1  13
TORSDOF 3
ENDMDL
