MODEL 1
REMARK VINA RESULT: -5.807224840      0.000      0.000
REMARK  3 active torsions:
REMARK  status: ('A' for Active; 'I' for Inactive)
REMARK    1  A    between atoms: C2_3  and  C3_4 
REMARK    2  A    between atoms: C3_4  and  N2_5 
REMARK    3  A    between atoms: C4_8  and  N4_9 
ROOT
HETATM    1  N1  UNL     1      81.559 -18.101  64.110  1.00  0.00    -0.197 NA
HETATM    2  C1  UNL     1      82.008 -17.031  64.128  1.00  0.00     0.060 C 
HETATM    3  C2  UNL     1      82.577 -15.681  64.167  1.00  0.00     0.146 C 
ENDROOT
BRANCH   3   4
HETATM    4  C3  UNL     1      84.111 -15.764  64.196  1.00  0.00     0.182 C 
BRANCH   4   5
HETATM    5  N2  UNL     1      84.580 -14.900  65.244  1.00  0.00    -0.108 N 
HETATM    6  N3  UNL     1      83.844 -13.973  65.844  1.00  0.00    -0.115 N 
HETATM    7  C4  UNL     1      84.621 -13.370  66.765  1.00  0.00     0.705 A 
ATOM      8  H3  UNL     1      82.867 -13.756  65.646  1.00  0.00     0.206 HD
HETATM    9  N5  UNL     1      85.834 -13.958  66.698  1.00  0.00    -0.020 N 
HETATM   10  C5  UNL     1      85.825 -14.916  65.753  1.00  0.00     0.707 A 
ATOM     11  H5  UNL     1      86.636 -13.713  67.278  1.00  0.00     0.203 HD
HETATM   12  N6  UNL     1      86.828 -15.681  65.425  1.00  0.00    -0.233 N 
ATOM     13  H62 UNL     1      86.822 -16.407  64.708  1.00  0.00     0.174 HD
ATOM     14  H61 UNL     1      87.773 -15.693  65.811  1.00  0.00     0.174 HD
BRANCH   7  15
HETATM   15  N4  UNL     1      84.326 -12.410  67.583  1.00  0.00    -0.233 N 
ATOM     16  H42 UNL     1      84.084 -11.463  67.289  1.00  0.00     0.174 HD
ATOM     17  H41 UNL     1      84.283 -12.421  68.603  1.00  0.00     0.174 HD
ENDBRANCH   7  15
ENDBRANCH   4   5
ENDBRANCH   3   4
TORSDOF 3
ENDMDL
MODEL 2
REMARK VINA RESULT: -5.589258471      0.834      2.432
REMARK  3 active torsions:
REMARK  status: ('A' for Active; 'I' for Inactive)
REMARK    1  A    between atoms: C2_3  and  C3_4 
REMARK    2  A    between atoms: C3_4  and  N2_5 
REMARK    3  A    between atoms: C4_8  and  N4_9 
ROOT
HETATM    1  N1  UNL     1      81.715 -17.644  64.313  1.00  0.00    -0.197 NA
HETATM    2  C1  UNL     1      82.238 -16.648  64.033  1.00  0.00     0.060 C 
HETATM    3  C2  UNL     1      82.886 -15.381  63.680  1.00  0.00     0.146 C 
ENDROOT
BRANCH   3   4
HETATM    4  C3  UNL     1      83.073 -14.524  64.940  1.00  0.00     0.182 C 
BRANCH   4   5
HETATM    5  N2  UNL     1      84.420 -14.709  65.405  1.00  0.00    -0.108 N 
HETATM    6  N3  UNL     1      85.228 -15.684  65.008  1.00  0.00    -0.115 N 
HETATM    7  C4  UNL     1      86.399 -15.532  65.656  1.00  0.00     0.705 A 
ATOM      8  H3  UNL     1      85.004 -16.417  64.335  1.00  0.00     0.206 HD
HETATM    9  N5  UNL     1      86.269 -14.444  66.446  1.00  0.00    -0.020 N 
HETATM   10  C5  UNL     1      85.039 -13.919  66.301  1.00  0.00     0.707 A 
ATOM     11  H5  UNL     1      86.995 -14.077  67.061  1.00  0.00     0.203 HD
HETATM   12  N6  UNL     1      84.576 -12.866  66.914  1.00  0.00    -0.233 N 
ATOM     13  H62 UNL     1      83.643 -12.467  66.803  1.00  0.00     0.174 HD
ATOM     14  H61 UNL     1      85.045 -12.267  67.594  1.00  0.00     0.174 HD
BRANCH   7  15
HETATM   15  N4  UNL     1      87.476 -16.249  65.583  1.00  0.00    -0.233 N 
ATOM     16  H42 UNL     1      88.154 -16.182  64.824  1.00  0.00     0.174 HD
ATOM     17  H41 UNL     1      87.821 -16.962  66.225  1.00  0.00     0.174 HD
ENDBRANCH   7  15
ENDBRANCH   4   5
ENDBRANCH   3   4
TORSDOF 3
ENDMDL
MODEL 3
REMARK VINA RESULT: -5.580695452      1.532      2.789
REMARK  3 active torsions:
REMARK  status: ('A' for Active; 'I' for Inactive)
REMARK    1  A    between atoms: C2_3  and  C3_4 
REMARK    2  A    between atoms: C3_4  and  N2_5 
REMARK    3  A    between atoms: C4_8  and  N4_9 
ROOT
HETATM    1  N1  UNL     1      80.959 -14.754  62.118  1.00  0.00    -0.197 NA
HETATM    2  C1  UNL     1      81.724 -15.058  62.934  1.00  0.00     0.060 C 
HETATM    3  C2  UNL     1      82.703 -15.439  63.957  1.00  0.00     0.146 C 
ENDROOT
BRANCH   3   4
HETATM    4  C3  UNL     1      83.231 -14.181  64.664  1.00  0.00     0.182 C 
BRANCH   4   5
HETATM    5  N2  UNL     1      84.518 -14.495  65.222  1.00  0.00    -0.108 N 
HETATM    6  N3  UNL     1      85.285 -15.505  64.829  1.00  0.00    -0.115 N 
HETATM    7  C4  UNL     1      86.405 -15.480  65.578  1.00  0.00     0.705 A 
ATOM      8  H3  UNL     1      85.067 -16.178  64.095  1.00  0.00     0.206 HD
HETATM    9  N5  UNL     1      86.286 -14.434  66.423  1.00  0.00    -0.020 N 
HETATM   10  C5  UNL     1      85.113 -13.808  66.214  1.00  0.00     0.707 A 
ATOM     11  H5  UNL     1      86.982 -14.159  67.115  1.00  0.00     0.203 HD
HETATM   12  N6  UNL     1      84.676 -12.760  66.854  1.00  0.00    -0.233 N 
ATOM     13  H62 UNL     1      83.787 -12.286  66.695  1.00  0.00     0.174 HD
ATOM     14  H61 UNL     1      85.128 -12.240  67.606  1.00  0.00     0.174 HD
BRANCH   7  15
HETATM   15  N4  UNL     1      87.429 -16.272  65.545  1.00  0.00    -0.233 N 
ATOM     16  H42 UNL     1      88.361 -15.986  65.241  1.00  0.00     0.174 HD
ATOM     17  H41 UNL     1      87.492 -17.258  65.799  1.00  0.00     0.174 HD
ENDBRANCH   7  15
ENDBRANCH   4   5
ENDBRANCH   3   4
TORSDOF 3
ENDMDL
MODEL 4
REMARK VINA RESULT: -5.041454123      2.226      5.315
REMARK  3 active torsions:
REMARK  status: ('A' for Active; 'I' for Inactive)
REMARK    1  A    between atoms: C2_3  and  C3_4 
REMARK    2  A    between atoms: C3_4  and  N2_5 
REMARK    3  A    between atoms: C4_8  and  N4_9 
ROOT
HETATM    1  N1  UNL     1      84.001 -12.127  65.563  1.00  0.00    -0.197 NA
HETATM    2  C1  UNL     1      83.834 -13.274  65.543  1.00  0.00     0.060 C 
HETATM    3  C2  UNL     1      83.609 -14.723  65.512  1.00  0.00     0.146 C 
ENDROOT
BRANCH   3   4
HETATM    4  C3  UNL     1      83.824 -15.251  64.086  1.00  0.00     0.182 C 
BRANCH   4   5
HETATM    5  N2  UNL     1      82.716 -16.108  63.762  1.00  0.00    -0.108 N 
HETATM    6  N3  UNL     1      82.565 -17.349  64.210  1.00  0.00    -0.115 N 
HETATM    7  C4  UNL     1      81.417 -17.830  63.695  1.00  0.00     0.705 A 
ATOM      8  H3  UNL     1      83.202 -17.848  64.831  1.00  0.00     0.206 HD
HETATM    9  N5  UNL     1      80.890 -16.849  62.932  1.00  0.00    -0.020 N 
HETATM   10  C5  UNL     1      81.689 -15.767  62.963  1.00  0.00     0.707 A 
ATOM     11  H5  UNL     1      80.016 -16.918  62.410  1.00  0.00     0.203 HD
HETATM   12  N6  UNL     1      81.483 -14.641  62.340  1.00  0.00    -0.233 N 
ATOM     13  H62 UNL     1      82.089 -13.820  62.363  1.00  0.00     0.174 HD
ATOM     14  H61 UNL     1      80.704 -14.382  61.733  1.00  0.00     0.174 HD
BRANCH   7  15
HETATM   15  N4  UNL     1      80.870 -18.993  63.858  1.00  0.00    -0.233 N 
ATOM     16  H42 UNL     1      80.675 -19.643  63.096  1.00  0.00     0.174 HD
ATOM     17  H41 UNL     1      80.556 -19.443  64.718  1.00  0.00     0.174 HD
ENDBRANCH   7  15
ENDBRANCH   4   5
ENDBRANCH   3   4
TORSDOF 3
ENDMDL
MODEL 5
REMARK VINA RESULT: -4.989623203      2.180      4.930
REMARK  3 active torsions:
REMARK  status: ('A' for Active; 'I' for Inactive)
REMARK    1  A    between atoms: C2_3  and  C3_4 
REMARK    2  A    between atoms: C3_4  and  N2_5 
REMARK    3  A    between atoms: C4_8  and  N4_9 
ROOT
HETATM    1  N1  UNL     1      84.355 -13.108  67.446  1.00  0.00    -0.197 NA
HETATM    2  C1  UNL     1      84.364 -13.657  66.424  1.00  0.00     0.060 C 
HETATM    3  C2  UNL     1      84.386 -14.360  65.138  1.00  0.00     0.146 C 
ENDROOT
BRANCH   3   4
HETATM    4  C3  UNL     1      83.532 -15.633  65.228  1.00  0.00     0.182 C 
BRANCH   4   5
HETATM    5  N2  UNL     1      82.623 -15.634  64.114  1.00  0.00    -0.108 N 
HETATM    6  N3  UNL     1      82.326 -14.568  63.381  1.00  0.00    -0.115 N 
HETATM    7  C4  UNL     1      81.447 -14.955  62.437  1.00  0.00     0.705 A 
ATOM      8  H3  UNL     1      82.697 -13.626  63.508  1.00  0.00     0.206 HD
HETATM    9  N5  UNL     1      81.228 -16.274  62.626  1.00  0.00    -0.020 N 
HETATM   10  C5  UNL     1      81.954 -16.713  63.669  1.00  0.00     0.707 A 
ATOM     11  H5  UNL     1      80.604 -16.851  62.061  1.00  0.00     0.203 HD
HETATM   12  N6  UNL     1      81.983 -17.933  64.127  1.00  0.00    -0.233 N 
ATOM     13  H62 UNL     1      82.534 -18.267  64.918  1.00  0.00     0.174 HD
ATOM     14  H61 UNL     1      81.476 -18.752  63.789  1.00  0.00     0.174 HD
BRANCH   7  15
HETATM   15  N4  UNL     1      80.884 -14.254  61.505  1.00  0.00    -0.233 N 
ATOM     16  H42 UNL     1      80.818 -13.236  61.518  1.00  0.00     0.174 HD
ATOM     17  H41 UNL     1      80.434 -14.567  60.644  1.00  0.00     0.174 HD
ENDBRANCH   7  15
ENDBRANCH   4   5
ENDBRANCH   3   4
TORSDOF 3
ENDMDL
