MODEL 1
REMARK VINA RESULT: -4.812336597      0.000      0.000
REMARK  5 active torsions:
REMARK  status: ('A' for Active; 'I' for Inactive)
REMARK    1  A    between atoms: C2_2  and  C3_3 
REMARK    2  A    between atoms: C3_3  and  N1_4 
REMARK    3  A    between atoms: N1_4  and  N2_6 
REMARK    4  A    between atoms: N2_6  and  C4_8 
REMARK    5  A    between atoms: N4_13  and  N5_14 
ROOT
HETATM    1  C4  UNL     1      83.901 -14.690  64.764  1.00  0.00     0.708 C 
HETATM    2  N3  UNL     1      84.607 -15.689  65.133  1.00  0.00    -0.222 N 
ATOM      3  H3  UNL     1      84.468 -16.624  64.752  1.00  0.00     0.177 HD
HETATM    4  C5  UNL     1      85.595 -15.406  66.108  1.00  0.00     0.160 C 
HETATM    5  C6  UNL     1      85.573 -13.925  66.251  1.00  0.00     0.187 C 
HETATM    6  N4  UNL     1      84.380 -13.575  65.503  1.00  0.00    -0.128 N 
ENDROOT
BRANCH   1   7
HETATM    7  N2  UNL     1      82.830 -14.661  63.797  1.00  0.00    -0.135 N 
ATOM      8  H2  UNL     1      82.877 -13.979  63.041  1.00  0.00     0.205 HD
BRANCH   7   9
HETATM    9  N1  UNL     1      81.749 -15.511  63.848  1.00  0.00    -0.322 N 
ATOM     10  H1  UNL     1      80.959 -15.358  64.475  1.00  0.00     0.180 HD
BRANCH   9  11
HETATM   11  C3  UNL     1      81.815 -16.630  62.952  1.00  0.00     0.139 C 
BRANCH  11  12
HETATM   12  C2  UNL     1      81.960 -17.884  63.797  1.00  0.00     0.017 C 
HETATM   13  C1  UNL     1      80.734 -18.751  63.734  1.00  0.00     0.007 C 
ENDBRANCH  11  12
ENDBRANCH   9  11
ENDBRANCH   7   9
ENDBRANCH   1   7
BRANCH   6  14
HETATM   14  N5  UNL     1      83.812 -12.299  65.532  1.00  0.00    -0.329 N 
ATOM     15  H52 UNL     1      82.968 -12.078  66.061  1.00  0.00     0.177 HD
ATOM     16  H51 UNL     1      84.162 -11.474  65.046  1.00  0.00     0.177 HD
ENDBRANCH   6  14
TORSDOF 5
ENDMDL
MODEL 2
REMARK VINA RESULT: -4.796013543      1.264      1.367
REMARK  5 active torsions:
REMARK  status: ('A' for Active; 'I' for Inactive)
REMARK    1  A    between atoms: C2_2  and  C3_3 
REMARK    2  A    between atoms: C3_3  and  N1_4 
REMARK    3  A    between atoms: N1_4  and  N2_6 
REMARK    4  A    between atoms: N2_6  and  C4_8 
REMARK    5  A    between atoms: N4_13  and  N5_14 
ROOT
HETATM    1  C4  UNL     1      84.391 -14.948  65.519  1.00  0.00     0.708 C 
HETATM    2  N3  UNL     1      85.218 -15.677  64.874  1.00  0.00    -0.222 N 
ATOM      3  H3  UNL     1      84.930 -16.272  64.098  1.00  0.00     0.177 HD
HETATM    4  C5  UNL     1      86.564 -15.600  65.311  1.00  0.00     0.160 C 
HETATM    5  C6  UNL     1      86.570 -14.509  66.324  1.00  0.00     0.187 C 
HETATM    6  N4  UNL     1      85.151 -14.272  66.511  1.00  0.00    -0.128 N 
ENDROOT
BRANCH   1   7
HETATM    7  N2  UNL     1      82.969 -14.813  65.311  1.00  0.00    -0.135 N 
ATOM      8  H2  UNL     1      82.513 -13.952  65.615  1.00  0.00     0.205 HD
BRANCH   7   9
HETATM    9  N1  UNL     1      82.199 -15.790  64.723  1.00  0.00    -0.322 N 
ATOM     10  H1  UNL     1      81.828 -16.584  65.245  1.00  0.00     0.180 HD
BRANCH   9  11
HETATM   11  C3  UNL     1      81.958 -15.609  63.320  1.00  0.00     0.139 C 
BRANCH  11  12
HETATM   12  C2  UNL     1      81.620 -16.969  62.735  1.00  0.00     0.017 C 
HETATM   13  C1  UNL     1      81.705 -18.062  63.764  1.00  0.00     0.007 C 
ENDBRANCH  11  12
ENDBRANCH   9  11
ENDBRANCH   7   9
ENDBRANCH   1   7
BRANCH   6  14
HETATM   14  N5  UNL     1      84.642 -13.477  67.540  1.00  0.00    -0.329 N 
ATOM     15  H52 UNL     1      83.713 -13.057  67.510  1.00  0.00     0.177 HD
ATOM     16  H51 UNL     1      85.122 -13.235  68.406  1.00  0.00     0.177 HD
ENDBRANCH   6  14
TORSDOF 5
ENDMDL
MODEL 3
REMARK VINA RESULT: -4.707574610      1.136      1.986
REMARK  5 active torsions:
REMARK  status: ('A' for Active; 'I' for Inactive)
REMARK    1  A    between atoms: C2_2  and  C3_3 
REMARK    2  A    between atoms: C3_3  and  N1_4 
REMARK    3  A    between atoms: N1_4  and  N2_6 
REMARK    4  A    between atoms: N2_6  and  C4_8 
REMARK    5  A    between atoms: N4_13  and  N5_14 
ROOT
HETATM    1  C4  UNL     1      83.801 -13.852  65.091  1.00  0.00     0.708 C 
HETATM    2  N3  UNL     1      83.702 -12.587  65.238  1.00  0.00    -0.222 N 
ATOM      3  H3  UNL     1      83.186 -12.000  64.584  1.00  0.00     0.177 HD
HETATM    4  C5  UNL     1      84.362 -12.056  66.375  1.00  0.00     0.160 C 
HETATM    5  C6  UNL     1      84.829 -13.248  67.132  1.00  0.00     0.187 C 
HETATM    6  N4  UNL     1      84.583 -14.316  66.182  1.00  0.00    -0.128 N 
ENDROOT
BRANCH   1   7
HETATM    7  N2  UNL     1      83.244 -14.674  64.044  1.00  0.00    -0.135 N 
ATOM      8  H2  UNL     1      83.663 -14.629  63.115  1.00  0.00     0.205 HD
BRANCH   7   9
HETATM    9  N1  UNL     1      82.173 -15.517  64.239  1.00  0.00    -0.322 N 
ATOM     10  H1  UNL     1      81.237 -15.173  64.455  1.00  0.00     0.180 HD
BRANCH   9  11
HETATM   11  C3  UNL     1      82.472 -16.915  64.117  1.00  0.00     0.139 C 
BRANCH  11  12
HETATM   12  C2  UNL     1      81.431 -17.525  63.194  1.00  0.00     0.017 C 
HETATM   13  C1  UNL     1      80.811 -18.761  63.783  1.00  0.00     0.007 C 
ENDBRANCH  11  12
ENDBRANCH   9  11
ENDBRANCH   7   9
ENDBRANCH   1   7
BRANCH   6  14
HETATM   14  N5  UNL     1      85.067 -15.615  66.355  1.00  0.00    -0.329 N 
ATOM     15  H52 UNL     1      84.481 -16.390  66.667  1.00  0.00     0.177 HD
ATOM     16  H51 UNL     1      86.025 -15.926  66.196  1.00  0.00     0.177 HD
ENDBRANCH   6  14
TORSDOF 5
ENDMDL
MODEL 4
REMARK VINA RESULT: -4.500410950      0.862      1.127
REMARK  5 active torsions:
REMARK  status: ('A' for Active; 'I' for Inactive)
REMARK    1  A    between atoms: C2_2  and  C3_3 
REMARK    2  A    between atoms: C3_3  and  N1_4 
REMARK    3  A    between atoms: N1_4  and  N2_6 
REMARK    4  A    between atoms: N2_6  and  C4_8 
REMARK    5  A    between atoms: N4_13  and  N5_14 
ROOT
HETATM    1  C4  UNL     1      83.725 -14.960  65.421  1.00  0.00     0.708 C 
HETATM    2  N3  UNL     1      84.533 -15.825  65.903  1.00  0.00    -0.222 N 
ATOM      3  H3  UNL     1      84.342 -16.826  65.871  1.00  0.00     0.177 HD
HETATM    4  C5  UNL     1      85.712 -15.296  66.485  1.00  0.00     0.160 C 
HETATM    5  C6  UNL     1      85.670 -13.843  66.168  1.00  0.00     0.187 C 
HETATM    6  N4  UNL     1      84.324 -13.692  65.649  1.00  0.00    -0.128 N 
ENDROOT
BRANCH   1   7
HETATM    7  N2  UNL     1      82.457 -15.188  64.771  1.00  0.00    -0.135 N 
ATOM      8  H2  UNL     1      81.629 -14.726  65.147  1.00  0.00     0.205 HD
BRANCH   7   9
HETATM    9  N1  UNL     1      82.312 -15.998  63.668  1.00  0.00    -0.322 N 
ATOM     10  H1  UNL     1      82.418 -15.650  62.715  1.00  0.00     0.180 HD
BRANCH   9  11
HETATM   11  C3  UNL     1      82.001 -17.368  63.958  1.00  0.00     0.139 C 
BRANCH  11  12
HETATM   12  C2  UNL     1      81.071 -17.867  62.866  1.00  0.00     0.017 C 
HETATM   13  C1  UNL     1      81.528 -17.440  61.499  1.00  0.00     0.007 C 
ENDBRANCH  11  12
ENDBRANCH   9  11
ENDBRANCH   7   9
ENDBRANCH   1   7
BRANCH   6  14
HETATM   14  N5  UNL     1      83.733 -12.448  65.417  1.00  0.00    -0.329 N 
ATOM     15  H52 UNL     1      84.156 -11.734  64.824  1.00  0.00     0.177 HD
ATOM     16  H51 UNL     1      82.846 -12.123  65.799  1.00  0.00     0.177 HD
ENDBRANCH   6  14
TORSDOF 5
ENDMDL
MODEL 5
REMARK VINA RESULT: -4.490395825      1.764      5.005
REMARK  5 active torsions:
REMARK  status: ('A' for Active; 'I' for Inactive)
REMARK    1  A    between atoms: C2_2  and  C3_3 
REMARK    2  A    between atoms: C3_3  and  N1_4 
REMARK    3  A    between atoms: N1_4  and  N2_6 
REMARK    4  A    between atoms: N2_6  and  C4_8 
REMARK    5  A    between atoms: N4_13  and  N5_14 
ROOT
HETATM    1  C4  UNL     1      82.158 -15.852  63.928  1.00  0.00     0.708 C 
HETATM    2  N3  UNL     1      81.974 -14.985  63.008  1.00  0.00    -0.222 N 
ATOM      3  H3  UNL     1      82.148 -13.991  63.153  1.00  0.00     0.177 HD
HETATM    4  C5  UNL     1      81.511 -15.501  61.772  1.00  0.00     0.160 C 
HETATM    5  C6  UNL     1      81.560 -16.979  61.938  1.00  0.00     0.187 C 
HETATM    6  N4  UNL     1      81.815 -17.108  63.360  1.00  0.00    -0.128 N 
ENDROOT
BRANCH   1   7
HETATM    7  N2  UNL     1      82.619 -15.636  65.279  1.00  0.00    -0.135 N 
ATOM      8  H2  UNL     1      81.925 -15.488  66.011  1.00  0.00     0.205 HD
BRANCH   7   9
HETATM    9  N1  UNL     1      83.951 -15.620  65.624  1.00  0.00    -0.322 N 
ATOM     10  H1  UNL     1      84.507 -16.472  65.704  1.00  0.00     0.180 HD
BRANCH   9  11
HETATM   11  C3  UNL     1      84.500 -14.317  65.866  1.00  0.00     0.139 C 
BRANCH  11  12
HETATM   12  C2  UNL     1      85.966 -14.497  66.220  1.00  0.00     0.017 C 
HETATM   13  C1  UNL     1      86.580 -15.666  65.503  1.00  0.00     0.007 C 
ENDBRANCH  11  12
ENDBRANCH   9  11
ENDBRANCH   7   9
ENDBRANCH   1   7
BRANCH   6  14
HETATM   14  N5  UNL     1      81.727 -18.324  64.042  1.00  0.00    -0.329 N 
ATOM     15  H52 UNL     1      81.329 -19.166  63.627  1.00  0.00     0.177 HD
ATOM     16  H51 UNL     1      82.039 -18.503  64.996  1.00  0.00     0.177 HD
ENDBRANCH   6  14
TORSDOF 5
ENDMDL
