MODEL 1
REMARK VINA RESULT: -7.657527895      0.000      0.000
REMARK  6 active torsions:
REMARK  status: ('A' for Active; 'I' for Inactive)
REMARK    1  A    between atoms: N1_2  and  S1_4 
REMARK    2  A    between atoms: S1_4  and  N2_7 
REMARK    3  A    between atoms: N2_7  and  S2_9 
REMARK    4  A    between atoms: S2_9  and  N3_12 
REMARK    5  A    between atoms: N3_12  and  C2_14 
REMARK    6  A    between atoms: C4_24  and  N8_25 
ROOT
HETATM    1  C2  UNL     1      16.945  22.851 110.098  1.00  0.00     0.153 A 
HETATM    2  N4  UNL     1      17.126  23.384 111.362  1.00  0.00    -0.269 N 
ATOM      3  H4  UNL     1      16.358  23.495 112.023  1.00  0.00     0.190 HD
HETATM    4  N5  UNL     1      18.356  23.737 111.648  1.00  0.00    -0.239 N 
ATOM      5  H5  UNL     1      18.512  24.134 112.574  1.00  0.00     0.208 HD
HETATM    6  N6  UNL     1      19.403  23.635 110.871  1.00  0.00    -0.270 N 
ATOM      7  H6  UNL     1      20.311  23.948 111.214  1.00  0.00     0.190 HD
HETATM    8  C3  UNL     1      19.306  23.112 109.598  1.00  0.00     0.144 A 
HETATM    9  N7  UNL     1      20.264  22.954 108.726  1.00  0.00    -0.321 N 
ATOM     10  H7  UNL     1      21.221  23.228 108.951  1.00  0.00     0.169 HD
HETATM   11  C4  UNL     1      19.970  22.427 107.538  1.00  0.00     0.144 A 
HETATM   12  S3  UNL     1      18.293  22.148 107.657  1.00  0.00    -0.047 SA
HETATM   13  C5  UNL     1      18.036  22.727 109.249  1.00  0.00     0.100 A 
ENDROOT
BRANCH   1  14
HETATM   14  N3  UNL     1      15.820  22.482 109.719  1.00  0.00    -0.250 N 
ATOM     15  H3  UNL     1      15.657  21.504 109.958  1.00  0.00     0.182 HD
BRANCH  14  16
HETATM   16  S2  UNL     1      14.506  23.131 108.932  1.00  0.00     0.334 S 
HETATM   17  O3  UNL     1      13.228  22.513 109.496  1.00  0.00    -0.181 OA
HETATM   18  O4  UNL     1      14.386  24.635 109.064  1.00  0.00    -0.181 OA
BRANCH  16  19
HETATM   19  N2  UNL     1      14.597  22.701 107.243  1.00  0.00    -0.177 N 
ATOM     20  H2  UNL     1      14.783  23.377 106.502  1.00  0.00     0.195 HD
BRANCH  19  21
HETATM   21  S1  UNL     1      14.345  21.044 106.957  1.00  0.00     0.328 S 
HETATM   22  O1  UNL     1      15.110  20.219 107.955  1.00  0.00    -0.182 OA
HETATM   23  O2  UNL     1      12.877  20.704 107.162  1.00  0.00    -0.182 OA
BRANCH  21  24
HETATM   24  N1  UNL     1      14.803  20.611 105.375  1.00  0.00    -0.306 N 
HETATM   25  C1  UNL     1      14.796  19.201 105.118  1.00  0.00     0.161 C 
ATOM     26  H1  UNL     1      15.060  21.299 104.667  1.00  0.00     0.173 HD
ENDBRANCH  21  24
ENDBRANCH  19  21
ENDBRANCH  16  19
ENDBRANCH  14  16
ENDBRANCH   1  14
BRANCH  11  27
HETATM   27  N8  UNL     1      20.796  22.195 106.541  1.00  0.00    -0.380 N 
ATOM     28  H82 UNL     1      21.788  21.960 106.555  1.00  0.00     0.158 HD
ATOM     29  H81 UNL     1      20.583  22.209 105.544  1.00  0.00     0.158 HD
ENDBRANCH  11  27
TORSDOF 6
ENDMDL
MODEL 2
REMARK VINA RESULT: -7.403180290      1.526      2.767
REMARK  6 active torsions:
REMARK  status: ('A' for Active; 'I' for Inactive)
REMARK    1  A    between atoms: N1_2  and  S1_4 
REMARK    2  A    between atoms: S1_4  and  N2_7 
REMARK    3  A    between atoms: N2_7  and  S2_9 
REMARK    4  A    between atoms: S2_9  and  N3_12 
REMARK    5  A    between atoms: N3_12  and  C2_14 
REMARK    6  A    between atoms: C4_24  and  N8_25 
ROOT
HETATM    1  C2  UNL     1      17.152  22.589 109.390  1.00  0.00     0.153 A 
HETATM    2  N4  UNL     1      17.866  22.240 108.258  1.00  0.00    -0.269 N 
ATOM      3  H4  UNL     1      17.425  21.819 107.441  1.00  0.00     0.190 HD
HETATM    4  N5  UNL     1      19.152  22.491 108.311  1.00  0.00    -0.239 N 
ATOM      5  H5  UNL     1      19.699  22.242 107.487  1.00  0.00     0.208 HD
HETATM    6  N6  UNL     1      19.808  23.028 109.307  1.00  0.00    -0.270 N 
ATOM      7  H6  UNL     1      20.814  23.170 109.224  1.00  0.00     0.190 HD
HETATM    8  C3  UNL     1      19.167  23.404 110.470  1.00  0.00     0.144 A 
HETATM    9  N7  UNL     1      19.697  23.946 111.532  1.00  0.00    -0.321 N 
ATOM     10  H7  UNL     1      20.698  24.141 111.571  1.00  0.00     0.169 HD
HETATM   11  C4  UNL     1      18.907  24.240 112.565  1.00  0.00     0.144 A 
HETATM   12  S3  UNL     1      17.373  23.736 112.018  1.00  0.00    -0.047 SA
HETATM   13  C5  UNL     1      17.816  23.161 110.466  1.00  0.00     0.100 A 
ENDROOT
BRANCH   1  14
HETATM   14  N3  UNL     1      15.925  22.397 109.452  1.00  0.00    -0.250 N 
ATOM     15  H3  UNL     1      15.706  21.640 110.101  1.00  0.00     0.182 HD
BRANCH  14  16
HETATM   16  S2  UNL     1      14.539  23.023 108.777  1.00  0.00     0.334 S 
HETATM   17  O3  UNL     1      13.323  22.386 109.448  1.00  0.00    -0.181 OA
HETATM   18  O4  UNL     1      14.407  24.525 108.918  1.00  0.00    -0.181 OA
BRANCH  16  19
HETATM   19  N2  UNL     1      14.495  22.590 107.087  1.00  0.00    -0.177 N 
ATOM     20  H2  UNL     1      14.574  23.271 106.332  1.00  0.00     0.195 HD
BRANCH  19  21
HETATM   21  S1  UNL     1      14.308  20.920 106.826  1.00  0.00     0.328 S 
HETATM   22  O1  UNL     1      15.190  20.143 107.763  1.00  0.00    -0.182 OA
HETATM   23  O2  UNL     1      12.880  20.506 107.145  1.00  0.00    -0.182 OA
BRANCH  21  24
HETATM   24  N1  UNL     1      14.663  20.502 105.214  1.00  0.00    -0.306 N 
HETATM   25  C1  UNL     1      14.842  19.097 104.989  1.00  0.00     0.161 C 
ATOM     26  H1  UNL     1      14.742  21.194 104.469  1.00  0.00     0.173 HD
ENDBRANCH  21  24
ENDBRANCH  19  21
ENDBRANCH  16  19
ENDBRANCH  14  16
ENDBRANCH   1  14
BRANCH  11  27
HETATM   27  N8  UNL     1      19.258  24.784 113.709  1.00  0.00    -0.380 N 
ATOM     28  H82 UNL     1      19.973  24.498 114.378  1.00  0.00     0.158 HD
ATOM     29  H81 UNL     1      18.864  25.618 114.145  1.00  0.00     0.158 HD
ENDBRANCH  11  27
TORSDOF 6
ENDMDL
MODEL 3
REMARK VINA RESULT: -7.183271483      2.008      3.976
REMARK  6 active torsions:
REMARK  status: ('A' for Active; 'I' for Inactive)
REMARK    1  A    between atoms: N1_2  and  S1_4 
REMARK    2  A    between atoms: S1_4  and  N2_7 
REMARK    3  A    between atoms: N2_7  and  S2_9 
REMARK    4  A    between atoms: S2_9  and  N3_12 
REMARK    5  A    between atoms: N3_12  and  C2_14 
REMARK    6  A    between atoms: C4_24  and  N8_25 
ROOT
HETATM    1  C2  UNL     1      17.997  22.158 107.619  1.00  0.00     0.153 A 
HETATM    2  N4  UNL     1      19.125  21.994 106.835  1.00  0.00    -0.269 N 
ATOM      3  H4  UNL     1      19.081  21.637 105.881  1.00  0.00     0.190 HD
HETATM    4  N5  UNL     1      20.256  22.332 107.407  1.00  0.00    -0.239 N 
ATOM      5  H5  UNL     1      21.101  22.219 106.848  1.00  0.00     0.208 HD
HETATM    6  N6  UNL     1      20.415  22.798 108.619  1.00  0.00    -0.270 N 
ATOM      7  H6  UNL     1      21.353  23.023 108.948  1.00  0.00     0.190 HD
HETATM    8  C3  UNL     1      19.339  22.991 109.462  1.00  0.00     0.144 A 
HETATM    9  N7  UNL     1      19.357  23.446 110.685  1.00  0.00    -0.321 N 
ATOM     10  H7  UNL     1      20.238  23.709 111.128  1.00  0.00     0.169 HD
HETATM   11  C4  UNL     1      18.204  23.561 111.344  1.00  0.00     0.144 A 
HETATM   12  S3  UNL     1      17.064  23.011 110.202  1.00  0.00    -0.047 SA
HETATM   13  C5  UNL     1      18.130  22.651 108.909  1.00  0.00     0.100 A 
ENDROOT
BRANCH   1  14
HETATM   14  N3  UNL     1      16.870  21.869 107.180  1.00  0.00    -0.250 N 
ATOM     15  H3  UNL     1      16.573  22.539 106.470  1.00  0.00     0.182 HD
BRANCH  14  16
HETATM   16  S2  UNL     1      15.710  20.701 107.421  1.00  0.00     0.334 S 
HETATM   17  O3  UNL     1      14.890  20.537 106.143  1.00  0.00    -0.181 OA
HETATM   18  O4  UNL     1      16.268  19.342 107.786  1.00  0.00    -0.181 OA
BRANCH  16  19
HETATM   19  N2  UNL     1      14.626  21.242 108.677  1.00  0.00    -0.177 N 
ATOM     20  H2  UNL     1      14.547  20.784 109.585  1.00  0.00     0.195 HD
BRANCH  19  21
HETATM   21  S1  UNL     1      13.715  22.608 108.236  1.00  0.00     0.328 S 
HETATM   22  O1  UNL     1      14.490  23.465 107.274  1.00  0.00    -0.182 OA
HETATM   23  O2  UNL     1      12.458  22.172 107.498  1.00  0.00    -0.182 OA
BRANCH  21  24
HETATM   24  N1  UNL     1      13.271  23.524 109.600  1.00  0.00    -0.306 N 
HETATM   25  C1  UNL     1      12.019  24.212 109.474  1.00  0.00     0.161 C 
ATOM     26  H1  UNL     1      13.848  23.579 110.440  1.00  0.00     0.173 HD
ENDBRANCH  21  24
ENDBRANCH  19  21
ENDBRANCH  16  19
ENDBRANCH  14  16
ENDBRANCH   1  14
BRANCH  11  27
HETATM   27  N8  UNL     1      18.027  23.996 112.572  1.00  0.00    -0.380 N 
ATOM     28  H82 UNL     1      18.668  24.493 113.189  1.00  0.00     0.158 HD
ATOM     29  H81 UNL     1      17.187  23.909 113.145  1.00  0.00     0.158 HD
ENDBRANCH  11  27
TORSDOF 6
ENDMDL
MODEL 4
REMARK VINA RESULT: -7.127115992      2.596      3.559
REMARK  6 active torsions:
REMARK  status: ('A' for Active; 'I' for Inactive)
REMARK    1  A    between atoms: N1_2  and  S1_4 
REMARK    2  A    between atoms: S1_4  and  N2_7 
REMARK    3  A    between atoms: N2_7  and  S2_9 
REMARK    4  A    between atoms: S2_9  and  N3_12 
REMARK    5  A    between atoms: N3_12  and  C2_14 
REMARK    6  A    between atoms: C4_24  and  N8_25 
ROOT
HETATM    1  C2  UNL     1      17.627  23.448 110.735  1.00  0.00     0.153 A 
HETATM    2  N4  UNL     1      17.303  22.886 111.957  1.00  0.00    -0.269 N 
ATOM      3  H4  UNL     1      16.660  22.100 112.043  1.00  0.00     0.190 HD
HETATM    4  N5  UNL     1      17.884  23.436 112.996  1.00  0.00    -0.239 N 
ATOM      5  H5  UNL     1      17.659  23.038 113.908  1.00  0.00     0.208 HD
HETATM    6  N6  UNL     1      18.720  24.442 112.987  1.00  0.00    -0.270 N 
ATOM      7  H6  UNL     1      19.104  24.779 113.870  1.00  0.00     0.190 HD
HETATM    8  C3  UNL     1      19.094  25.056 111.809  1.00  0.00     0.144 A 
HETATM    9  N7  UNL     1      19.914  26.060 111.660  1.00  0.00    -0.321 N 
ATOM     10  H7  UNL     1      20.365  26.487 112.470  1.00  0.00     0.169 HD
HETATM   11  C4  UNL     1      20.150  26.518 110.431  1.00  0.00     0.144 A 
HETATM   12  S3  UNL     1      19.187  25.500 109.460  1.00  0.00    -0.047 SA
HETATM   13  C5  UNL     1      18.512  24.516 110.690  1.00  0.00     0.100 A 
ENDROOT
BRANCH   1  14
HETATM   14  N3  UNL     1      17.135  23.007 109.682  1.00  0.00    -0.250 N 
ATOM     15  H3  UNL     1      16.116  23.009 109.726  1.00  0.00     0.182 HD
BRANCH  14  16
HETATM   16  S2  UNL     1      17.667  22.417 108.221  1.00  0.00     0.334 S 
HETATM   17  O3  UNL     1      17.538  23.509 107.161  1.00  0.00    -0.181 OA
HETATM   18  O4  UNL     1      19.109  21.953 108.229  1.00  0.00    -0.181 OA
BRANCH  16  19
HETATM   19  N2  UNL     1      16.633  21.094 107.742  1.00  0.00    -0.177 N 
ATOM     20  H2  UNL     1      16.987  20.210 107.377  1.00  0.00     0.195 HD
BRANCH  19  21
HETATM   21  S1  UNL     1      14.978  21.428 107.947  1.00  0.00     0.328 S 
HETATM   22  O1  UNL     1      14.147  20.450 107.163  1.00  0.00    -0.182 OA
HETATM   23  O2  UNL     1      14.592  21.238 109.407  1.00  0.00    -0.182 OA
BRANCH  21  24
HETATM   24  N1  UNL     1      14.603  23.019 107.473  1.00  0.00    -0.306 N 
HETATM   25  C1  UNL     1      13.896  23.783 108.458  1.00  0.00     0.161 C 
ATOM     26  H1  UNL     1      14.862  23.399 106.562  1.00  0.00     0.173 HD
ENDBRANCH  21  24
ENDBRANCH  19  21
ENDBRANCH  16  19
ENDBRANCH  14  16
ENDBRANCH   1  14
BRANCH  11  27
HETATM   27  N8  UNL     1      20.938  27.514 110.088  1.00  0.00    -0.380 N 
ATOM     28  H82 UNL     1      21.368  28.237 110.664  1.00  0.00     0.158 HD
ATOM     29  H81 UNL     1      21.271  27.746 109.151  1.00  0.00     0.158 HD
ENDBRANCH  11  27
TORSDOF 6
ENDMDL
MODEL 5
REMARK VINA RESULT: -6.722319577      3.242      6.399
REMARK  6 active torsions:
REMARK  status: ('A' for Active; 'I' for Inactive)
REMARK    1  A    between atoms: N1_2  and  S1_4 
REMARK    2  A    between atoms: S1_4  and  N2_7 
REMARK    3  A    between atoms: N2_7  and  S2_9 
REMARK    4  A    between atoms: S2_9  and  N3_12 
REMARK    5  A    between atoms: N3_12  and  C2_14 
REMARK    6  A    between atoms: C4_24  and  N8_25 
ROOT
HETATM    1  C2  UNL     1      16.570  21.226 107.891  1.00  0.00     0.153 A 
HETATM    2  N4  UNL     1      16.489  20.095 107.099  1.00  0.00    -0.269 N 
ATOM      3  H4  UNL     1      17.306  19.531 106.867  1.00  0.00     0.190 HD
HETATM    4  N5  UNL     1      15.287  19.801 106.668  1.00  0.00    -0.239 N 
ATOM      5  H5  UNL     1      15.203  18.971 106.080  1.00  0.00     0.208 HD
HETATM    6  N6  UNL     1      14.182  20.459 106.910  1.00  0.00    -0.270 N 
ATOM      7  H6  UNL     1      13.305  20.125 106.512  1.00  0.00     0.190 HD
HETATM    8  C3  UNL     1      14.180  21.596 107.692  1.00  0.00     0.144 A 
HETATM    9  N7  UNL     1      13.157  22.341 108.011  1.00  0.00    -0.321 N 
ATOM     10  H7  UNL     1      12.221  22.110 107.675  1.00  0.00     0.169 HD
HETATM   11  C4  UNL     1      13.357  23.409 108.783  1.00  0.00     0.144 A 
HETATM   12  S3  UNL     1      15.037  23.356 109.067  1.00  0.00    -0.047 SA
HETATM   13  C5  UNL     1      15.417  21.947 108.169  1.00  0.00     0.100 A 
ENDROOT
BRANCH   1  14
HETATM   14  N3  UNL     1      17.661  21.600 108.356  1.00  0.00    -0.250 N 
ATOM     15  H3  UNL     1      17.947  21.010 109.137  1.00  0.00     0.182 HD
BRANCH  14  16
HETATM   16  S2  UNL     1      18.787  22.790 108.065  1.00  0.00     0.334 S 
HETATM   17  O3  UNL     1      19.739  22.321 106.967  1.00  0.00    -0.181 OA
HETATM   18  O4  UNL     1      18.191  24.111 107.623  1.00  0.00    -0.181 OA
BRANCH  16  19
HETATM   19  N2  UNL     1      19.730  23.033 109.513  1.00  0.00    -0.177 N 
ATOM     20  H2  UNL     1      20.619  22.565 109.688  1.00  0.00     0.195 HD
BRANCH  19  21
HETATM   21  S1  UNL     1      19.020  24.130 110.601  1.00  0.00     0.328 S 
HETATM   22  O1  UNL     1      17.707  23.594 111.100  1.00  0.00    -0.182 OA
HETATM   23  O2  UNL     1      19.907  24.287 111.827  1.00  0.00    -0.182 OA
BRANCH  21  24
HETATM   24  N1  UNL     1      18.787  25.655 109.881  1.00  0.00    -0.306 N 
HETATM   25  C1  UNL     1      19.864  26.579 110.086  1.00  0.00     0.161 C 
ATOM     26  H1  UNL     1      17.950  25.892 109.348  1.00  0.00     0.173 HD
ENDBRANCH  21  24
ENDBRANCH  19  21
ENDBRANCH  16  19
ENDBRANCH  14  16
ENDBRANCH   1  14
BRANCH  11  27
HETATM   27  N8  UNL     1      12.455  24.269 109.204  1.00  0.00    -0.380 N 
ATOM     28  H82 UNL     1      12.503  24.948 109.964  1.00  0.00     0.158 HD
ATOM     29  H81 UNL     1      11.517  24.415 108.831  1.00  0.00     0.158 HD
ENDBRANCH  11  27
TORSDOF 6
ENDMDL
