MODEL 1
REMARK VINA RESULT: -7.151187713      0.000      0.000
REMARK  7 active torsions:
REMARK  status: ('A' for Active; 'I' for Inactive)
REMARK    1  A    between atoms: N1_1  and  C1_4 
REMARK    2  A    between atoms: C3_8  and  N3_9 
REMARK    3  A    between atoms: C6_12  and  N4_13 
REMARK       I    between atoms: N5_16  and  C9_17 
REMARK    4  A    between atoms: C9_17  and  C10_19 
REMARK    5  A    between atoms: C10_19  and  N6_20 
REMARK    6  A    between atoms: C10_19  and  C11_24 
REMARK    7  A    between atoms: C11_24  and  O2_25 
ROOT
HETATM    1  N3  UNL     1      14.707  20.291 106.548  1.00  0.00    -0.377 N 
HETATM    2  C4  UNL     1      13.558  20.960 107.118  1.00  0.00     0.125 C 
HETATM    3  C5  UNL     1      14.149  22.226 107.690  1.00  0.00     0.046 C 
HETATM    4  C6  UNL     1      15.645  22.123 107.506  1.00  0.00     0.098 C 
HETATM    5  C14 UNL     1      15.816  20.626 107.417  1.00  0.00     0.148 C 
ENDROOT
BRANCH   4   6
HETATM    6  N4  UNL     1      16.434  22.763 108.465  1.00  0.00    -0.403 N 
HETATM    7  C7  UNL     1      17.497  23.580 107.985  1.00  0.00     0.137 C 
HETATM    8  C8  UNL     1      17.712  24.814 108.847  1.00  0.00     0.145 C 
HETATM    9  N5  UNL     1      17.993  24.276 110.203  1.00  0.00    -0.347 N 
HETATM   10  C9  UNL     1      19.150  24.702 110.885  1.00  0.00     0.252 C 
HETATM   11  C12 UNL     1      17.029  23.347 110.706  1.00  0.00     0.145 C 
HETATM   12  O1  UNL     1      19.907  25.551 110.281  1.00  0.00    -0.271 OA
HETATM   13  C13 UNL     1      15.890  23.122 109.710  1.00  0.00     0.137 C 
BRANCH  10  14
HETATM   14  C10 UNL     1      19.621  24.304 112.214  1.00  0.00     0.298 C 
BRANCH  14  15
HETATM   15  N6  UNL     1      20.401  25.340 112.813  1.00  0.00    -0.064 N 
ATOM     16  H63 UNL     1      19.814  26.023 113.292  1.00  0.00     0.275 HD
ATOM     17  H62 UNL     1      20.927  24.997 113.617  1.00  0.00     0.275 HD
ATOM     18  H61 UNL     1      21.010  25.783 112.125  1.00  0.00     0.275 HD
ENDBRANCH  14  15
BRANCH  14  19
HETATM   19  C11 UNL     1      18.414  23.927 113.059  1.00  0.00     0.206 C 
BRANCH  19  20
HETATM   20  O2  UNL     1      18.521  24.648 114.268  1.00  0.00    -0.398 OA
ATOM     21  H2  UNL     1      17.739  25.182 114.340  1.00  0.00     0.209 HD
ENDBRANCH  19  20
ENDBRANCH  14  19
ENDBRANCH  10  14
ENDBRANCH   4   6
BRANCH   1  22
HETATM   22  C3  UNL     1      14.699  19.481 105.380  1.00  0.00     0.062 A 
HETATM   23  C2  UNL     1      15.244  18.215 105.353  1.00  0.00     0.136 A 
HETATM   24  N2  UNL     1      15.208  17.492 104.207  1.00  0.00    -0.200 N 
HETATM   25  C1  UNL     1      14.659  17.948 103.077  1.00  0.00     0.675 A 
ATOM     26  H2  UNL     1      15.618  16.558 104.208  1.00  0.00     0.183 HD
HETATM   27  N7  UNL     1      14.121  19.177 103.079  1.00  0.00    -0.200 N 
HETATM   28  C15 UNL     1      14.135  19.942 104.210  1.00  0.00     0.136 A 
ATOM     29  H7  UNL     1      13.698  19.545 102.227  1.00  0.00     0.183 HD
BRANCH  25  30
HETATM   30  N1  UNL     1      14.629  17.243 101.975  1.00  0.00    -0.234 N 
ATOM     31  H12 UNL     1      15.327  16.512 101.834  1.00  0.00     0.174 HD
ATOM     32  H11 UNL     1      13.932  17.393 101.245  1.00  0.00     0.174 HD
ENDBRANCH  25  30
ENDBRANCH   1  22
TORSDOF 7
ENDMDL
MODEL 2
REMARK VINA RESULT: -6.688242348      1.167      1.910
REMARK  7 active torsions:
REMARK  status: ('A' for Active; 'I' for Inactive)
REMARK    1  A    between atoms: N1_1  and  C1_4 
REMARK    2  A    between atoms: C3_8  and  N3_9 
REMARK    3  A    between atoms: C6_12  and  N4_13 
REMARK       I    between atoms: N5_16  and  C9_17 
REMARK    4  A    between atoms: C9_17  and  C10_19 
REMARK    5  A    between atoms: C10_19  and  N6_20 
REMARK    6  A    between atoms: C10_19  and  C11_24 
REMARK    7  A    between atoms: C11_24  and  O2_25 
ROOT
HETATM    1  N3  UNL     1      14.758  20.437 106.500  1.00  0.00    -0.377 N 
HETATM    2  C4  UNL     1      13.715  21.325 106.966  1.00  0.00     0.125 C 
HETATM    3  C5  UNL     1      14.489  22.460 107.594  1.00  0.00     0.046 C 
HETATM    4  C6  UNL     1      15.946  22.064 107.546  1.00  0.00     0.098 C 
HETATM    5  C14 UNL     1      15.828  20.562 107.468  1.00  0.00     0.148 C 
ENDROOT
BRANCH   4   6
HETATM    6  N4  UNL     1      16.755  22.552 108.576  1.00  0.00    -0.403 N 
HETATM    7  C7  UNL     1      16.116  22.843 109.815  1.00  0.00     0.137 C 
HETATM    8  C8  UNL     1      16.999  22.520 111.010  1.00  0.00     0.145 C 
HETATM    9  N5  UNL     1      18.218  23.343 110.806  1.00  0.00    -0.347 N 
HETATM   10  C9  UNL     1      18.661  24.185 111.846  1.00  0.00     0.252 C 
HETATM   11  C12 UNL     1      18.850  23.200 109.531  1.00  0.00     0.145 C 
HETATM   12  O1  UNL     1      17.971  24.185 112.934  1.00  0.00    -0.271 OA
HETATM   13  C13 UNL     1      18.112  22.192 108.647  1.00  0.00     0.137 C 
BRANCH  10  14
HETATM   14  C10 UNL     1      19.823  25.077 111.862  1.00  0.00     0.298 C 
BRANCH  14  15
HETATM   15  N6  UNL     1      19.651  26.158 110.944  1.00  0.00    -0.064 N 
ATOM     16  H63 UNL     1      20.515  26.368 110.444  1.00  0.00     0.275 HD
ATOM     17  H62 UNL     1      19.074  25.887 110.148  1.00  0.00     0.275 HD
ATOM     18  H61 UNL     1      19.279  26.982 111.416  1.00  0.00     0.275 HD
ENDBRANCH  14  15
BRANCH  14  19
HETATM   19  C11 UNL     1      20.041  25.558 113.288  1.00  0.00     0.206 C 
BRANCH  19  20
HETATM   20  O2  UNL     1      21.263  26.266 113.297  1.00  0.00    -0.398 OA
ATOM     21  H2  UNL     1      21.108  27.076 113.767  1.00  0.00     0.209 HD
ENDBRANCH  19  20
ENDBRANCH  14  19
ENDBRANCH  10  14
ENDBRANCH   4   6
BRANCH   1  22
HETATM   22  C3  UNL     1      14.696  19.627 105.333  1.00  0.00     0.062 A 
HETATM   23  C2  UNL     1      14.150  20.076 104.150  1.00  0.00     0.136 A 
HETATM   24  N2  UNL     1      14.118  19.256 103.072  1.00  0.00    -0.200 N 
HETATM   25  C1  UNL     1      14.599  18.009 103.092  1.00  0.00     0.675 A 
ATOM     26  H2  UNL     1      13.709  19.606 102.205  1.00  0.00     0.183 HD
HETATM   27  N7  UNL     1      15.136  17.551 104.233  1.00  0.00    -0.200 N 
HETATM   28  C15 UNL     1      15.190  18.341 105.345  1.00  0.00     0.136 A 
ATOM     29  H7  UNL     1      15.507  16.601 104.271  1.00  0.00     0.183 HD
BRANCH  25  30
HETATM   30  N1  UNL     1      14.563  17.223 102.046  1.00  0.00    -0.234 N 
ATOM     31  H12 UNL     1      14.060  16.338 102.107  1.00  0.00     0.174 HD
ATOM     32  H11 UNL     1      15.019  17.461 101.165  1.00  0.00     0.174 HD
ENDBRANCH  25  30
ENDBRANCH   1  22
TORSDOF 7
ENDMDL
MODEL 3
REMARK VINA RESULT: -6.469532762      3.454      9.377
REMARK  7 active torsions:
REMARK  status: ('A' for Active; 'I' for Inactive)
REMARK    1  A    between atoms: N1_1  and  C1_4 
REMARK    2  A    between atoms: C3_8  and  N3_9 
REMARK    3  A    between atoms: C6_12  and  N4_13 
REMARK       I    between atoms: N5_16  and  C9_17 
REMARK    4  A    between atoms: C9_17  and  C10_19 
REMARK    5  A    between atoms: C10_19  and  N6_20 
REMARK    6  A    between atoms: C10_19  and  C11_24 
REMARK    7  A    between atoms: C11_24  and  O2_25 
ROOT
HETATM    1  N3  UNL     1      18.774  23.478 110.367  1.00  0.00    -0.377 N 
HETATM    2  C4  UNL     1      19.710  23.599 109.271  1.00  0.00     0.125 C 
HETATM    3  C5  UNL     1      18.831  23.447 108.052  1.00  0.00     0.046 C 
HETATM    4  C6  UNL     1      17.447  23.122 108.560  1.00  0.00     0.098 C 
HETATM    5  C14 UNL     1      17.771  22.536 109.912  1.00  0.00     0.148 C 
ENDROOT
BRANCH   4   6
HETATM    6  N4  UNL     1      16.655  22.321 107.732  1.00  0.00    -0.403 N 
HETATM    7  C7  UNL     1      17.012  20.946 107.632  1.00  0.00     0.137 C 
HETATM    8  C8  UNL     1      15.797  20.040 107.511  1.00  0.00     0.145 C 
HETATM    9  N5  UNL     1      15.093  20.522 106.295  1.00  0.00    -0.347 N 
HETATM   10  C9  UNL     1      14.759  19.600 105.283  1.00  0.00     0.252 C 
HETATM   11  C12 UNL     1      14.808  21.924 106.265  1.00  0.00     0.145 C 
HETATM   12  O1  UNL     1      15.089  18.370 105.480  1.00  0.00    -0.271 OA
HETATM   13  C13 UNL     1      15.297  22.625 107.534  1.00  0.00     0.137 C 
BRANCH  10  14
HETATM   14  C10 UNL     1      14.076  19.852 104.012  1.00  0.00     0.298 C 
BRANCH  14  15
HETATM   15  N6  UNL     1      14.649  20.972 103.336  1.00  0.00    -0.064 N 
ATOM     16  H63 UNL     1      15.464  20.703 102.785  1.00  0.00     0.275 HD
ATOM     17  H62 UNL     1      14.051  21.299 102.577  1.00  0.00     0.275 HD
ATOM     18  H61 UNL     1      14.868  21.722 103.992  1.00  0.00     0.275 HD
ENDBRANCH  14  15
BRANCH  14  19
HETATM   19  C11 UNL     1      14.131  18.582 103.176  1.00  0.00     0.206 C 
BRANCH  19  20
HETATM   20  O2  UNL     1      14.197  18.987 101.825  1.00  0.00    -0.398 OA
ATOM     21  H2  UNL     1      14.746  19.761 101.797  1.00  0.00     0.209 HD
ENDBRANCH  19  20
ENDBRANCH  14  19
ENDBRANCH  10  14
ENDBRANCH   4   6
BRANCH   1  22
HETATM   22  C3  UNL     1      18.863  24.159 111.612  1.00  0.00     0.062 A 
HETATM   23  C2  UNL     1      19.786  25.155 111.846  1.00  0.00     0.136 A 
HETATM   24  N2  UNL     1      19.824  25.765 113.055  1.00  0.00    -0.200 N 
HETATM   25  C1  UNL     1      18.996  25.449 114.056  1.00  0.00     0.675 A 
ATOM     26  H2  UNL     1      20.515  26.500 113.208  1.00  0.00     0.183 HD
HETATM   27  N7  UNL     1      18.089  24.482 113.851  1.00  0.00    -0.200 N 
HETATM   28  C15 UNL     1      18.014  23.839 112.649  1.00  0.00     0.136 A 
ATOM     29  H7  UNL     1      17.448  24.223 114.601  1.00  0.00     0.183 HD
BRANCH  25  30
HETATM   30  N1  UNL     1      19.040  26.043 115.221  1.00  0.00    -0.234 N 
ATOM     31  H12 UNL     1      18.332  26.741 115.448  1.00  0.00     0.174 HD
ATOM     32  H11 UNL     1      19.757  25.835 115.917  1.00  0.00     0.174 HD
ENDBRANCH  25  30
ENDBRANCH   1  22
TORSDOF 7
ENDMDL
MODEL 4
REMARK VINA RESULT: -6.458964385      0.973      2.177
REMARK  7 active torsions:
REMARK  status: ('A' for Active; 'I' for Inactive)
REMARK    1  A    between atoms: N1_1  and  C1_4 
REMARK    2  A    between atoms: C3_8  and  N3_9 
REMARK    3  A    between atoms: C6_12  and  N4_13 
REMARK       I    between atoms: N5_16  and  C9_17 
REMARK    4  A    between atoms: C9_17  and  C10_19 
REMARK    5  A    between atoms: C10_19  and  N6_20 
REMARK    6  A    between atoms: C10_19  and  C11_24 
REMARK    7  A    between atoms: C11_24  and  O2_25 
ROOT
HETATM    1  N3  UNL     1      14.915  20.673 106.798  1.00  0.00    -0.377 N 
HETATM    2  C4  UNL     1      13.827  21.348 107.473  1.00  0.00     0.125 C 
HETATM    3  C5  UNL     1      14.486  22.592 108.022  1.00  0.00     0.046 C 
HETATM    4  C6  UNL     1      15.959  22.468 107.715  1.00  0.00     0.098 C 
HETATM    5  C14 UNL     1      16.096  20.971 107.582  1.00  0.00     0.148 C 
ENDROOT
BRANCH   4   6
HETATM    6  N4  UNL     1      16.834  23.074 108.621  1.00  0.00    -0.403 N 
HETATM    7  C7  UNL     1      16.574  22.866 110.005  1.00  0.00     0.137 C 
HETATM    8  C8  UNL     1      17.852  22.751 110.822  1.00  0.00     0.145 C 
HETATM    9  N5  UNL     1      18.568  24.029 110.576  1.00  0.00    -0.347 N 
HETATM   10  C9  UNL     1      19.001  24.797 111.676  1.00  0.00     0.252 C 
HETATM   11  C12 UNL     1      18.758  24.371 109.201  1.00  0.00     0.145 C 
HETATM   12  O1  UNL     1      18.748  24.332 112.850  1.00  0.00    -0.271 OA
HETATM   13  C13 UNL     1      18.175  23.306 108.270  1.00  0.00     0.137 C 
BRANCH  10  14
HETATM   14  C10 UNL     1      19.713  26.076 111.667  1.00  0.00     0.298 C 
BRANCH  14  15
HETATM   15  N6  UNL     1      20.854  26.033 112.526  1.00  0.00    -0.064 N 
ATOM     16  H63 UNL     1      21.020  26.933 112.977  1.00  0.00     0.275 HD
ATOM     17  H62 UNL     1      20.677  25.473 113.360  1.00  0.00     0.275 HD
ATOM     18  H61 UNL     1      21.679  25.707 112.022  1.00  0.00     0.275 HD
ENDBRANCH  14  15
BRANCH  14  19
HETATM   19  C11 UNL     1      20.083  26.411 110.230  1.00  0.00     0.206 C 
BRANCH  19  20
HETATM   20  O2  UNL     1      21.226  27.239 110.286  1.00  0.00    -0.398 OA
ATOM     21  H2  UNL     1      21.795  26.878 110.955  1.00  0.00     0.209 HD
ENDBRANCH  19  20
ENDBRANCH  14  19
ENDBRANCH  10  14
ENDBRANCH   4   6
BRANCH   1  22
HETATM   22  C3  UNL     1      14.798  19.889 105.618  1.00  0.00     0.062 A 
HETATM   23  C2  UNL     1      14.263  20.387 104.450  1.00  0.00     0.136 A 
HETATM   24  N2  UNL     1      14.176  19.589 103.358  1.00  0.00    -0.200 N 
HETATM   25  C1  UNL     1      14.590  18.319 103.350  1.00  0.00     0.675 A 
ATOM     26  H2  UNL     1      13.776  19.977 102.502  1.00  0.00     0.183 HD
HETATM   27  N7  UNL     1      15.115  17.813 104.477  1.00  0.00    -0.200 N 
HETATM   28  C15 UNL     1      15.223  18.578 105.601  1.00  0.00     0.136 A 
ATOM     29  H7  UNL     1      15.436  16.844 104.493  1.00  0.00     0.183 HD
BRANCH  25  30
HETATM   30  N1  UNL     1      14.502  17.555 102.291  1.00  0.00    -0.234 N 
ATOM     31  H12 UNL     1      14.628  16.548 102.393  1.00  0.00     0.174 HD
ATOM     32  H11 UNL     1      14.309  17.927 101.360  1.00  0.00     0.174 HD
ENDBRANCH  25  30
ENDBRANCH   1  22
TORSDOF 7
ENDMDL
MODEL 5
REMARK VINA RESULT: -6.439141156      0.386      1.022
REMARK  7 active torsions:
REMARK  status: ('A' for Active; 'I' for Inactive)
REMARK    1  A    between atoms: N1_1  and  C1_4 
REMARK    2  A    between atoms: C3_8  and  N3_9 
REMARK    3  A    between atoms: C6_12  and  N4_13 
REMARK       I    between atoms: N5_16  and  C9_17 
REMARK    4  A    between atoms: C9_17  and  C10_19 
REMARK    5  A    between atoms: C10_19  and  N6_20 
REMARK    6  A    between atoms: C10_19  and  C11_24 
REMARK    7  A    between atoms: C11_24  and  O2_25 
ROOT
HETATM    1  N3  UNL     1      14.657  20.472 106.579  1.00  0.00    -0.377 N 
HETATM    2  C4  UNL     1      13.508  21.027 107.262  1.00  0.00     0.125 C 
HETATM    3  C5  UNL     1      14.056  22.293 107.876  1.00  0.00     0.046 C 
HETATM    4  C6  UNL     1      15.538  22.302 107.591  1.00  0.00     0.098 C 
HETATM    5  C14 UNL     1      15.798  20.829 107.397  1.00  0.00     0.148 C 
ENDROOT
BRANCH   4   6
HETATM    6  N4  UNL     1      16.348  22.936 108.538  1.00  0.00    -0.403 N 
HETATM    7  C7  UNL     1      17.420  23.730 108.042  1.00  0.00     0.137 C 
HETATM    8  C8  UNL     1      17.666  24.967 108.892  1.00  0.00     0.145 C 
HETATM    9  N5  UNL     1      17.950  24.434 110.250  1.00  0.00    -0.347 N 
HETATM   10  C9  UNL     1      19.121  24.845 110.917  1.00  0.00     0.252 C 
HETATM   11  C12 UNL     1      16.975  23.526 110.769  1.00  0.00     0.145 C 
HETATM   12  O1  UNL     1      19.887  25.676 110.299  1.00  0.00    -0.271 OA
HETATM   13  C13 UNL     1      15.823  23.314 109.786  1.00  0.00     0.137 C 
BRANCH  10  14
HETATM   14  C10 UNL     1      19.598  24.448 112.244  1.00  0.00     0.298 C 
BRANCH  14  15
HETATM   15  N6  UNL     1      20.751  25.202 112.621  1.00  0.00    -0.064 N 
ATOM     16  H63 UNL     1      21.531  24.594 112.874  1.00  0.00     0.275 HD
ATOM     17  H62 UNL     1      21.174  25.669 111.819  1.00  0.00     0.275 HD
ATOM     18  H61 UNL     1      20.530  25.861 113.367  1.00  0.00     0.275 HD
ENDBRANCH  14  15
BRANCH  14  19
HETATM   19  C11 UNL     1      18.454  24.608 113.234  1.00  0.00     0.206 C 
BRANCH  19  20
HETATM   20  O2  UNL     1      18.340  23.383 113.927  1.00  0.00    -0.398 OA
ATOM     21  H2  UNL     1      18.639  22.704 113.334  1.00  0.00     0.209 HD
ENDBRANCH  19  20
ENDBRANCH  14  19
ENDBRANCH  10  14
ENDBRANCH   4   6
BRANCH   1  22
HETATM   22  C3  UNL     1      14.622  19.735 105.364  1.00  0.00     0.062 A 
HETATM   23  C2  UNL     1      14.173  20.280 104.180  1.00  0.00     0.136 A 
HETATM   24  N2  UNL     1      14.162  19.525 103.055  1.00  0.00    -0.200 N 
HETATM   25  C1  UNL     1      14.571  18.254 103.028  1.00  0.00     0.675 A 
ATOM     26  H2  UNL     1      13.825  19.948 102.189  1.00  0.00     0.183 HD
HETATM   27  N7  UNL     1      15.011  17.701 104.168  1.00  0.00    -0.200 N 
HETATM   28  C15 UNL     1      15.042  18.423 105.326  1.00  0.00     0.136 A 
ATOM     29  H7  UNL     1      15.327  16.731 104.170  1.00  0.00     0.183 HD
BRANCH  25  30
HETATM   30  N1  UNL     1      14.555  17.532 101.936  1.00  0.00    -0.234 N 
ATOM     31  H12 UNL     1      14.015  17.857 101.134  1.00  0.00     0.174 HD
ATOM     32  H11 UNL     1      15.064  16.652 101.852  1.00  0.00     0.174 HD
ENDBRANCH  25  30
ENDBRANCH   1  22
TORSDOF 7
ENDMDL
