MODEL 1
REMARK VINA RESULT: -7.470825648      0.000      0.000
REMARK  8 active torsions:
REMARK  status: ('A' for Active; 'I' for Inactive)
REMARK    1  A    between atoms: C3_3  and  C4_4 
REMARK    2  A    between atoms: C4_4  and  C5_5 
REMARK    3  A    between atoms: C8_8  and  C9_9 
REMARK    4  A    between atoms: C9_9  and  C10_10 
REMARK    5  A    between atoms: C10_10  and  C11_11 
REMARK    6  A    between atoms: C14_16  and  C15_17 
REMARK    7  A    between atoms: C15_17  and  C16_18 
REMARK    8  A    between atoms: C16_18  and  O1_19 
ROOT
HETATM    1  C1  UNL     1      33.042  11.719  31.535  1.00  0.00     0.012 C 
HETATM    2  C2  UNL     1      32.078  11.007  31.363  1.00  0.00    -0.117 C 
HETATM    3  C3  UNL     1      30.897  10.167  31.145  1.00  0.00     0.097 C 
ENDROOT
BRANCH   3   4
HETATM    4  C4  UNL     1      30.795   9.834  29.660  1.00  0.00     0.040 C 
BRANCH   4   5
HETATM    5  C5  UNL     1      30.354   8.443  29.451  1.00  0.00    -0.012 C 
HETATM    6  C6  UNL     1      29.114   8.095  29.152  1.00  0.00    -0.011 A 
HETATM    7  C7  UNL     1      28.076   8.987  28.999  1.00  0.00     0.052 A 
HETATM    8  C20 UNL     1      28.609   6.833  28.939  1.00  0.00     0.033 A 
HETATM    9  C8  UNL     1      26.939   8.271  28.692  1.00  0.00     0.088 A 
HETATM   10  N3  UNL     1      27.300   6.979  28.665  1.00  0.00    -0.349 N 
ATOM     11  H3  UNL     1      26.664   6.208  28.463  1.00  0.00     0.166 HD
HETATM   12  C21 UNL     1      29.281   5.710  28.995  1.00  0.00     0.044 C 
BRANCH   9  13
HETATM   13  C9  UNL     1      25.619   8.814  28.448  1.00  0.00    -0.043 C 
BRANCH  13  14
HETATM   14  C10 UNL     1      24.517   9.287  28.232  1.00  0.00    -0.058 C 
BRANCH  14  15
HETATM   15  C11 UNL     1      23.233   9.856  27.958  1.00  0.00     0.051 A 
HETATM   16  C12 UNL     1      22.545   9.807  26.766  1.00  0.00     0.110 A 
HETATM   17  N1  UNL     1      21.374  10.462  26.917  1.00  0.00    -0.363 N 
HETATM   18  C13 UNL     1      21.279  10.929  28.154  1.00  0.00     0.057 A 
ATOM     19  H1  UNL     1      20.669  10.579  26.190  1.00  0.00     0.165 HD
HETATM   20  C14 UNL     1      20.305  11.658  28.822  1.00  0.00    -0.013 A 
HETATM   21  C19 UNL     1      22.423  10.563  28.815  1.00  0.00     0.079 A 
HETATM   22  C17 UNL     1      20.555  11.973  30.133  1.00  0.00     0.101 A 
HETATM   23  N2  UNL     1      21.673  11.618  30.785  1.00  0.00    -0.332 N 
HETATM   24  C18 UNL     1      22.605  10.915  30.130  1.00  0.00     0.259 A 
ATOM     25  H2  UNL     1      21.810  11.879  31.762  1.00  0.00     0.168 HD
HETATM   26  O2  UNL     1      23.666  10.572  30.732  1.00  0.00    -0.267 OA
BRANCH  20  27
HETATM   27  C15 UNL     1      19.070  12.042  28.094  1.00  0.00     0.068 C 
BRANCH  27  28
HETATM   28  C16 UNL     1      18.351  13.088  28.884  1.00  0.00     0.168 C 
BRANCH  28  29
HETATM   29  O1  UNL     1      17.009  12.793  29.085  1.00  0.00    -0.401 OA
ATOM     30  H1  UNL     1      16.576  12.475  28.302  1.00  0.00     0.209 HD
ENDBRANCH  28  29
ENDBRANCH  27  28
ENDBRANCH  20  27
ENDBRANCH  14  15
ENDBRANCH  13  14
ENDBRANCH   9  13
ENDBRANCH   4   5
ENDBRANCH   3   4
TORSDOF 8
ENDMDL
MODEL 2
REMARK VINA RESULT: -7.454661901      1.454      2.803
REMARK  8 active torsions:
REMARK  status: ('A' for Active; 'I' for Inactive)
REMARK    1  A    between atoms: C3_3  and  C4_4 
REMARK    2  A    between atoms: C4_4  and  C5_5 
REMARK    3  A    between atoms: C8_8  and  C9_9 
REMARK    4  A    between atoms: C9_9  and  C10_10 
REMARK    5  A    between atoms: C10_10  and  C11_11 
REMARK    6  A    between atoms: C14_16  and  C15_17 
REMARK    7  A    between atoms: C15_17  and  C16_18 
REMARK    8  A    between atoms: C16_18  and  O1_19 
ROOT
HETATM    1  C1  UNL     1      33.419   4.914  27.794  1.00  0.00     0.012 C 
HETATM    2  C2  UNL     1      32.286   4.901  28.221  1.00  0.00    -0.117 C 
HETATM    3  C3  UNL     1      30.922   4.907  28.757  1.00  0.00     0.097 C 
ENDROOT
BRANCH   3   4
HETATM    4  C4  UNL     1      30.157   6.076  28.147  1.00  0.00     0.040 C 
BRANCH   4   5
HETATM    5  C5  UNL     1      30.293   7.293  28.967  1.00  0.00    -0.012 C 
HETATM    6  C6  UNL     1      29.339   8.195  29.121  1.00  0.00    -0.011 A 
HETATM    7  C7  UNL     1      28.096   8.113  28.534  1.00  0.00     0.052 A 
HETATM    8  C20 UNL     1      29.370   9.355  29.862  1.00  0.00     0.033 A 
HETATM    9  C8  UNL     1      27.369   9.220  28.915  1.00  0.00     0.088 A 
HETATM   10  N3  UNL     1      28.170   9.943  29.713  1.00  0.00    -0.349 N 
ATOM     11  H3  UNL     1      27.902  10.824  30.151  1.00  0.00     0.166 HD
HETATM   12  C21 UNL     1      30.381   9.793  30.570  1.00  0.00     0.044 C 
BRANCH   9  13
HETATM   13  C9  UNL     1      26.010   9.534  28.527  1.00  0.00    -0.043 C 
BRANCH  13  14
HETATM   14  C10 UNL     1      24.867   9.816  28.213  1.00  0.00    -0.058 C 
BRANCH  14  15
HETATM   15  C11 UNL     1      23.532  10.171  27.838  1.00  0.00     0.051 A 
HETATM   16  C12 UNL     1      22.964  10.048  26.590  1.00  0.00     0.110 A 
HETATM   17  N1  UNL     1      21.690  10.493  26.651  1.00  0.00    -0.363 N 
HETATM   18  C13 UNL     1      21.415  10.897  27.884  1.00  0.00     0.057 A 
ATOM     19  H1  UNL     1      21.038  10.516  25.867  1.00  0.00     0.165 HD
HETATM   20  C14 UNL     1      20.281  11.430  28.477  1.00  0.00    -0.013 A 
HETATM   21  C19 UNL     1      22.546  10.705  28.635  1.00  0.00     0.079 A 
HETATM   22  C17 UNL     1      20.364  11.739  29.811  1.00  0.00     0.101 A 
HETATM   23  N2  UNL     1      21.468  11.554  30.552  1.00  0.00    -0.332 N 
HETATM   24  C18 UNL     1      22.556  11.038  29.967  1.00  0.00     0.259 A 
ATOM     25  H2  UNL     1      21.477  11.801  31.542  1.00  0.00     0.168 HD
HETATM   26  O2  UNL     1      23.607  10.856  30.653  1.00  0.00    -0.267 OA
BRANCH  20  27
HETATM   27  C15 UNL     1      19.063  11.627  27.652  1.00  0.00     0.068 C 
BRANCH  27  28
HETATM   28  C16 UNL     1      18.442  12.938  28.014  1.00  0.00     0.168 C 
BRANCH  28  29
HETATM   29  O1  UNL     1      17.151  12.811  28.509  1.00  0.00    -0.401 OA
ATOM     30  H1  UNL     1      16.505  12.656  27.829  1.00  0.00     0.209 HD
ENDBRANCH  28  29
ENDBRANCH  27  28
ENDBRANCH  20  27
ENDBRANCH  14  15
ENDBRANCH  13  14
ENDBRANCH   9  13
ENDBRANCH   4   5
ENDBRANCH   3   4
TORSDOF 8
ENDMDL
MODEL 3
REMARK VINA RESULT: -7.411294952      1.950      3.526
REMARK  8 active torsions:
REMARK  status: ('A' for Active; 'I' for Inactive)
REMARK    1  A    between atoms: C3_3  and  C4_4 
REMARK    2  A    between atoms: C4_4  and  C5_5 
REMARK    3  A    between atoms: C8_8  and  C9_9 
REMARK    4  A    between atoms: C9_9  and  C10_10 
REMARK    5  A    between atoms: C10_10  and  C11_11 
REMARK    6  A    between atoms: C14_16  and  C15_17 
REMARK    7  A    between atoms: C15_17  and  C16_18 
REMARK    8  A    between atoms: C16_18  and  O1_19 
ROOT
HETATM    1  C1  UNL     1      33.505   4.719  27.791  1.00  0.00     0.012 C 
HETATM    2  C2  UNL     1      32.373   4.769  28.219  1.00  0.00    -0.117 C 
HETATM    3  C3  UNL     1      31.012   4.849  28.754  1.00  0.00     0.097 C 
ENDROOT
BRANCH   3   4
HETATM    4  C4  UNL     1      30.313   6.060  28.147  1.00  0.00     0.040 C 
BRANCH   4   5
HETATM    5  C5  UNL     1      30.646   7.295  28.879  1.00  0.00    -0.012 C 
HETATM    6  C6  UNL     1      29.763   8.220  29.216  1.00  0.00    -0.011 A 
HETATM    7  C7  UNL     1      28.419   8.146  28.926  1.00  0.00     0.052 A 
HETATM    8  C20 UNL     1      29.976   9.398  29.895  1.00  0.00     0.033 A 
HETATM    9  C8  UNL     1      27.811   9.277  29.428  1.00  0.00     0.088 A 
HETATM   10  N3  UNL     1      28.780  10.005  30.003  1.00  0.00    -0.349 N 
ATOM     11  H3  UNL     1      28.630  10.902  30.463  1.00  0.00     0.166 HD
HETATM   12  C21 UNL     1      31.125   9.835  30.345  1.00  0.00     0.044 C 
BRANCH   9  13
HETATM   13  C9  UNL     1      26.403   9.607  29.346  1.00  0.00    -0.043 C 
BRANCH  13  14
HETATM   14  C10 UNL     1      25.217   9.881  29.299  1.00  0.00    -0.058 C 
BRANCH  14  15
HETATM   15  C11 UNL     1      23.825  10.212  29.266  1.00  0.00     0.051 A 
HETATM   16  C12 UNL     1      22.966  10.274  30.341  1.00  0.00     0.110 A 
HETATM   17  N1  UNL     1      21.740  10.620  29.892  1.00  0.00    -0.363 N 
HETATM   18  C13 UNL     1      21.774  10.784  28.577  1.00  0.00     0.057 A 
ATOM     19  H1  UNL     1      20.913  10.738  30.476  1.00  0.00     0.165 HD
HETATM   20  C14 UNL     1      20.814  11.131  27.638  1.00  0.00    -0.013 A 
HETATM   21  C19 UNL     1      23.060  10.535  28.170  1.00  0.00     0.079 A 
HETATM   22  C17 UNL     1      21.221  11.205  26.330  1.00  0.00     0.101 A 
HETATM   23  N2  UNL     1      22.478  10.962  25.926  1.00  0.00    -0.332 N 
HETATM   24  C18 UNL     1      23.396  10.628  26.842  1.00  0.00     0.259 A 
ATOM     25  H2  UNL     1      22.730  11.031  24.940  1.00  0.00     0.168 HD
HETATM   26  O2  UNL     1      24.588  10.397  26.477  1.00  0.00    -0.267 OA
BRANCH  20  27
HETATM   27  C15 UNL     1      19.428  11.401  28.094  1.00  0.00     0.068 C 
BRANCH  27  28
HETATM   28  C16 UNL     1      19.403  12.714  28.808  1.00  0.00     0.168 C 
BRANCH  28  29
HETATM   29  O1  UNL     1      19.236  12.583  30.181  1.00  0.00    -0.401 OA
ATOM     30  H1  UNL     1      18.378  12.861  30.480  1.00  0.00     0.209 HD
ENDBRANCH  28  29
ENDBRANCH  27  28
ENDBRANCH  20  27
ENDBRANCH  14  15
ENDBRANCH  13  14
ENDBRANCH   9  13
ENDBRANCH   4   5
ENDBRANCH   3   4
TORSDOF 8
ENDMDL
MODEL 4
REMARK VINA RESULT: -7.399950196      1.335      2.091
REMARK  8 active torsions:
REMARK  status: ('A' for Active; 'I' for Inactive)
REMARK    1  A    between atoms: C3_3  and  C4_4 
REMARK    2  A    between atoms: C4_4  and  C5_5 
REMARK    3  A    between atoms: C8_8  and  C9_9 
REMARK    4  A    between atoms: C9_9  and  C10_10 
REMARK    5  A    between atoms: C10_10  and  C11_11 
REMARK    6  A    between atoms: C14_16  and  C15_17 
REMARK    7  A    between atoms: C15_17  and  C16_18 
REMARK    8  A    between atoms: C16_18  and  O1_19 
ROOT
HETATM    1  C1  UNL     1      32.680  13.005  31.874  1.00  0.00     0.012 C 
HETATM    2  C2  UNL     1      32.271  11.881  31.688  1.00  0.00    -0.117 C 
HETATM    3  C3  UNL     1      31.751  10.529  31.466  1.00  0.00     0.097 C 
ENDROOT
BRANCH   3   4
HETATM    4  C4  UNL     1      31.206  10.437  30.045  1.00  0.00     0.040 C 
BRANCH   4   5
HETATM    5  C5  UNL     1      30.814   9.056  29.709  1.00  0.00    -0.012 C 
HETATM    6  C6  UNL     1      29.565   8.662  29.527  1.00  0.00    -0.011 A 
HETATM    7  C7  UNL     1      28.471   9.492  29.628  1.00  0.00     0.052 A 
HETATM    8  C20 UNL     1      29.103   7.405  29.212  1.00  0.00     0.033 A 
HETATM    9  C8  UNL     1      27.342   8.743  29.375  1.00  0.00     0.088 A 
HETATM   10  N3  UNL     1      27.763   7.493  29.129  1.00  0.00    -0.349 N 
ATOM     11  H3  UNL     1      27.147   6.712  28.908  1.00  0.00     0.166 HD
HETATM   12  C21 UNL     1      29.835   6.334  29.031  1.00  0.00     0.044 C 
BRANCH   9  13
HETATM   13  C9  UNL     1      25.974   9.219  29.376  1.00  0.00    -0.043 C 
BRANCH  13  14
HETATM   14  C10 UNL     1      24.829   9.633  29.393  1.00  0.00    -0.058 C 
BRANCH  14  15
HETATM   15  C11 UNL     1      23.492  10.143  29.417  1.00  0.00     0.051 A 
HETATM   16  C12 UNL     1      22.728  10.407  30.533  1.00  0.00     0.110 A 
HETATM   17  N1  UNL     1      21.527  10.875  30.131  1.00  0.00    -0.363 N 
HETATM   18  C13 UNL     1      21.485  10.923  28.807  1.00  0.00     0.057 A 
ATOM     19  H1  UNL     1      20.767  11.150  30.752  1.00  0.00     0.165 HD
HETATM   20  C14 UNL     1      20.510  11.316  27.901  1.00  0.00    -0.013 A 
HETATM   21  C19 UNL     1      22.695  10.473  28.346  1.00  0.00     0.079 A 
HETATM   22  C17 UNL     1      20.826  11.226  26.570  1.00  0.00     0.101 A 
HETATM   23  N2  UNL     1      22.009  10.786  26.112  1.00  0.00    -0.332 N 
HETATM   24  C18 UNL     1      22.941  10.410  26.996  1.00  0.00     0.259 A 
ATOM     25  H2  UNL     1      22.194  10.738  25.110  1.00  0.00     0.168 HD
HETATM   26  O2  UNL     1      24.064   9.992  26.580  1.00  0.00    -0.267 OA
BRANCH  20  27
HETATM   27  C15 UNL     1      19.207  11.805  28.415  1.00  0.00     0.068 C 
BRANCH  27  28
HETATM   28  C16 UNL     1      19.421  13.115  29.104  1.00  0.00     0.168 C 
BRANCH  28  29
HETATM   29  O1  UNL     1      19.258  13.039  30.481  1.00  0.00    -0.401 OA
ATOM     30  H1  UNL     1      18.602  13.641  30.813  1.00  0.00     0.209 HD
ENDBRANCH  28  29
ENDBRANCH  27  28
ENDBRANCH  20  27
ENDBRANCH  14  15
ENDBRANCH  13  14
ENDBRANCH   9  13
ENDBRANCH   4   5
ENDBRANCH   3   4
TORSDOF 8
ENDMDL
MODEL 5
REMARK VINA RESULT: -7.284366395      2.656      4.068
REMARK  8 active torsions:
REMARK  status: ('A' for Active; 'I' for Inactive)
REMARK    1  A    between atoms: C3_3  and  C4_4 
REMARK    2  A    between atoms: C4_4  and  C5_5 
REMARK    3  A    between atoms: C8_8  and  C9_9 
REMARK    4  A    between atoms: C9_9  and  C10_10 
REMARK    5  A    between atoms: C10_10  and  C11_11 
REMARK    6  A    between atoms: C14_16  and  C15_17 
REMARK    7  A    between atoms: C15_17  and  C16_18 
REMARK    8  A    between atoms: C16_18  and  O1_19 
ROOT
HETATM    1  C1  UNL     1      30.078   5.439  28.208  1.00  0.00     0.012 C 
HETATM    2  C2  UNL     1      29.029   5.806  28.688  1.00  0.00    -0.117 C 
HETATM    3  C3  UNL     1      27.771   6.273  29.276  1.00  0.00     0.097 C 
ENDROOT
BRANCH   3   4
HETATM    4  C4  UNL     1      27.087   7.218  28.294  1.00  0.00     0.040 C 
BRANCH   4   5
HETATM    5  C5  UNL     1      27.408   8.626  28.591  1.00  0.00    -0.012 C 
HETATM    6  C6  UNL     1      26.537   9.619  28.511  1.00  0.00    -0.011 A 
HETATM    7  C7  UNL     1      25.222   9.463  28.137  1.00  0.00     0.052 A 
HETATM    8  C20 UNL     1      26.740  10.955  28.767  1.00  0.00     0.033 A 
HETATM    9  C8  UNL     1      24.620  10.703  28.166  1.00  0.00     0.088 A 
HETATM   10  N3  UNL     1      25.566  11.574  28.550  1.00  0.00    -0.349 N 
ATOM     11  H3  UNL     1      25.414  12.576  28.662  1.00  0.00     0.166 HD
HETATM   12  C21 UNL     1      27.864  11.509  29.148  1.00  0.00     0.044 C 
BRANCH   9  13
HETATM   13  C9  UNL     1      23.239  10.999  27.845  1.00  0.00    -0.043 C 
BRANCH  13  14
HETATM   14  C10 UNL     1      22.085  11.260  27.558  1.00  0.00    -0.058 C 
BRANCH  14  15
HETATM   15  C11 UNL     1      20.720  11.553  27.241  1.00  0.00     0.051 A 
HETATM   16  C12 UNL     1      20.077  11.305  26.049  1.00  0.00     0.110 A 
HETATM   17  N1  UNL     1      18.799  11.728  26.153  1.00  0.00    -0.363 N 
HETATM   18  C13 UNL     1      18.592  12.237  27.359  1.00  0.00     0.057 A 
ATOM     19  H1  UNL     1      18.098  11.666  25.415  1.00  0.00     0.165 HD
HETATM   20  C14 UNL     1      17.485  12.800  27.976  1.00  0.00    -0.013 A 
HETATM   21  C19 UNL     1      19.773  12.137  28.050  1.00  0.00     0.079 A 
HETATM   22  C17 UNL     1      17.644  13.231  29.268  1.00  0.00     0.101 A 
HETATM   23  N2  UNL     1      18.797  13.137  29.948  1.00  0.00    -0.332 N 
HETATM   24  C18 UNL     1      19.859  12.591  29.342  1.00  0.00     0.259 A 
ATOM     25  H2  UNL     1      18.863  13.474  30.909  1.00  0.00     0.168 HD
HETATM   26  O2  UNL     1      20.956  12.494  29.972  1.00  0.00    -0.267 OA
BRANCH  20  27
HETATM   27  C15 UNL     1      16.212  12.897  27.217  1.00  0.00     0.068 C 
BRANCH  27  28
HETATM   28  C16 UNL     1      16.227  14.156  26.411  1.00  0.00     0.168 C 
BRANCH  28  29
HETATM   29  O1  UNL     1      15.463  15.171  26.972  1.00  0.00    -0.401 OA
ATOM     30  H1  UNL     1      15.981  15.919  27.247  1.00  0.00     0.209 HD
ENDBRANCH  28  29
ENDBRANCH  27  28
ENDBRANCH  20  27
ENDBRANCH  14  15
ENDBRANCH  13  14
ENDBRANCH   9  13
ENDBRANCH   4   5
ENDBRANCH   3   4
TORSDOF 8
ENDMDL
