MODEL 1
REMARK VINA RESULT: -8.203903197      0.000      0.000
REMARK  4 active torsions:
REMARK  status: ('A' for Active; 'I' for Inactive)
REMARK    1  A    between atoms: C5_9  and  C6_10 
REMARK    2  A    between atoms: C6_10  and  N3_11 
REMARK    3  A    between atoms: N3_11  and  S1_13 
REMARK    4  A    between atoms: S1_13  and  C7_16 
ROOT
HETATM    1  N3  UNL     1      26.111   9.595  28.755  1.00  0.00    -0.290 N 
ATOM      2  H3  UNL     1      26.556  10.488  28.540  1.00  0.00     0.178 HD
ENDROOT
BRANCH   1   3
HETATM    3  C6  UNL     1      26.786   8.704  29.620  1.00  0.00     0.111 C 
BRANCH   3   4
HETATM    4  C5  UNL     1      27.697   7.873  29.171  1.00  0.00    -0.017 A 
HETATM    5  C4  UNL     1      27.506   6.513  28.981  1.00  0.00     0.044 A 
HETATM    6  C3  UNL     1      28.673   5.940  28.496  1.00  0.00     0.061 A 
HETATM    7  N2  UNL     1      29.353   4.861  28.076  1.00  0.00    -0.299 N 
HETATM    8  C15 UNL     1      29.606   7.056  28.401  1.00  0.00     0.020 A 
HETATM    9  N1  UNL     1      30.584   5.211  27.743  1.00  0.00    -0.300 N 
ATOM     10  H2  UNL     1      28.976   3.915  28.022  1.00  0.00     0.187 HD
HETATM   11  C2  UNL     1      30.789   6.521  27.919  1.00  0.00     0.051 A 
ATOM     12  H1  UNL     1      31.290   4.562  27.396  1.00  0.00     0.187 HD
HETATM   13  C1  UNL     1      31.904   7.198  27.684  1.00  0.00     0.045 C 
HETATM   14  C14 UNL     1      28.993   8.216  28.815  1.00  0.00     0.029 A 
ENDBRANCH   3   4
ENDBRANCH   1   3
BRANCH   1  15
HETATM   15  S1  UNL     1      24.587   9.257  28.048  1.00  0.00     0.266 S 
HETATM   16  O1  UNL     1      24.395   7.779  27.942  1.00  0.00    -0.200 OA
HETATM   17  O2  UNL     1      24.538   9.905  26.679  1.00  0.00    -0.200 OA
BRANCH  15  18
HETATM   18  C7  UNL     1      23.351   9.981  29.084  1.00  0.00     0.124 A 
HETATM   19  C8  UNL     1      23.405  10.147  30.450  1.00  0.00     0.116 A 
HETATM   20  N4  UNL     1      22.275  10.736  30.898  1.00  0.00    -0.362 N 
HETATM   21  C9  UNL     1      21.497  10.948  29.823  1.00  0.00     0.062 A 
ATOM     22  H4  UNL     1      22.055  10.973  31.865  1.00  0.00     0.165 HD
HETATM   23  C10 UNL     1      20.277  11.451  29.365  1.00  0.00     0.056 A 
HETATM   24  C13 UNL     1      22.136  10.492  28.694  1.00  0.00     0.084 A 
HETATM   25  C11 UNL     1      20.215  11.287  27.989  1.00  0.00     0.008 A 
HETATM   26  C12 UNL     1      19.101  11.677  27.075  1.00  0.00     0.068 C 
HETATM   27  N5  UNL     1      21.367  10.699  27.619  1.00  0.00    -0.357 N 
ATOM     28  H5  UNL     1      21.617  10.448  26.662  1.00  0.00     0.166 HD
ENDBRANCH  15  18
ENDBRANCH   1  15
TORSDOF 4
ENDMDL
MODEL 2
REMARK VINA RESULT: -8.016041286      3.970      5.457
REMARK  4 active torsions:
REMARK  status: ('A' for Active; 'I' for Inactive)
REMARK    1  A    between atoms: C5_9  and  C6_10 
REMARK    2  A    between atoms: C6_10  and  N3_11 
REMARK    3  A    between atoms: N3_11  and  S1_13 
REMARK    4  A    between atoms: S1_13  and  C7_16 
ROOT
HETATM    1  N3  UNL     1      27.215   8.084  29.020  1.00  0.00    -0.290 N 
ATOM      2  H3  UNL     1      27.094   7.479  29.831  1.00  0.00     0.178 HD
ENDROOT
BRANCH   1   3
HETATM    3  C6  UNL     1      28.232   7.764  28.092  1.00  0.00     0.111 C 
BRANCH   3   4
HETATM    4  C5  UNL     1      29.143   6.857  28.361  1.00  0.00    -0.017 A 
HETATM    5  C4  UNL     1      28.985   5.821  29.269  1.00  0.00     0.044 A 
HETATM    6  C3  UNL     1      30.140   5.052  29.305  1.00  0.00     0.061 A 
HETATM    7  N2  UNL     1      30.829   4.009  29.795  1.00  0.00    -0.299 N 
HETATM    8  C15 UNL     1      31.028   5.696  28.346  1.00  0.00     0.020 A 
HETATM    9  N1  UNL     1      32.026   3.962  29.234  1.00  0.00    -0.300 N 
ATOM     10  H2  UNL     1      30.482   3.353  30.494  1.00  0.00     0.187 HD
HETATM   11  C2  UNL     1      32.198   4.955  28.354  1.00  0.00     0.051 A 
ATOM     12  H1  UNL     1      32.732   3.257  29.447  1.00  0.00     0.187 HD
HETATM   13  C1  UNL     1      33.273   5.200  27.619  1.00  0.00     0.045 C 
HETATM   14  C14 UNL     1      30.403   6.787  27.786  1.00  0.00     0.029 A 
ENDBRANCH   3   4
ENDBRANCH   1   3
BRANCH   1  15
HETATM   15  S1  UNL     1      26.175   9.436  28.855  1.00  0.00     0.266 S 
HETATM   16  O1  UNL     1      25.164   9.435  29.955  1.00  0.00    -0.200 OA
HETATM   17  O2  UNL     1      25.498   9.359  27.501  1.00  0.00    -0.200 OA
BRANCH  15  18
HETATM   18  C7  UNL     1      27.181  10.890  28.925  1.00  0.00     0.124 A 
HETATM   19  C8  UNL     1      26.925  12.107  28.334  1.00  0.00     0.116 A 
HETATM   20  N4  UNL     1      27.919  12.980  28.603  1.00  0.00    -0.362 N 
HETATM   21  C9  UNL     1      28.812  12.326  29.367  1.00  0.00     0.062 A 
ATOM     22  H4  UNL     1      27.980  13.948  28.289  1.00  0.00     0.165 HD
HETATM   23  C10 UNL     1      30.026  12.414  30.051  1.00  0.00     0.056 A 
HETATM   24  C13 UNL     1      28.380  11.038  29.579  1.00  0.00     0.084 A 
HETATM   25  C11 UNL     1      30.291  11.191  30.649  1.00  0.00     0.008 A 
HETATM   26  C12 UNL     1      31.475  10.822  31.480  1.00  0.00     0.068 C 
HETATM   27  N5  UNL     1      29.265  10.379  30.338  1.00  0.00    -0.357 N 
ATOM     28  H5  UNL     1      29.173   9.408  30.636  1.00  0.00     0.166 HD
ENDBRANCH  15  18
ENDBRANCH   1  15
TORSDOF 4
ENDMDL
MODEL 3
REMARK VINA RESULT: -8.008436714      5.104      6.368
REMARK  4 active torsions:
REMARK  status: ('A' for Active; 'I' for Inactive)
REMARK    1  A    between atoms: C5_9  and  C6_10 
REMARK    2  A    between atoms: C6_10  and  N3_11 
REMARK    3  A    between atoms: N3_11  and  S1_13 
REMARK    4  A    between atoms: S1_13  and  C7_16 
ROOT
HETATM    1  N3  UNL     1      28.171   8.667  28.188  1.00  0.00    -0.290 N 
ATOM      2  H3  UNL     1      28.444   9.112  27.311  1.00  0.00     0.178 HD
ENDROOT
BRANCH   1   3
HETATM    3  C6  UNL     1      28.001   7.264  28.202  1.00  0.00     0.111 C 
BRANCH   3   4
HETATM    4  C5  UNL     1      29.003   6.457  28.463  1.00  0.00    -0.017 A 
HETATM    5  C4  UNL     1      28.982   5.448  29.414  1.00  0.00     0.044 A 
HETATM    6  C3  UNL     1      30.205   4.791  29.426  1.00  0.00     0.061 A 
HETATM    7  N2  UNL     1      31.008   3.837  29.922  1.00  0.00    -0.299 N 
HETATM    8  C15 UNL     1      30.987   5.475  28.404  1.00  0.00     0.020 A 
HETATM    9  N1  UNL     1      32.180   3.877  29.309  1.00  0.00    -0.300 N 
ATOM     10  H2  UNL     1      30.754   3.180  30.659  1.00  0.00     0.187 HD
HETATM   11  C2  UNL     1      32.220   4.844  28.385  1.00  0.00     0.051 A 
ATOM     12  H1  UNL     1      32.956   3.249  29.515  1.00  0.00     0.187 HD
HETATM   13  C1  UNL     1      33.236   5.157  27.593  1.00  0.00     0.045 C 
HETATM   14  C14 UNL     1      30.239   6.479  27.834  1.00  0.00     0.029 A 
ENDBRANCH   3   4
ENDBRANCH   1   3
BRANCH   1  15
HETATM   15  S1  UNL     1      27.944   9.662  29.565  1.00  0.00     0.266 S 
HETATM   16  O1  UNL     1      27.234   8.895  30.633  1.00  0.00    -0.200 OA
HETATM   17  O2  UNL     1      27.140  10.878  29.151  1.00  0.00    -0.200 OA
BRANCH  15  18
HETATM   18  C7  UNL     1      29.544  10.176  30.116  1.00  0.00     0.124 A 
HETATM   19  C8  UNL     1      30.701   9.430  30.118  1.00  0.00     0.116 A 
HETATM   20  N4  UNL     1      31.727  10.154  30.614  1.00  0.00    -0.362 N 
HETATM   21  C9  UNL     1      31.231  11.362  30.930  1.00  0.00     0.062 A 
ATOM     22  H4  UNL     1      32.692   9.843  30.728  1.00  0.00     0.165 HD
HETATM   23  C10 UNL     1      31.520  12.627  31.448  1.00  0.00     0.056 A 
HETATM   24  C13 UNL     1      29.889  11.402  30.633  1.00  0.00     0.084 A 
HETATM   25  C11 UNL     1      30.358  13.385  31.450  1.00  0.00     0.008 A 
HETATM   26  C12 UNL     1      30.192  14.794  31.914  1.00  0.00     0.068 C 
HETATM   27  N5  UNL     1      29.387  12.602  30.945  1.00  0.00    -0.357 N 
ATOM     28  H5  UNL     1      28.414  12.882  30.820  1.00  0.00     0.166 HD
ENDBRANCH  15  18
ENDBRANCH   1  15
TORSDOF 4
ENDMDL
MODEL 4
REMARK VINA RESULT: -7.901135185      1.154      1.566
REMARK  4 active torsions:
REMARK  status: ('A' for Active; 'I' for Inactive)
REMARK    1  A    between atoms: C5_9  and  C6_10 
REMARK    2  A    between atoms: C6_10  and  N3_11 
REMARK    3  A    between atoms: N3_11  and  S1_13 
REMARK    4  A    between atoms: S1_13  and  C7_16 
ROOT
HETATM    1  N3  UNL     1      25.635   9.774  28.718  1.00  0.00    -0.290 N 
ATOM      2  H3  UNL     1      26.076  10.654  28.450  1.00  0.00     0.178 HD
ENDROOT
BRANCH   1   3
HETATM    3  C6  UNL     1      26.331   8.920  29.604  1.00  0.00     0.111 C 
BRANCH   3   4
HETATM    4  C5  UNL     1      27.571   8.558  29.372  1.00  0.00    -0.017 A 
HETATM    5  C4  UNL     1      28.687   9.341  29.626  1.00  0.00     0.044 A 
HETATM    6  C3  UNL     1      29.835   8.650  29.263  1.00  0.00     0.061 A 
HETATM    7  N2  UNL     1      31.172   8.592  29.151  1.00  0.00    -0.299 N 
HETATM    8  C15 UNL     1      29.341   7.374  28.763  1.00  0.00     0.020 A 
HETATM    9  N1  UNL     1      31.526   7.424  28.640  1.00  0.00    -0.300 N 
ATOM     10  H2  UNL     1      31.816   9.336  29.419  1.00  0.00     0.187 HD
HETATM   11  C2  UNL     1      30.462   6.652  28.389  1.00  0.00     0.051 A 
ATOM     12  H1  UNL     1      32.491   7.147  28.460  1.00  0.00     0.187 HD
HETATM   13  C1  UNL     1      30.460   5.429  27.879  1.00  0.00     0.045 C 
HETATM   14  C14 UNL     1      27.967   7.340  28.839  1.00  0.00     0.029 A 
ENDBRANCH   3   4
ENDBRANCH   1   3
BRANCH   1  15
HETATM   15  S1  UNL     1      24.092   9.410  28.069  1.00  0.00     0.266 S 
HETATM   16  O1  UNL     1      23.865   7.933  28.098  1.00  0.00    -0.200 OA
HETATM   17  O2  UNL     1      24.031   9.936  26.649  1.00  0.00    -0.200 OA
BRANCH  15  18
HETATM   18  C7  UNL     1      22.890  10.251  29.058  1.00  0.00     0.124 A 
HETATM   19  C8  UNL     1      22.967  10.523  30.406  1.00  0.00     0.116 A 
HETATM   20  N4  UNL     1      21.861  11.179  30.817  1.00  0.00    -0.362 N 
HETATM   21  C9  UNL     1      21.076  11.330  29.737  1.00  0.00     0.062 A 
ATOM     22  H4  UNL     1      21.660  11.499  31.765  1.00  0.00     0.165 HD
HETATM   23  C10 UNL     1      19.866  11.834  29.252  1.00  0.00     0.056 A 
HETATM   24  C13 UNL     1      21.687  10.768  28.641  1.00  0.00     0.084 A 
HETATM   25  C11 UNL     1      19.782  11.564  27.894  1.00  0.00     0.008 A 
HETATM   26  C12 UNL     1      18.669  11.916  26.964  1.00  0.00     0.068 C 
HETATM   27  N5  UNL     1      20.911  10.913  27.560  1.00  0.00    -0.357 N 
ATOM     28  H5  UNL     1      21.142  10.580  26.623  1.00  0.00     0.166 HD
ENDBRANCH  15  18
ENDBRANCH   1  15
TORSDOF 4
ENDMDL
MODEL 5
REMARK VINA RESULT: -7.746600337      1.733      1.902
REMARK  4 active torsions:
REMARK  status: ('A' for Active; 'I' for Inactive)
REMARK    1  A    between atoms: C5_9  and  C6_10 
REMARK    2  A    between atoms: C6_10  and  N3_11 
REMARK    3  A    between atoms: N3_11  and  S1_13 
REMARK    4  A    between atoms: S1_13  and  C7_16 
ROOT
HETATM    1  N3  UNL     1      26.625   9.755  28.676  1.00  0.00    -0.290 N 
ATOM      2  H3  UNL     1      27.191  10.535  28.339  1.00  0.00     0.178 HD
ENDROOT
BRANCH   1   3
HETATM    3  C6  UNL     1      27.216   8.839  29.574  1.00  0.00     0.111 C 
BRANCH   3   4
HETATM    4  C5  UNL     1      28.024   7.893  29.153  1.00  0.00    -0.017 A 
HETATM    5  C4  UNL     1      27.650   6.581  28.910  1.00  0.00     0.044 A 
HETATM    6  C3  UNL     1      28.750   5.853  28.477  1.00  0.00     0.061 A 
HETATM    7  N2  UNL     1      29.291   4.696  28.064  1.00  0.00    -0.299 N 
HETATM    8  C15 UNL     1      29.839   6.822  28.472  1.00  0.00     0.020 A 
HETATM    9  N1  UNL     1      30.579   4.869  27.815  1.00  0.00    -0.300 N 
ATOM     10  H2  UNL     1      28.785   3.817  27.959  1.00  0.00     0.187 HD
HETATM   11  C2  UNL     1      30.960   6.131  28.043  1.00  0.00     0.051 A 
ATOM     12  H1  UNL     1      31.203   4.132  27.490  1.00  0.00     0.187 HD
HETATM   13  C1  UNL     1      32.173   6.642  27.895  1.00  0.00     0.045 C 
HETATM   14  C14 UNL     1      29.376   8.051  28.885  1.00  0.00     0.029 A 
ENDBRANCH   3   4
ENDBRANCH   1   3
BRANCH   1  15
HETATM   15  S1  UNL     1      25.009   9.627  28.120  1.00  0.00     0.266 S 
HETATM   16  O1  UNL     1      24.639   8.188  27.966  1.00  0.00    -0.200 OA
HETATM   17  O2  UNL     1      24.896  10.358  26.797  1.00  0.00    -0.200 OA
BRANCH  15  18
HETATM   18  C7  UNL     1      23.974  10.419  29.317  1.00  0.00     0.124 A 
HETATM   19  C8  UNL     1      23.337   9.828  30.385  1.00  0.00     0.116 A 
HETATM   20  N4  UNL     1      22.632  10.746  31.080  1.00  0.00    -0.362 N 
HETATM   21  C9  UNL     1      22.815  11.925  30.460  1.00  0.00     0.062 A 
ATOM     22  H4  UNL     1      22.069  10.578  31.913  1.00  0.00     0.165 HD
HETATM   23  C10 UNL     1      22.510  13.288  30.463  1.00  0.00     0.056 A 
HETATM   24  C13 UNL     1      23.638  11.750  29.373  1.00  0.00     0.084 A 
HETATM   25  C11 UNL     1      23.148  13.890  29.389  1.00  0.00     0.008 A 
HETATM   26  C12 UNL     1      23.108  15.330  28.998  1.00  0.00     0.068 C 
HETATM   27  N5  UNL     1      23.825  12.920  28.749  1.00  0.00    -0.357 N 
ATOM     28  H5  UNL     1      24.396  13.055  27.914  1.00  0.00     0.166 HD
ENDBRANCH  15  18
ENDBRANCH   1  15
TORSDOF 4
ENDMDL
