MODEL 1
REMARK VINA RESULT: -7.863018471      0.000      0.000
REMARK  7 active torsions:
REMARK  status: ('A' for Active; 'I' for Inactive)
REMARK    1  A    between atoms: C5_5  and  C6_6 
REMARK    2  A    between atoms: C6_6  and  C7_7 
REMARK    3  A    between atoms: C11_13  and  C12_14 
REMARK    4  A    between atoms: C13_15  and  C14_16 
REMARK    5  A    between atoms: C15_19  and  C16_20 
REMARK    6  A    between atoms: C16_20  and  C17_21 
REMARK    7  A    between atoms: C22_28  and  O1_29 
ROOT
HETATM    1  C1  UNL     1      23.371   9.801  30.404  1.00  0.00     0.102 C 
HETATM    2  C2  UNL     1      24.094   9.847  29.414  1.00  0.00    -0.154 C 
HETATM    3  C3  UNL     1      24.911   9.917  28.254  1.00  0.00    -0.025 C 
HETATM    4  C4  UNL     1      24.404  10.544  26.984  1.00  0.00     0.057 C 
HETATM    5  C5  UNL     1      26.129   9.437  28.261  1.00  0.00    -0.007 C 
ENDROOT
BRANCH   5   6
HETATM    6  C6  UNL     1      26.655   8.812  29.503  1.00  0.00     0.069 C 
BRANCH   6   7
HETATM    7  C7  UNL     1      27.916   8.067  29.277  1.00  0.00    -0.026 A 
HETATM    8  C8  UNL     1      27.888   6.779  28.712  1.00  0.00     0.038 A 
HETATM    9  C9  UNL     1      29.171   6.327  28.654  1.00  0.00     0.023 A 
HETATM   10  C10 UNL     1      29.565   5.128  28.178  1.00  0.00     0.043 C 
HETATM   11  N1  UNL     1      29.940   7.279  29.153  1.00  0.00    -0.356 N 
HETATM   12  C11 UNL     1      29.205   8.379  29.551  1.00  0.00     0.039 A 
ATOM     13  H1  UNL     1      30.955   7.210  29.234  1.00  0.00     0.166 HD
BRANCH  12  14
HETATM   14  C12 UNL     1      29.762   9.457  30.053  1.00  0.00     0.032 C 
HETATM   15  C13 UNL     1      31.127   9.845  30.145  1.00  0.00     0.035 C 
BRANCH  15  16
HETATM   16  C14 UNL     1      31.464  11.032  30.712  1.00  0.00     0.066 A 
HETATM   17  N2  UNL     1      30.857  12.218  30.634  1.00  0.00    -0.354 N 
HETATM   18  C15 UNL     1      31.529  13.142  31.352  1.00  0.00     0.036 A 
ATOM     19  H2  UNL     1      30.005  12.401  30.104  1.00  0.00     0.166 HD
HETATM   20  C21 UNL     1      32.618  12.529  31.923  1.00  0.00     0.068 A 
HETATM   21  C22 UNL     1      32.563  11.219  31.516  1.00  0.00     0.094 A 
BRANCH  18  22
HETATM   22  C16 UNL     1      31.178  14.405  31.470  1.00  0.00     0.042 C 
BRANCH  22  23
HETATM   23  C17 UNL     1      30.378  14.893  32.578  1.00  0.00    -0.017 A 
HETATM   24  C18 UNL     1      30.834  15.356  33.811  1.00  0.00     0.030 A 
HETATM   25  C19 UNL     1      29.772  15.723  34.575  1.00  0.00     0.088 A 
HETATM   26  N3  UNL     1      28.670  15.497  33.848  1.00  0.00    -0.374 N 
HETATM   27  C20 UNL     1      28.993  14.998  32.642  1.00  0.00     0.099 A 
ATOM     28  H3  UNL     1      27.717  15.678  34.165  1.00  0.00     0.164 HD
ENDBRANCH  22  23
ENDBRANCH  18  22
BRANCH  21  29
HETATM   29  O1  UNL     1      33.481  10.245  31.867  1.00  0.00    -0.358 OA
ATOM     30  H1  UNL     1      33.652   9.937  32.749  1.00  0.00     0.217 HD
ENDBRANCH  21  29
ENDBRANCH  15  16
ENDBRANCH  12  14
ENDBRANCH   6   7
ENDBRANCH   5   6
TORSDOF 7
ENDMDL
MODEL 2
REMARK VINA RESULT: -7.719341917      3.727      7.657
REMARK  7 active torsions:
REMARK  status: ('A' for Active; 'I' for Inactive)
REMARK    1  A    between atoms: C5_5  and  C6_6 
REMARK    2  A    between atoms: C6_6  and  C7_7 
REMARK    3  A    between atoms: C11_13  and  C12_14 
REMARK    4  A    between atoms: C13_15  and  C14_16 
REMARK    5  A    between atoms: C15_19  and  C16_20 
REMARK    6  A    between atoms: C16_20  and  C17_21 
REMARK    7  A    between atoms: C22_28  and  O1_29 
ROOT
HETATM    1  C1  UNL     1      29.088  13.125  30.652  1.00  0.00     0.102 C 
HETATM    2  C2  UNL     1      29.708  12.075  30.792  1.00  0.00    -0.154 C 
HETATM    3  C3  UNL     1      30.446  10.874  30.969  1.00  0.00    -0.025 C 
HETATM    4  C4  UNL     1      31.819  10.890  31.585  1.00  0.00     0.057 C 
HETATM    5  C5  UNL     1      29.950   9.720  30.601  1.00  0.00    -0.007 C 
ENDROOT
BRANCH   5   6
HETATM    6  C6  UNL     1      28.596   9.675  29.990  1.00  0.00     0.069 C 
BRANCH   6   7
HETATM    7  C7  UNL     1      28.327   8.396  29.292  1.00  0.00    -0.026 A 
HETATM    8  C8  UNL     1      29.330   7.414  29.197  1.00  0.00     0.038 A 
HETATM    9  C9  UNL     1      28.821   6.374  28.482  1.00  0.00     0.023 A 
HETATM   10  C10 UNL     1      29.474   5.236  28.169  1.00  0.00     0.043 C 
HETATM   11  N1  UNL     1      27.581   6.696  28.158  1.00  0.00    -0.356 N 
HETATM   12  C11 UNL     1      27.230   7.942  28.641  1.00  0.00     0.039 A 
ATOM     13  H1  UNL     1      26.958   6.096  27.617  1.00  0.00     0.166 HD
BRANCH  12  14
HETATM   14  C12 UNL     1      26.036   8.458  28.462  1.00  0.00     0.032 C 
HETATM   15  C13 UNL     1      25.631   9.713  27.928  1.00  0.00     0.035 C 
BRANCH  15  16
HETATM   16  C14 UNL     1      24.314  10.025  27.837  1.00  0.00     0.066 A 
HETATM   17  N2  UNL     1      23.376  10.053  28.787  1.00  0.00    -0.354 N 
HETATM   18  C15 UNL     1      22.185  10.417  28.266  1.00  0.00     0.036 A 
ATOM     19  H2  UNL     1      23.537   9.831  29.769  1.00  0.00     0.166 HD
HETATM   20  C21 UNL     1      22.357  10.636  26.921  1.00  0.00     0.068 A 
HETATM   21  C22 UNL     1      23.684  10.388  26.670  1.00  0.00     0.094 A 
BRANCH  18  22
HETATM   22  C16 UNL     1      21.068  10.535  28.952  1.00  0.00     0.042 C 
BRANCH  22  23
HETATM   23  C17 UNL     1      20.774  11.697  29.770  1.00  0.00    -0.017 A 
HETATM   24  C18 UNL     1      19.680  12.554  29.659  1.00  0.00     0.030 A 
HETATM   25  C19 UNL     1      19.768  13.521  30.611  1.00  0.00     0.088 A 
HETATM   26  N3  UNL     1      20.888  13.285  31.307  1.00  0.00    -0.374 N 
HETATM   27  C20 UNL     1      21.520  12.198  30.832  1.00  0.00     0.099 A 
ATOM     28  H3  UNL     1      21.216  13.852  32.089  1.00  0.00     0.164 HD
ENDBRANCH  22  23
ENDBRANCH  18  22
BRANCH  21  29
HETATM   29  O1  UNL     1      24.285  10.491  25.428  1.00  0.00    -0.358 OA
ATOM     30  H1  UNL     1      24.364  11.286  24.914  1.00  0.00     0.217 HD
ENDBRANCH  21  29
ENDBRANCH  15  16
ENDBRANCH  12  14
ENDBRANCH   6   7
ENDBRANCH   5   6
TORSDOF 7
ENDMDL
MODEL 3
REMARK VINA RESULT: -7.681433751      4.307      7.703
REMARK  7 active torsions:
REMARK  status: ('A' for Active; 'I' for Inactive)
REMARK    1  A    between atoms: C5_5  and  C6_6 
REMARK    2  A    between atoms: C6_6  and  C7_7 
REMARK    3  A    between atoms: C11_13  and  C12_14 
REMARK    4  A    between atoms: C13_15  and  C14_16 
REMARK    5  A    between atoms: C15_19  and  C16_20 
REMARK    6  A    between atoms: C16_20  and  C17_21 
REMARK    7  A    between atoms: C22_28  and  O1_29 
ROOT
HETATM    1  C1  UNL     1      21.060  10.914  26.427  1.00  0.00     0.102 C 
HETATM    2  C2  UNL     1      21.286  11.094  27.619  1.00  0.00    -0.154 C 
HETATM    3  C3  UNL     1      21.519  11.311  29.004  1.00  0.00    -0.025 C 
HETATM    4  C4  UNL     1      20.447  11.886  29.891  1.00  0.00     0.057 C 
HETATM    5  C5  UNL     1      22.672  11.014  29.545  1.00  0.00    -0.007 C 
ENDROOT
BRANCH   5   6
HETATM    6  C6  UNL     1      23.748  10.444  28.692  1.00  0.00     0.069 C 
BRANCH   6   7
HETATM    7  C7  UNL     1      24.999  11.238  28.744  1.00  0.00    -0.026 A 
HETATM    8  C8  UNL     1      24.946  12.641  28.842  1.00  0.00     0.038 A 
HETATM    9  C9  UNL     1      26.227  13.102  28.836  1.00  0.00     0.023 A 
HETATM   10  C10 UNL     1      26.600  14.396  28.911  1.00  0.00     0.043 C 
HETATM   11  N1  UNL     1      27.018  12.048  28.740  1.00  0.00    -0.356 N 
HETATM   12  C11 UNL     1      26.300  10.869  28.681  1.00  0.00     0.039 A 
ATOM     13  H1  UNL     1      28.036  12.099  28.712  1.00  0.00     0.166 HD
BRANCH  12  14
HETATM   14  C12 UNL     1      26.878   9.693  28.609  1.00  0.00     0.032 C 
HETATM   15  C13 UNL     1      27.305   8.798  29.630  1.00  0.00     0.035 C 
BRANCH  15  16
HETATM   16  C14 UNL     1      27.884   7.615  29.304  1.00  0.00     0.066 A 
HETATM   17  N2  UNL     1      29.030   7.080  29.729  1.00  0.00    -0.354 N 
HETATM   18  C15 UNL     1      29.238   5.879  29.149  1.00  0.00     0.036 A 
ATOM     19  H2  UNL     1      29.662   7.518  30.400  1.00  0.00     0.166 HD
HETATM   20  C21 UNL     1      28.179   5.622  28.311  1.00  0.00     0.068 A 
HETATM   21  C22 UNL     1      27.347   6.710  28.418  1.00  0.00     0.094 A 
BRANCH  18  22
HETATM   22  C16 UNL     1      30.281   5.107  29.367  1.00  0.00     0.042 C 
BRANCH  22  23
HETATM   23  C17 UNL     1      31.470   5.148  28.536  1.00  0.00    -0.017 A 
HETATM   24  C18 UNL     1      32.613   4.360  28.656  1.00  0.00     0.030 A 
HETATM   25  C19 UNL     1      33.501   4.704  27.686  1.00  0.00     0.088 A 
HETATM   26  N3  UNL     1      32.937   5.686  26.970  1.00  0.00    -0.374 N 
HETATM   27  C20 UNL     1      31.717   5.980  27.449  1.00  0.00     0.099 A 
ATOM     28  H3  UNL     1      33.374   6.146  26.171  1.00  0.00     0.164 HD
ENDBRANCH  22  23
ENDBRANCH  18  22
BRANCH  21  29
HETATM   29  O1  UNL     1      26.154   6.860  27.735  1.00  0.00    -0.358 OA
ATOM     30  H1  UNL     1      26.038   7.333  26.919  1.00  0.00     0.217 HD
ENDBRANCH  21  29
ENDBRANCH  15  16
ENDBRANCH  12  14
ENDBRANCH   6   7
ENDBRANCH   5   6
TORSDOF 7
ENDMDL
MODEL 4
REMARK VINA RESULT: -7.656279355      0.758      1.149
REMARK  7 active torsions:
REMARK  status: ('A' for Active; 'I' for Inactive)
REMARK    1  A    between atoms: C5_5  and  C6_6 
REMARK    2  A    between atoms: C6_6  and  C7_7 
REMARK    3  A    between atoms: C11_13  and  C12_14 
REMARK    4  A    between atoms: C13_15  and  C14_16 
REMARK    5  A    between atoms: C15_19  and  C16_20 
REMARK    6  A    between atoms: C16_20  and  C17_21 
REMARK    7  A    between atoms: C22_28  and  O1_29 
ROOT
HETATM    1  C1  UNL     1      27.370  12.093  28.908  1.00  0.00     0.102 C 
HETATM    2  C2  UNL     1      26.624  11.197  28.526  1.00  0.00    -0.154 C 
HETATM    3  C3  UNL     1      25.753  10.177  28.058  1.00  0.00    -0.025 C 
HETATM    4  C4  UNL     1      24.852  10.406  26.874  1.00  0.00     0.057 C 
HETATM    5  C5  UNL     1      25.712   9.008  28.646  1.00  0.00    -0.007 C 
ENDROOT
BRANCH   5   6
HETATM    6  C6  UNL     1      26.592   8.755  29.817  1.00  0.00     0.069 C 
BRANCH   6   7
HETATM    7  C7  UNL     1      27.844   8.053  29.449  1.00  0.00    -0.026 A 
HETATM    8  C8  UNL     1      27.796   6.784  28.843  1.00  0.00     0.038 A 
HETATM    9  C9  UNL     1      29.079   6.371  28.651  1.00  0.00     0.023 A 
HETATM   10  C10 UNL     1      29.457   5.201  28.097  1.00  0.00     0.043 C 
HETATM   11  N1  UNL     1      29.867   7.327  29.111  1.00  0.00    -0.356 N 
HETATM   12  C11 UNL     1      29.144   8.392  29.615  1.00  0.00     0.039 A 
ATOM     13  H1  UNL     1      30.886   7.283  29.096  1.00  0.00     0.166 HD
BRANCH  12  14
HETATM   14  C12 UNL     1      29.719   9.467  30.103  1.00  0.00     0.032 C 
HETATM   15  C13 UNL     1      31.088   9.847  30.166  1.00  0.00     0.035 C 
BRANCH  15  16
HETATM   16  C14 UNL     1      31.444  11.032  30.723  1.00  0.00     0.066 A 
HETATM   17  N2  UNL     1      30.845  12.223  30.652  1.00  0.00    -0.354 N 
HETATM   18  C15 UNL     1      31.537  13.144  31.355  1.00  0.00     0.036 A 
ATOM     19  H2  UNL     1      29.984  12.410  30.137  1.00  0.00     0.166 HD
HETATM   20  C21 UNL     1      32.631  12.525  31.908  1.00  0.00     0.068 A 
HETATM   21  C22 UNL     1      32.560  11.214  31.506  1.00  0.00     0.094 A 
BRANCH  18  22
HETATM   22  C16 UNL     1      31.198  14.410  31.475  1.00  0.00     0.042 C 
BRANCH  22  23
HETATM   23  C17 UNL     1      30.345  14.891  32.547  1.00  0.00    -0.017 A 
HETATM   24  C18 UNL     1      30.744  15.377  33.791  1.00  0.00     0.030 A 
HETATM   25  C19 UNL     1      29.646  15.728  34.510  1.00  0.00     0.088 A 
HETATM   26  N3  UNL     1      28.578  15.472  33.743  1.00  0.00    -0.374 N 
HETATM   27  C20 UNL     1      28.957  14.968  32.556  1.00  0.00     0.099 A 
ATOM     28  H3  UNL     1      27.610  15.636  34.022  1.00  0.00     0.164 HD
ENDBRANCH  22  23
ENDBRANCH  18  22
BRANCH  21  29
HETATM   29  O1  UNL     1      33.476  10.234  31.844  1.00  0.00    -0.358 OA
ATOM     30  H1  UNL     1      33.396   9.627  32.570  1.00  0.00     0.217 HD
ENDBRANCH  21  29
ENDBRANCH  15  16
ENDBRANCH  12  14
ENDBRANCH   6   7
ENDBRANCH   5   6
TORSDOF 7
ENDMDL
MODEL 5
REMARK VINA RESULT: -7.644910148      4.443      7.680
REMARK  7 active torsions:
REMARK  status: ('A' for Active; 'I' for Inactive)
REMARK    1  A    between atoms: C5_5  and  C6_6 
REMARK    2  A    between atoms: C6_6  and  C7_7 
REMARK    3  A    between atoms: C11_13  and  C12_14 
REMARK    4  A    between atoms: C13_15  and  C14_16 
REMARK    5  A    between atoms: C15_19  and  C16_20 
REMARK    6  A    between atoms: C16_20  and  C17_21 
REMARK    7  A    between atoms: C22_28  and  O1_29 
ROOT
HETATM    1  C1  UNL     1      24.668  11.945  22.434  1.00  0.00     0.102 C 
HETATM    2  C2  UNL     1      24.898  12.416  23.543  1.00  0.00    -0.154 C 
HETATM    3  C3  UNL     1      25.174  12.988  24.815  1.00  0.00    -0.025 C 
HETATM    4  C4  UNL     1      25.840  14.332  24.934  1.00  0.00     0.057 C 
HETATM    5  C5  UNL     1      24.853  12.359  25.917  1.00  0.00    -0.007 C 
ENDROOT
BRANCH   5   6
HETATM    6  C6  UNL     1      24.193  11.030  25.827  1.00  0.00     0.069 C 
BRANCH   6   7
HETATM    7  C7  UNL     1      23.539  10.631  27.096  1.00  0.00    -0.026 A 
HETATM    8  C8  UNL     1      22.219  11.035  27.372  1.00  0.00     0.038 A 
HETATM    9  C9  UNL     1      21.894  10.560  28.606  1.00  0.00     0.023 A 
HETATM   10  C10 UNL     1      20.713  10.737  29.233  1.00  0.00     0.043 C 
HETATM   11  N1  UNL     1      22.948   9.906  29.060  1.00  0.00    -0.356 N 
HETATM   12  C11 UNL     1      23.993   9.923  28.156  1.00  0.00     0.039 A 
ATOM     13  H1  UNL     1      22.986   9.445  29.969  1.00  0.00     0.166 HD
BRANCH  12  14
HETATM   14  C12 UNL     1      25.134   9.314  28.384  1.00  0.00     0.032 C 
HETATM   15  C13 UNL     1      26.429   9.831  28.663  1.00  0.00     0.035 C 
BRANCH  15  16
HETATM   16  C14 UNL     1      27.472   8.988  28.873  1.00  0.00     0.066 A 
HETATM   17  N2  UNL     1      27.633   7.719  28.494  1.00  0.00    -0.354 N 
HETATM   18  C15 UNL     1      28.825   7.246  28.913  1.00  0.00     0.036 A 
ATOM     19  H2  UNL     1      26.949   7.181  27.961  1.00  0.00     0.166 HD
HETATM   20  C21 UNL     1      29.468   8.253  29.593  1.00  0.00     0.068 A 
HETATM   21  C22 UNL     1      28.614   9.328  29.559  1.00  0.00     0.094 A 
BRANCH  18  22
HETATM   22  C16 UNL     1      29.272   6.028  28.694  1.00  0.00     0.042 C 
BRANCH  22  23
HETATM   23  C17 UNL     1      30.622   5.762  28.233  1.00  0.00    -0.017 A 
HETATM   24  C18 UNL     1      31.534   4.852  28.765  1.00  0.00     0.030 A 
HETATM   25  C19 UNL     1      32.689   4.902  28.051  1.00  0.00     0.088 A 
HETATM   26  N3  UNL     1      32.516   5.821  27.091  1.00  0.00    -0.374 N 
HETATM   27  C20 UNL     1      31.288   6.360  27.168  1.00  0.00     0.099 A 
ATOM     28  H3  UNL     1      33.220   6.076  26.398  1.00  0.00     0.164 HD
ENDBRANCH  22  23
ENDBRANCH  18  22
BRANCH  21  29
HETATM   29  O1  UNL     1      28.875  10.561  30.132  1.00  0.00    -0.358 OA
ATOM     30  H1  UNL     1      28.454  10.911  30.907  1.00  0.00     0.217 HD
ENDBRANCH  21  29
ENDBRANCH  15  16
ENDBRANCH  12  14
ENDBRANCH   6   7
ENDBRANCH   5   6
TORSDOF 7
ENDMDL
