MODEL 1
REMARK VINA RESULT: -6.684687521      0.000      0.000
REMARK  10 active torsions:
REMARK  status: ('A' for Active; 'I' for Inactive)
REMARK    1  A    between atoms: C2_2  and  C3_3 
REMARK    2  A    between atoms: C3_3  and  N1_4 
REMARK    3  A    between atoms: N1_4  and  C4_6 
REMARK    4  A    between atoms: C6_10  and  C7_11 
REMARK    5  A    between atoms: C7_11  and  C8_12 
REMARK    6  A    between atoms: C8_12  and  C9_13 
REMARK    7  A    between atoms: C8_12  and  N3_22 
REMARK    8  A    between atoms: C9_13  and  C10_14 
REMARK    9  A    between atoms: N3_22  and  S1_24 
REMARK   10  A    between atoms: S1_24  and  N4_25 
ROOT
HETATM    1  C8  UNL     1      41.222  19.648  36.334  1.00  0.00     0.103 C 
ENDROOT
BRANCH   1   2
HETATM    2  C7  UNL     1      39.934  18.996  35.923  1.00  0.00     0.066 C 
BRANCH   2   3
HETATM    3  C6  UNL     1      38.986  18.837  37.047  1.00  0.00    -0.039 A 
HETATM    4  C5  UNL     1      38.405  19.920  37.678  1.00  0.00     0.097 A 
HETATM    5  N2  UNL     1      37.548  19.789  38.696  1.00  0.00    -0.351 N 
HETATM    6  C4  UNL     1      37.176  18.562  39.193  1.00  0.00     0.122 A 
ATOM      7  H2  UNL     1      37.155  20.630  39.119  1.00  0.00     0.166 HD
HETATM    8  C17 UNL     1      37.730  17.466  38.592  1.00  0.00     0.055 A 
HETATM    9  C16 UNL     1      38.626  17.586  37.530  1.00  0.00     0.031 A 
HETATM   10 BR1  UNL     1      37.315  15.702  39.166  1.00  0.00    -0.047 Br
BRANCH   6  11
HETATM   11  N1  UNL     1      36.370  18.534  40.144  1.00  0.00    -0.351 N 
ATOM     12  H1  UNL     1      36.849  18.616  41.041  1.00  0.00     0.166 HD
BRANCH  11  13
HETATM   13  C3  UNL     1      34.988  18.421  40.312  1.00  0.00     0.089 C 
BRANCH  13  14
HETATM   14  C2  UNL     1      34.634  17.770  41.626  1.00  0.00     0.007 C 
HETATM   15  C1  UNL     1      35.596  17.261  42.356  1.00  0.00     0.012 C 
ENDBRANCH  13  14
ENDBRANCH  11  13
ENDBRANCH   6  11
ENDBRANCH   2   3
ENDBRANCH   1   2
BRANCH   1  16
HETATM   16  C9  UNL     1      42.359  18.719  36.133  1.00  0.00     0.064 C 
BRANCH  16  17
HETATM   17  C10 UNL     1      42.514  17.718  37.215  1.00  0.00    -0.053 A 
HETATM   18  C11 UNL     1      42.126  18.057  38.492  1.00  0.00     0.010 A 
HETATM   19  C12 UNL     1      42.237  17.177  39.560  1.00  0.00     0.046 A 
HETATM   20  C13 UNL     1      42.760  15.930  39.287  1.00  0.00     0.154 A 
HETATM   21  F1  UNL     1      42.903  15.000  40.289  1.00  0.00    -0.203 F 
HETATM   22  C14 UNL     1      43.148  15.591  38.007  1.00  0.00     0.155 A 
HETATM   23  F2  UNL     1      43.671  14.351  37.727  1.00  0.00    -0.203 F 
HETATM   24  C15 UNL     1      43.035  16.470  36.947  1.00  0.00     0.052 A 
ENDBRANCH  16  17
ENDBRANCH   1  16
BRANCH   1  25
HETATM   25  N3  UNL     1      41.369  20.909  35.638  1.00  0.00    -0.298 N 
ATOM     26  H3  UNL     1      41.398  20.993  34.621  1.00  0.00     0.174 HD
BRANCH  25  27
HETATM   27  S1  UNL     1      41.488  22.255  36.708  1.00  0.00     0.313 S 
HETATM   28  O1  UNL     1      42.639  23.140  36.409  1.00  0.00    -0.183 OA
HETATM   29  O2  UNL     1      40.218  23.078  36.630  1.00  0.00    -0.183 OA
BRANCH  27  30
HETATM   30  N4  UNL     1      41.613  21.717  38.363  1.00  0.00    -0.312 N 
ATOM     31  H42 UNL     1      42.484  21.414  38.799  1.00  0.00     0.170 HD
ATOM     32  H41 UNL     1      40.703  21.749  38.822  1.00  0.00     0.170 HD
ENDBRANCH  27  30
ENDBRANCH  25  27
ENDBRANCH   1  25
TORSDOF 10
ENDMDL
MODEL 2
REMARK VINA RESULT: -6.666588123      1.066      1.143
REMARK  10 active torsions:
REMARK  status: ('A' for Active; 'I' for Inactive)
REMARK    1  A    between atoms: C2_2  and  C3_3 
REMARK    2  A    between atoms: C3_3  and  N1_4 
REMARK    3  A    between atoms: N1_4  and  C4_6 
REMARK    4  A    between atoms: C6_10  and  C7_11 
REMARK    5  A    between atoms: C7_11  and  C8_12 
REMARK    6  A    between atoms: C8_12  and  C9_13 
REMARK    7  A    between atoms: C8_12  and  N3_22 
REMARK    8  A    between atoms: C9_13  and  C10_14 
REMARK    9  A    between atoms: N3_22  and  S1_24 
REMARK   10  A    between atoms: S1_24  and  N4_25 
ROOT
HETATM    1  C8  UNL     1      40.577  19.823  36.276  1.00  0.00     0.103 C 
ENDROOT
BRANCH   1   2
HETATM    2  C7  UNL     1      39.486  19.143  35.499  1.00  0.00     0.066 C 
BRANCH   2   3
HETATM    3  C6  UNL     1      38.319  18.792  36.336  1.00  0.00    -0.039 A 
HETATM    4  C5  UNL     1      37.230  19.632  36.469  1.00  0.00     0.097 A 
HETATM    5  N2  UNL     1      36.169  19.325  37.223  1.00  0.00    -0.351 N 
HETATM    6  C4  UNL     1      36.079  18.146  37.925  1.00  0.00     0.122 A 
ATOM      7  H2  UNL     1      35.398  19.990  37.279  1.00  0.00     0.166 HD
HETATM    8  C17 UNL     1      37.139  17.288  37.816  1.00  0.00     0.055 A 
HETATM    9  C16 UNL     1      38.253  17.593  37.034  1.00  0.00     0.031 A 
HETATM   10 BR1  UNL     1      37.164  15.619  38.726  1.00  0.00    -0.047 Br
BRANCH   6  11
HETATM   11  N1  UNL     1      35.053  17.943  38.602  1.00  0.00    -0.351 N 
ATOM     12  H1  UNL     1      34.427  17.283  38.141  1.00  0.00     0.166 HD
BRANCH  11  13
HETATM   13  C3  UNL     1      34.529  18.376  39.823  1.00  0.00     0.089 C 
BRANCH  13  14
HETATM   14  C2  UNL     1      35.538  18.258  40.939  1.00  0.00     0.007 C 
HETATM   15  C1  UNL     1      35.259  17.487  41.960  1.00  0.00     0.012 C 
ENDBRANCH  13  14
ENDBRANCH  11  13
ENDBRANCH   6  11
ENDBRANCH   2   3
ENDBRANCH   1   2
BRANCH   1  16
HETATM   16  C9  UNL     1      41.860  19.099  36.108  1.00  0.00     0.064 C 
BRANCH  16  17
HETATM   17  C10 UNL     1      42.158  18.148  37.204  1.00  0.00    -0.053 A 
HETATM   18  C11 UNL     1      41.665  18.410  38.463  1.00  0.00     0.010 A 
HETATM   19  C12 UNL     1      41.899  17.569  39.543  1.00  0.00     0.046 A 
HETATM   20  C13 UNL     1      42.656  16.442  39.301  1.00  0.00     0.154 A 
HETATM   21  F1  UNL     1      42.934  15.559  40.317  1.00  0.00    -0.203 F 
HETATM   22  C14 UNL     1      43.150  16.180  38.039  1.00  0.00     0.155 A 
HETATM   23  F2  UNL     1      43.905  15.059  37.790  1.00  0.00    -0.203 F 
HETATM   24  C15 UNL     1      42.914  17.019  36.968  1.00  0.00     0.052 A 
ENDBRANCH  16  17
ENDBRANCH   1  16
BRANCH   1  25
HETATM   25  N3  UNL     1      40.641  21.219  35.897  1.00  0.00    -0.298 N 
ATOM     26  H3  UNL     1      40.785  21.538  34.938  1.00  0.00     0.174 HD
BRANCH  25  27
HETATM   27  S1  UNL     1      40.449  22.286  37.238  1.00  0.00     0.313 S 
HETATM   28  O1  UNL     1      40.417  23.715  36.848  1.00  0.00    -0.183 OA
HETATM   29  O2  UNL     1      39.160  21.959  37.964  1.00  0.00    -0.183 OA
BRANCH  27  30
HETATM   30  N4  UNL     1      41.731  22.052  38.399  1.00  0.00    -0.312 N 
ATOM     31  H42 UNL     1      42.688  22.375  38.261  1.00  0.00     0.170 HD
ATOM     32  H41 UNL     1      41.386  21.554  39.220  1.00  0.00     0.170 HD
ENDBRANCH  27  30
ENDBRANCH  25  27
ENDBRANCH   1  25
TORSDOF 10
ENDMDL
MODEL 3
REMARK VINA RESULT: -6.430153527      2.039      2.792
REMARK  10 active torsions:
REMARK  status: ('A' for Active; 'I' for Inactive)
REMARK    1  A    between atoms: C2_2  and  C3_3 
REMARK    2  A    between atoms: C3_3  and  N1_4 
REMARK    3  A    between atoms: N1_4  and  C4_6 
REMARK    4  A    between atoms: C6_10  and  C7_11 
REMARK    5  A    between atoms: C7_11  and  C8_12 
REMARK    6  A    between atoms: C8_12  and  C9_13 
REMARK    7  A    between atoms: C8_12  and  N3_22 
REMARK    8  A    between atoms: C9_13  and  C10_14 
REMARK    9  A    between atoms: N3_22  and  S1_24 
REMARK   10  A    between atoms: S1_24  and  N4_25 
ROOT
HETATM    1  C8  UNL     1      40.093  18.916  38.748  1.00  0.00     0.103 C 
ENDROOT
BRANCH   1   2
HETATM    2  C7  UNL     1      39.223  17.705  38.574  1.00  0.00     0.066 C 
BRANCH   2   3
HETATM    3  C6  UNL     1      37.799  17.973  38.866  1.00  0.00    -0.039 A 
HETATM    4  C5  UNL     1      36.956  18.561  37.940  1.00  0.00     0.097 A 
HETATM    5  N2  UNL     1      35.667  18.809  38.192  1.00  0.00    -0.351 N 
HETATM    6  C4  UNL     1      35.078  18.497  39.395  1.00  0.00     0.122 A 
ATOM      7  H2  UNL     1      35.100  19.247  37.466  1.00  0.00     0.166 HD
HETATM    8  C17 UNL     1      35.880  17.913  40.336  1.00  0.00     0.055 A 
HETATM    9  C16 UNL     1      37.227  17.648  40.088  1.00  0.00     0.031 A 
HETATM   10 BR1  UNL     1      35.212  17.423  42.047  1.00  0.00    -0.047 Br
BRANCH   6  11
HETATM   11  N1  UNL     1      33.869  18.765  39.543  1.00  0.00    -0.351 N 
ATOM     12  H1  UNL     1      33.735  19.726  39.856  1.00  0.00     0.166 HD
BRANCH  11  13
HETATM   13  C3  UNL     1      32.648  18.101  39.395  1.00  0.00     0.089 C 
BRANCH  13  14
HETATM   14  C2  UNL     1      31.486  18.966  39.815  1.00  0.00     0.007 C 
HETATM   15  C1  UNL     1      30.408  18.977  39.072  1.00  0.00     0.012 C 
ENDBRANCH  13  14
ENDBRANCH  11  13
ENDBRANCH   6  11
ENDBRANCH   2   3
ENDBRANCH   1   2
BRANCH   1  16
HETATM   16  C9  UNL     1      41.297  18.579  39.542  1.00  0.00     0.064 C 
BRANCH  16  17
HETATM   17  C10 UNL     1      42.127  17.505  38.946  1.00  0.00    -0.053 A 
HETATM   18  C11 UNL     1      42.289  16.329  39.643  1.00  0.00     0.010 A 
HETATM   19  C12 UNL     1      43.049  15.274  39.154  1.00  0.00     0.046 A 
HETATM   20  C13 UNL     1      43.645  15.455  37.924  1.00  0.00     0.154 A 
HETATM   21  F1  UNL     1      44.414  14.460  37.370  1.00  0.00    -0.203 F 
HETATM   22  C14 UNL     1      43.482  16.635  37.226  1.00  0.00     0.155 A 
HETATM   23  F2  UNL     1      44.073  16.823  35.999  1.00  0.00    -0.203 F 
HETATM   24  C15 UNL     1      42.724  17.681  37.716  1.00  0.00     0.052 A 
ENDBRANCH  16  17
ENDBRANCH   1  16
BRANCH   1  25
HETATM   25  N3  UNL     1      40.390  19.487  37.450  1.00  0.00    -0.298 N 
ATOM     26  H3  UNL     1      40.689  18.936  36.646  1.00  0.00     0.174 HD
BRANCH  25  27
HETATM   27  S1  UNL     1      40.185  21.199  37.409  1.00  0.00     0.313 S 
HETATM   28  O1  UNL     1      40.192  21.756  36.036  1.00  0.00    -0.183 OA
HETATM   29  O2  UNL     1      38.870  21.566  38.068  1.00  0.00    -0.183 OA
BRANCH  27  30
HETATM   30  N4  UNL     1      41.430  21.991  38.340  1.00  0.00    -0.312 N 
ATOM     31  H42 UNL     1      42.382  22.138  38.006  1.00  0.00     0.170 HD
ATOM     32  H41 UNL     1      41.070  22.279  39.250  1.00  0.00     0.170 HD
ENDBRANCH  27  30
ENDBRANCH  25  27
ENDBRANCH   1  25
TORSDOF 10
ENDMDL
MODEL 4
REMARK VINA RESULT: -6.406143796      4.734      5.830
REMARK  10 active torsions:
REMARK  status: ('A' for Active; 'I' for Inactive)
REMARK    1  A    between atoms: C2_2  and  C3_3 
REMARK    2  A    between atoms: C3_3  and  N1_4 
REMARK    3  A    between atoms: N1_4  and  C4_6 
REMARK    4  A    between atoms: C6_10  and  C7_11 
REMARK    5  A    between atoms: C7_11  and  C8_12 
REMARK    6  A    between atoms: C8_12  and  C9_13 
REMARK    7  A    between atoms: C8_12  and  N3_22 
REMARK    8  A    between atoms: C9_13  and  C10_14 
REMARK    9  A    between atoms: N3_22  and  S1_24 
REMARK   10  A    between atoms: S1_24  and  N4_25 
ROOT
HETATM    1  C8  UNL     1      44.742  19.034  34.152  1.00  0.00     0.103 C 
ENDROOT
BRANCH   1   2
HETATM    2  C7  UNL     1      43.670  19.920  33.586  1.00  0.00     0.066 C 
BRANCH   2   3
HETATM    3  C6  UNL     1      42.991  20.732  34.618  1.00  0.00    -0.039 A 
HETATM    4  C5  UNL     1      43.555  21.882  35.138  1.00  0.00     0.097 A 
HETATM    5  N2  UNL     1      42.951  22.624  36.071  1.00  0.00    -0.351 N 
HETATM    6  C4  UNL     1      41.719  22.300  36.588  1.00  0.00     0.122 A 
ATOM      7  H2  UNL     1      43.422  23.462  36.413  1.00  0.00     0.166 HD
HETATM    8  C17 UNL     1      41.128  21.168  36.097  1.00  0.00     0.055 A 
HETATM    9  C16 UNL     1      41.745  20.383  35.123  1.00  0.00     0.031 A 
HETATM   10 BR1  UNL     1      39.425  20.589  36.711  1.00  0.00    -0.047 Br
BRANCH   6  11
HETATM   11  N1  UNL     1      41.230  23.050  37.456  1.00  0.00    -0.351 N 
ATOM     12  H1  UNL     1      41.239  22.610  38.376  1.00  0.00     0.166 HD
BRANCH  11  13
HETATM   13  C3  UNL     1      40.674  24.331  37.507  1.00  0.00     0.089 C 
BRANCH  13  14
HETATM   14  C2  UNL     1      40.787  24.936  38.884  1.00  0.00     0.007 C 
HETATM   15  C1  UNL     1      40.522  26.210  39.036  1.00  0.00     0.012 C 
ENDBRANCH  13  14
ENDBRANCH  11  13
ENDBRANCH   6  11
ENDBRANCH   2   3
ENDBRANCH   1   2
BRANCH   1  16
HETATM   16  C9  UNL     1      44.350  17.610  34.040  1.00  0.00     0.064 C 
BRANCH  16  17
HETATM   17  C10 UNL     1      44.334  16.889  35.335  1.00  0.00    -0.053 A 
HETATM   18  C11 UNL     1      45.149  15.790  35.492  1.00  0.00     0.010 A 
HETATM   19  C12 UNL     1      45.194  15.061  36.673  1.00  0.00     0.046 A 
HETATM   20  C13 UNL     1      44.377  15.488  37.699  1.00  0.00     0.154 A 
HETATM   21  F1  UNL     1      44.362  14.820  38.900  1.00  0.00    -0.203 F 
HETATM   22  C14 UNL     1      43.561  16.589  37.541  1.00  0.00     0.155 A 
HETATM   23  F2  UNL     1      42.743  17.020  38.559  1.00  0.00    -0.203 F 
HETATM   24  C15 UNL     1      43.520  17.312  36.364  1.00  0.00     0.052 A 
ENDBRANCH  16  17
ENDBRANCH   1  16
BRANCH   1  25
HETATM   25  N3  UNL     1      46.007  19.342  33.518  1.00  0.00    -0.298 N 
ATOM     26  H3  UNL     1      46.292  18.965  32.614  1.00  0.00     0.174 HD
BRANCH  25  27
HETATM   27  S1  UNL     1      46.981  20.414  34.453  1.00  0.00     0.313 S 
HETATM   28  O1  UNL     1      46.563  20.496  35.873  1.00  0.00    -0.183 OA
HETATM   29  O2  UNL     1      48.425  19.957  34.405  1.00  0.00    -0.183 OA
BRANCH  27  30
HETATM   30  N4  UNL     1      46.960  22.020  33.771  1.00  0.00    -0.312 N 
ATOM     31  H42 UNL     1      46.977  22.212  32.770  1.00  0.00     0.170 HD
ATOM     32  H41 UNL     1      46.929  22.724  34.509  1.00  0.00     0.170 HD
ENDBRANCH  27  30
ENDBRANCH  25  27
ENDBRANCH   1  25
TORSDOF 10
ENDMDL
MODEL 5
REMARK VINA RESULT: -6.248612252      0.954      1.572
REMARK  10 active torsions:
REMARK  status: ('A' for Active; 'I' for Inactive)
REMARK    1  A    between atoms: C2_2  and  C3_3 
REMARK    2  A    between atoms: C3_3  and  N1_4 
REMARK    3  A    between atoms: N1_4  and  C4_6 
REMARK    4  A    between atoms: C6_10  and  C7_11 
REMARK    5  A    between atoms: C7_11  and  C8_12 
REMARK    6  A    between atoms: C8_12  and  C9_13 
REMARK    7  A    between atoms: C8_12  and  N3_22 
REMARK    8  A    between atoms: C9_13  and  C10_14 
REMARK    9  A    between atoms: N3_22  and  S1_24 
REMARK   10  A    between atoms: S1_24  and  N4_25 
ROOT
HETATM    1  C8  UNL     1      41.050  19.378  35.950  1.00  0.00     0.103 C 
ENDROOT
BRANCH   1   2
HETATM    2  C7  UNL     1      39.658  18.904  35.646  1.00  0.00     0.066 C 
BRANCH   2   3
HETATM    3  C6  UNL     1      38.830  18.738  36.859  1.00  0.00    -0.039 A 
HETATM    4  C5  UNL     1      38.279  19.815  37.527  1.00  0.00     0.097 A 
HETATM    5  N2  UNL     1      37.529  19.677  38.625  1.00  0.00    -0.351 N 
HETATM    6  C4  UNL     1      37.246  18.449  39.176  1.00  0.00     0.122 A 
ATOM      7  H2  UNL     1      37.152  20.514  39.071  1.00  0.00     0.166 HD
HETATM    8  C17 UNL     1      37.774  17.358  38.541  1.00  0.00     0.055 A 
HETATM    9  C16 UNL     1      38.559  17.485  37.395  1.00  0.00     0.031 A 
HETATM   10 BR1  UNL     1      37.473  15.594  39.181  1.00  0.00    -0.047 Br
BRANCH   6  11
HETATM   11  N1  UNL     1      36.538  18.414  40.201  1.00  0.00    -0.351 N 
ATOM     12  H1  UNL     1      37.104  18.293  41.041  1.00  0.00     0.166 HD
BRANCH  11  13
HETATM   13  C3  UNL     1      35.178  18.496  40.509  1.00  0.00     0.089 C 
BRANCH  13  14
HETATM   14  C2  UNL     1      34.839  17.723  41.759  1.00  0.00     0.007 C 
HETATM   15  C1  UNL     1      35.814  17.217  42.471  1.00  0.00     0.012 C 
ENDBRANCH  13  14
ENDBRANCH  11  13
ENDBRANCH   6  11
ENDBRANCH   2   3
ENDBRANCH   1   2
BRANCH   1  16
HETATM   16  C9  UNL     1      42.047  18.377  35.504  1.00  0.00     0.064 C 
BRANCH  16  17
HETATM   17  C10 UNL     1      42.453  17.423  36.563  1.00  0.00    -0.053 A 
HETATM   18  C11 UNL     1      42.981  16.206  36.193  1.00  0.00     0.010 A 
HETATM   19  C12 UNL     1      43.386  15.258  37.122  1.00  0.00     0.046 A 
HETATM   20  C13 UNL     1      43.236  15.588  38.453  1.00  0.00     0.154 A 
HETATM   21  F1  UNL     1      43.612  14.704  39.436  1.00  0.00    -0.203 F 
HETATM   22  C14 UNL     1      42.707  16.808  38.823  1.00  0.00     0.155 A 
HETATM   23  F2  UNL     1      42.554  17.144  40.148  1.00  0.00    -0.203 F 
HETATM   24  C15 UNL     1      42.305  17.748  37.895  1.00  0.00     0.052 A 
ENDBRANCH  16  17
ENDBRANCH   1  16
BRANCH   1  25
HETATM   25  N3  UNL     1      41.248  20.694  35.378  1.00  0.00    -0.298 N 
ATOM     26  H3  UNL     1      41.171  20.892  34.380  1.00  0.00     0.174 HD
BRANCH  25  27
HETATM   27  S1  UNL     1      41.627  21.889  36.561  1.00  0.00     0.313 S 
HETATM   28  O1  UNL     1      40.515  22.834  36.814  1.00  0.00    -0.183 OA
HETATM   29  O2  UNL     1      41.986  21.211  37.868  1.00  0.00    -0.183 OA
BRANCH  27  30
HETATM   30  N4  UNL     1      43.038  22.800  36.086  1.00  0.00    -0.312 N 
ATOM     31  H42 UNL     1      43.885  22.871  36.650  1.00  0.00     0.170 HD
ATOM     32  H41 UNL     1      42.892  23.242  35.179  1.00  0.00     0.170 HD
ENDBRANCH  27  30
ENDBRANCH  25  27
ENDBRANCH   1  25
TORSDOF 10
ENDMDL
