MODEL 1
REMARK VINA RESULT: -5.443374394      0.000      0.000
REMARK  10 active torsions:
REMARK  status: ('A' for Active; 'I' for Inactive)
REMARK    1  A    between atoms: C2_2  and  C3_3 
REMARK    2  A    between atoms: C3_3  and  C4_4 
REMARK    3  A    between atoms: C4_4  and  N1_5 
REMARK    4  A    between atoms: C4_4  and  C7_12 
REMARK    5  A    between atoms: C5_7  and  C6_8 
REMARK    6  A    between atoms: C7_12  and  O1_13 
REMARK    7  A    between atoms: C7_12  and  N2_15 
REMARK    8  A    between atoms: N2_15  and  C8_18 
REMARK    9  A    between atoms: C8_18  and  C9_19 
REMARK   10  A    between atoms: C8_18  and  C11_21 
ROOT
HETATM    1  C7  UNL     1      39.616  20.744  37.847  1.00  0.00     0.342 C 
ENDROOT
BRANCH   1   2
HETATM    2  C4  UNL     1      39.760  19.254  38.105  1.00  0.00     0.137 C 
BRANCH   2   3
HETATM    3  C3  UNL     1      40.702  18.953  39.220  1.00  0.00     0.029 C 
BRANCH   3   4
HETATM    4  C2  UNL     1      41.960  18.304  38.687  1.00  0.00    -0.002 C 
HETATM    5  C1  UNL     1      42.257  17.002  39.443  1.00  0.00     0.005 C 
ENDBRANCH   3   4
ENDBRANCH   2   3
BRANCH   2   6
HETATM    6  N1  UNL     1      38.448  18.719  38.288  1.00  0.00    -0.390 N 
HETATM    7  C5  UNL     1      38.193  17.795  39.116  1.00  0.00     0.100 C 
ATOM      8  H1  UNL     1      37.685  19.098  37.729  1.00  0.00     0.159 HD
BRANCH   7   9
HETATM    9  C6  UNL     1      36.879  17.201  39.366  1.00  0.00     0.164 C 
HETATM   10 BR1  UNL     1      35.748  17.787  37.876  1.00  0.00    -0.054 Br
HETATM   11 BR2  UNL     1      36.036  17.864  40.977  1.00  0.00    -0.054 Br
HETATM   12 BR3  UNL     1      36.910  15.283  39.321  1.00  0.00    -0.054 Br
ENDBRANCH   7   9
ENDBRANCH   2   6
ENDBRANCH   1   2
BRANCH   1  13
HETATM   13  O1  UNL     1      38.318  21.181  38.032  1.00  0.00    -0.368 OA
ATOM     14  H1  UNL     1      37.714  20.776  37.421  1.00  0.00     0.212 HD
ENDBRANCH   1  13
BRANCH   1  15
HETATM   15  N2  UNL     1      40.557  21.508  38.546  1.00  0.00    -0.035 N 
ATOM     16  H22 UNL     1      40.111  22.080  39.263  1.00  0.00     0.281 HD
ATOM     17  H21 UNL     1      41.137  20.922  39.147  1.00  0.00     0.281 HD
BRANCH  15  18
HETATM   18  C8  UNL     1      41.378  22.326  37.646  1.00  0.00     0.277 C 
BRANCH  18  19
HETATM   19  C9  UNL     1      41.381  21.770  36.264  1.00  0.00     0.038 C 
HETATM   20  C10 UNL     1      42.738  21.291  35.865  1.00  0.00     0.007 C 
ENDBRANCH  18  19
BRANCH  18  21
HETATM   21  C11 UNL     1      40.978  23.739  37.745  1.00  0.00     0.262 C 
HETATM   22  N3  UNL     1      41.258  24.541  38.896  1.00  0.00    -0.060 NA
HETATM   23  O2  UNL     1      40.363  24.284  36.803  1.00  0.00    -0.275 OA
ENDBRANCH  18  21
ENDBRANCH  15  18
ENDBRANCH   1  15
TORSDOF 10
ENDMDL
MODEL 2
REMARK VINA RESULT: -5.403061668      0.142      1.285
REMARK  10 active torsions:
REMARK  status: ('A' for Active; 'I' for Inactive)
REMARK    1  A    between atoms: C2_2  and  C3_3 
REMARK    2  A    between atoms: C3_3  and  C4_4 
REMARK    3  A    between atoms: C4_4  and  N1_5 
REMARK    4  A    between atoms: C4_4  and  C7_12 
REMARK    5  A    between atoms: C5_7  and  C6_8 
REMARK    6  A    between atoms: C7_12  and  O1_13 
REMARK    7  A    between atoms: C7_12  and  N2_15 
REMARK    8  A    between atoms: N2_15  and  C8_18 
REMARK    9  A    between atoms: C8_18  and  C9_19 
REMARK   10  A    between atoms: C8_18  and  C11_21 
ROOT
HETATM    1  C7  UNL     1      39.617  20.738  37.828  1.00  0.00     0.342 C 
ENDROOT
BRANCH   1   2
HETATM    2  C4  UNL     1      39.776  19.247  38.072  1.00  0.00     0.137 C 
BRANCH   2   3
HETATM    3  C3  UNL     1      40.692  18.947  39.208  1.00  0.00     0.029 C 
BRANCH   3   4
HETATM    4  C2  UNL     1      41.964  18.302  38.703  1.00  0.00    -0.002 C 
HETATM    5  C1  UNL     1      42.214  16.968  39.419  1.00  0.00     0.005 C 
ENDBRANCH   3   4
ENDBRANCH   2   3
BRANCH   2   6
HETATM    6  N1  UNL     1      38.467  18.692  38.215  1.00  0.00    -0.390 N 
HETATM    7  C5  UNL     1      38.190  17.797  39.067  1.00  0.00     0.100 C 
ATOM      8  H1  UNL     1      37.724  19.032  37.604  1.00  0.00     0.159 HD
BRANCH   7   9
HETATM    9  C6  UNL     1      36.877  17.185  39.278  1.00  0.00     0.164 C 
HETATM   10 BR1  UNL     1      37.222  15.267  39.483  1.00  0.00    -0.054 Br
HETATM   11 BR2  UNL     1      35.698  17.362  37.753  1.00  0.00    -0.054 Br
HETATM   12 BR3  UNL     1      36.034  17.776  40.897  1.00  0.00    -0.054 Br
ENDBRANCH   7   9
ENDBRANCH   2   6
ENDBRANCH   1   2
BRANCH   1  13
HETATM   13  O1  UNL     1      38.316  21.161  38.018  1.00  0.00    -0.368 OA
ATOM     14  H1  UNL     1      37.851  20.618  38.644  1.00  0.00     0.212 HD
ENDBRANCH   1  13
BRANCH   1  15
HETATM   15  N2  UNL     1      40.552  21.505  38.532  1.00  0.00    -0.035 N 
ATOM     16  H22 UNL     1      40.100  22.077  39.245  1.00  0.00     0.281 HD
ATOM     17  H21 UNL     1      41.129  20.920  39.137  1.00  0.00     0.281 HD
BRANCH  15  18
HETATM   18  C8  UNL     1      41.378  22.323  37.636  1.00  0.00     0.277 C 
BRANCH  18  19
HETATM   19  C9  UNL     1      41.386  21.769  36.254  1.00  0.00     0.038 C 
HETATM   20  C10 UNL     1      42.767  21.420  35.806  1.00  0.00     0.007 C 
ENDBRANCH  18  19
BRANCH  18  21
HETATM   21  C11 UNL     1      40.981  23.736  37.736  1.00  0.00     0.262 C 
HETATM   22  N3  UNL     1      41.269  24.539  38.885  1.00  0.00    -0.060 NA
HETATM   23  O2  UNL     1      40.361  24.281  36.797  1.00  0.00    -0.275 OA
ENDBRANCH  18  21
ENDBRANCH  15  18
ENDBRANCH   1  15
TORSDOF 10
ENDMDL
MODEL 3
REMARK VINA RESULT: -5.389276266      1.119      1.856
REMARK  10 active torsions:
REMARK  status: ('A' for Active; 'I' for Inactive)
REMARK    1  A    between atoms: C2_2  and  C3_3 
REMARK    2  A    between atoms: C3_3  and  C4_4 
REMARK    3  A    between atoms: C4_4  and  N1_5 
REMARK    4  A    between atoms: C4_4  and  C7_12 
REMARK    5  A    between atoms: C5_7  and  C6_8 
REMARK    6  A    between atoms: C7_12  and  O1_13 
REMARK    7  A    between atoms: C7_12  and  N2_15 
REMARK    8  A    between atoms: N2_15  and  C8_18 
REMARK    9  A    between atoms: C8_18  and  C9_19 
REMARK   10  A    between atoms: C8_18  and  C11_21 
ROOT
HETATM    1  C7  UNL     1      39.490  20.765  37.638  1.00  0.00     0.342 C 
ENDROOT
BRANCH   1   2
HETATM    2  C4  UNL     1      39.765  19.308  37.974  1.00  0.00     0.137 C 
BRANCH   2   3
HETATM    3  C3  UNL     1      40.675  19.152  39.143  1.00  0.00     0.029 C 
BRANCH   3   4
HETATM    4  C2  UNL     1      41.917  18.386  38.746  1.00  0.00    -0.002 C 
HETATM    5  C1  UNL     1      41.942  17.009  39.422  1.00  0.00     0.005 C 
ENDBRANCH   3   4
ENDBRANCH   2   3
BRANCH   2   6
HETATM    6  N1  UNL     1      38.504  18.655  38.122  1.00  0.00    -0.390 N 
HETATM    7  C5  UNL     1      38.222  17.924  39.117  1.00  0.00     0.100 C 
ATOM      8  H1  UNL     1      37.799  18.784  37.396  1.00  0.00     0.159 HD
BRANCH   7   9
HETATM    9  C6  UNL     1      36.955  17.228  39.345  1.00  0.00     0.164 C 
HETATM   10 BR1  UNL     1      35.799  17.745  37.848  1.00  0.00    -0.054 Br
HETATM   11 BR2  UNL     1      36.045  17.807  40.953  1.00  0.00    -0.054 Br
HETATM   12 BR3  UNL     1      37.132  15.319  39.280  1.00  0.00    -0.054 Br
ENDBRANCH   7   9
ENDBRANCH   2   6
ENDBRANCH   1   2
BRANCH   1  13
HETATM   13  O1  UNL     1      38.278  21.195  38.140  1.00  0.00    -0.368 OA
ATOM     14  H1  UNL     1      37.580  21.126  37.499  1.00  0.00     0.212 HD
ENDBRANCH   1  13
BRANCH   1  15
HETATM   15  N2  UNL     1      40.554  21.608  37.976  1.00  0.00    -0.035 N 
ATOM     16  H22 UNL     1      40.339  22.163  38.804  1.00  0.00     0.281 HD
ATOM     17  H21 UNL     1      41.346  21.078  38.340  1.00  0.00     0.281 HD
BRANCH  15  18
HETATM   18  C8  UNL     1      40.957  22.462  36.852  1.00  0.00     0.277 C 
BRANCH  18  19
HETATM   19  C9  UNL     1      40.735  23.902  37.163  1.00  0.00     0.038 C 
HETATM   20  C10 UNL     1      40.810  24.168  38.631  1.00  0.00     0.007 C 
ENDBRANCH  18  19
BRANCH  18  21
HETATM   21  C11 UNL     1      42.323  22.122  36.425  1.00  0.00     0.262 C 
HETATM   22  N3  UNL     1      42.820  20.780  36.426  1.00  0.00    -0.060 NA
HETATM   23  O2  UNL     1      43.103  23.022  36.047  1.00  0.00    -0.275 OA
ENDBRANCH  18  21
ENDBRANCH  15  18
ENDBRANCH   1  15
TORSDOF 10
ENDMDL
MODEL 4
REMARK VINA RESULT: -5.340118801      1.181      2.196
REMARK  10 active torsions:
REMARK  status: ('A' for Active; 'I' for Inactive)
REMARK    1  A    between atoms: C2_2  and  C3_3 
REMARK    2  A    between atoms: C3_3  and  C4_4 
REMARK    3  A    between atoms: C4_4  and  N1_5 
REMARK    4  A    between atoms: C4_4  and  C7_12 
REMARK    5  A    between atoms: C5_7  and  C6_8 
REMARK    6  A    between atoms: C7_12  and  O1_13 
REMARK    7  A    between atoms: C7_12  and  N2_15 
REMARK    8  A    between atoms: N2_15  and  C8_18 
REMARK    9  A    between atoms: C8_18  and  C9_19 
REMARK   10  A    between atoms: C8_18  and  C11_21 
ROOT
HETATM    1  C7  UNL     1      39.563  20.731  37.728  1.00  0.00     0.342 C 
ENDROOT
BRANCH   1   2
HETATM    2  C4  UNL     1      39.828  19.298  38.159  1.00  0.00     0.137 C 
BRANCH   2   3
HETATM    3  C3  UNL     1      40.954  19.190  39.128  1.00  0.00     0.029 C 
BRANCH   3   4
HETATM    4  C2  UNL     1      42.003  18.228  38.614  1.00  0.00    -0.002 C 
HETATM    5  C1  UNL     1      41.982  16.924  39.423  1.00  0.00     0.005 C 
ENDBRANCH   3   4
ENDBRANCH   2   3
BRANCH   2   6
HETATM    6  N1  UNL     1      38.594  18.756  38.632  1.00  0.00    -0.390 N 
HETATM    7  C5  UNL     1      38.244  17.558  38.418  1.00  0.00     0.100 C 
ATOM      8  H1  UNL     1      37.969  19.359  39.165  1.00  0.00     0.159 HD
BRANCH   7   9
HETATM    9  C6  UNL     1      37.004  16.928  38.873  1.00  0.00     0.164 C 
HETATM   10 BR1  UNL     1      36.375  18.030  40.367  1.00  0.00    -0.054 Br
HETATM   11 BR2  UNL     1      37.271  15.149  39.590  1.00  0.00    -0.054 Br
HETATM   12 BR3  UNL     1      35.623  16.954  37.541  1.00  0.00    -0.054 Br
ENDBRANCH   7   9
ENDBRANCH   2   6
ENDBRANCH   1   2
BRANCH   1  13
HETATM   13  O1  UNL     1      38.344  21.194  38.183  1.00  0.00    -0.368 OA
ATOM     14  H1  UNL     1      38.426  21.672  39.001  1.00  0.00     0.212 HD
ENDBRANCH   1  13
BRANCH   1  15
HETATM   15  N2  UNL     1      40.625  21.592  38.030  1.00  0.00    -0.035 N 
ATOM     16  H22 UNL     1      40.422  22.155  38.856  1.00  0.00     0.281 HD
ATOM     17  H21 UNL     1      41.432  21.075  38.381  1.00  0.00     0.281 HD
BRANCH  15  18
HETATM   18  C8  UNL     1      40.989  22.437  36.886  1.00  0.00     0.277 C 
BRANCH  18  19
HETATM   19  C9  UNL     1      40.745  23.876  37.180  1.00  0.00     0.038 C 
HETATM   20  C10 UNL     1      40.813  24.161  38.644  1.00  0.00     0.007 C 
ENDBRANCH  18  19
BRANCH  18  21
HETATM   21  C11 UNL     1      42.354  22.117  36.439  1.00  0.00     0.262 C 
HETATM   22  N3  UNL     1      42.862  20.780  36.406  1.00  0.00    -0.060 NA
HETATM   23  O2  UNL     1      43.123  23.032  36.072  1.00  0.00    -0.275 OA
ENDBRANCH  18  21
ENDBRANCH  15  18
ENDBRANCH   1  15
TORSDOF 10
ENDMDL
MODEL 5
REMARK VINA RESULT: -5.138321570      1.696      2.749
REMARK  10 active torsions:
REMARK  status: ('A' for Active; 'I' for Inactive)
REMARK    1  A    between atoms: C2_2  and  C3_3 
REMARK    2  A    between atoms: C3_3  and  C4_4 
REMARK    3  A    between atoms: C4_4  and  N1_5 
REMARK    4  A    between atoms: C4_4  and  C7_12 
REMARK    5  A    between atoms: C5_7  and  C6_8 
REMARK    6  A    between atoms: C7_12  and  O1_13 
REMARK    7  A    between atoms: C7_12  and  N2_15 
REMARK    8  A    between atoms: N2_15  and  C8_18 
REMARK    9  A    between atoms: C8_18  and  C9_19 
REMARK   10  A    between atoms: C8_18  and  C11_21 
ROOT
HETATM    1  C7  UNL     1      41.007  19.298  38.792  1.00  0.00     0.342 C 
ENDROOT
BRANCH   1   2
HETATM    2  C4  UNL     1      40.843  17.876  38.282  1.00  0.00     0.137 C 
BRANCH   2   3
HETATM    3  C3  UNL     1      41.475  16.869  39.180  1.00  0.00     0.029 C 
BRANCH   3   4
HETATM    4  C2  UNL     1      42.737  16.321  38.553  1.00  0.00    -0.002 C 
HETATM    5  C1  UNL     1      43.294  15.159  39.387  1.00  0.00     0.005 C 
ENDBRANCH   3   4
ENDBRANCH   2   3
BRANCH   2   6
HETATM    6  N1  UNL     1      39.450  17.661  38.049  1.00  0.00    -0.390 N 
HETATM    7  C5  UNL     1      38.570  17.830  38.944  1.00  0.00     0.100 C 
ATOM      8  H1  UNL     1      39.152  17.357  37.123  1.00  0.00     0.159 HD
BRANCH   7   9
HETATM    9  C6  UNL     1      37.129  17.637  38.783  1.00  0.00     0.164 C 
HETATM   10 BR1  UNL     1      36.872  15.698  38.648  1.00  0.00    -0.054 Br
HETATM   11 BR2  UNL     1      36.437  18.388  37.138  1.00  0.00    -0.054 Br
HETATM   12 BR3  UNL     1      36.124  18.227  40.307  1.00  0.00    -0.054 Br
ENDBRANCH   7   9
ENDBRANCH   2   6
ENDBRANCH   1   2
BRANCH   1  13
HETATM   13  O1  UNL     1      41.711  19.348  39.979  1.00  0.00    -0.368 OA
ATOM     14  H1  UNL     1      42.650  19.321  39.840  1.00  0.00     0.212 HD
ENDBRANCH   1  13
BRANCH   1  15
HETATM   15  N2  UNL     1      41.512  20.167  37.818  1.00  0.00    -0.035 N 
ATOM     16  H22 UNL     1      42.507  20.342  37.958  1.00  0.00     0.281 HD
ATOM     17  H21 UNL     1      41.556  19.714  36.905  1.00  0.00     0.281 HD
BRANCH  15  18
HETATM   18  C8  UNL     1      40.754  21.422  37.756  1.00  0.00     0.277 C 
BRANCH  18  19
HETATM   19  C9  UNL     1      41.507  22.470  37.011  1.00  0.00     0.038 C 
HETATM   20  C10 UNL     1      40.890  23.819  37.181  1.00  0.00     0.007 C 
ENDBRANCH  18  19
BRANCH  18  21
HETATM   21  C11 UNL     1      39.393  21.165  37.259  1.00  0.00     0.262 C 
HETATM   22  N3  UNL     1      39.129  20.746  35.916  1.00  0.00    -0.060 NA
HETATM   23  O2  UNL     1      38.411  21.314  38.016  1.00  0.00    -0.275 OA
ENDBRANCH  18  21
ENDBRANCH  15  18
ENDBRANCH   1  15
TORSDOF 10
ENDMDL
