MODEL 1
REMARK VINA RESULT: -6.248214348      0.000      0.000
REMARK  11 active torsions:
REMARK  status: ('A' for Active; 'I' for Inactive)
REMARK    1  A    between atoms: C4_6  and  N2_7 
REMARK    2  A    between atoms: N2_7  and  C5_9 
REMARK    3  A    between atoms: C5_9  and  C6_10 
REMARK    4  A    between atoms: C6_10  and  C7_11 
REMARK    5  A    between atoms: N4_21  and  C14_23 
REMARK    6  A    between atoms: C14_23  and  C15_24 
REMARK    7  A    between atoms: C15_24  and  N5_25 
REMARK       I    between atoms: N5_25  and  C16_27 
REMARK       I    between atoms: C16_27  and  N6_29 
REMARK    8  A    between atoms: N6_29  and  C17_30 
REMARK    9  A    between atoms: N6_29  and  C19_33 
REMARK   10  A    between atoms: C17_30  and  C18_31 
REMARK   11  A    between atoms: C19_33  and  C20_34 
ROOT
HETATM    1  C1  UNL     1      38.501  20.822  37.474  1.00  0.00     0.054 C 
HETATM    2  C2  UNL     1      39.525  19.902  38.041  1.00  0.00    -0.002 A 
HETATM    3  C3  UNL     1      39.206  18.549  38.182  1.00  0.00     0.116 A 
HETATM    4  N1  UNL     1      40.063  17.643  38.684  1.00  0.00    -0.201 N 
ATOM      5  H1  UNL     1      39.789  16.665  38.770  1.00  0.00     0.183 HD
HETATM    6  C4  UNL     1      41.286  18.045  39.072  1.00  0.00     0.679 A 
HETATM    7  N3  UNL     1      41.615  19.321  38.948  1.00  0.00    -0.176 N 
ATOM      8  H3  UNL     1      42.548  19.603  39.248  1.00  0.00     0.186 HD
HETATM    9  C13 UNL     1      40.778  20.293  38.442  1.00  0.00     0.124 A 
HETATM   10  N4  UNL     1      41.205  21.461  38.375  1.00  0.00    -0.374 N 
ATOM     11  H4  UNL     1      42.161  21.509  38.729  1.00  0.00     0.161 HD
ENDROOT
BRANCH  10  12
HETATM   12  C14 UNL     1      40.778  22.717  37.967  1.00  0.00     0.141 C 
BRANCH  12  13
HETATM   13  C15 UNL     1      41.621  23.296  36.825  1.00  0.00     0.144 C 
BRANCH  13  14
HETATM   14  N5  UNL     1      42.282  22.288  36.048  1.00  0.00    -0.341 N 
HETATM   15  C16 UNL     1      43.571  22.336  35.506  1.00  0.00     0.318 C 
HETATM   16  O1  UNL     1      44.273  23.373  35.700  1.00  0.00    -0.247 OA
HETATM   17  N6  UNL     1      44.163  21.291  34.737  1.00  0.00    -0.332 N 
ATOM     18  H5  UNL     1      41.750  21.436  35.870  1.00  0.00     0.164 HD
BRANCH  17  19
HETATM   19  C17 UNL     1      43.486  20.047  34.441  1.00  0.00     0.142 C 
BRANCH  19  20
HETATM   20  C18 UNL     1      43.965  18.938  35.382  1.00  0.00     0.134 C 
HETATM   21 CL1  UNL     1      42.601  17.874  35.790  1.00  0.00    -0.129 Cl
ENDBRANCH  19  20
ENDBRANCH  17  19
BRANCH  17  22
HETATM   22  C19 UNL     1      45.489  21.452  34.202  1.00  0.00     0.142 C 
BRANCH  22  23
HETATM   23  C20 UNL     1      45.559  21.730  32.738  1.00  0.00     0.134 C 
HETATM   24 CL2  UNL     1      45.077  23.364  32.276  1.00  0.00    -0.129 Cl
ENDBRANCH  22  23
ENDBRANCH  17  22
ENDBRANCH  13  14
ENDBRANCH  12  13
ENDBRANCH  10  12
BRANCH   6  25
HETATM   25  N2  UNL     1      42.159  17.203  39.566  1.00  0.00    -0.226 N 
ATOM     26  H2  UNL     1      42.941  17.570  40.108  1.00  0.00     0.177 HD
BRANCH  25  27
HETATM   27  C5  UNL     1      42.059  15.791  39.377  1.00  0.00     0.142 C 
BRANCH  27  28
HETATM   28  C6  UNL     1      43.440  15.129  39.286  1.00  0.00     0.058 C 
BRANCH  28  29
HETATM   29  C7  UNL     1      43.788  14.989  37.849  1.00  0.00    -0.057 A 
HETATM   30  C8  UNL     1      44.990  15.531  37.386  1.00  0.00     0.010 A 
HETATM   31  C9  UNL     1      45.316  15.404  36.055  1.00  0.00     0.043 A 
HETATM   32  C10 UNL     1      44.506  14.762  35.144  1.00  0.00     0.116 A 
HETATM   33  F1  UNL     1      44.832  14.639  33.834  1.00  0.00    -0.206 F 
HETATM   34  C11 UNL     1      43.324  14.231  35.610  1.00  0.00     0.043 A 
HETATM   35  C12 UNL     1      42.978  14.346  36.937  1.00  0.00     0.010 A 
ENDBRANCH  28  29
ENDBRANCH  27  28
ENDBRANCH  25  27
ENDBRANCH   6  25
TORSDOF 11
ENDMDL
MODEL 2
REMARK VINA RESULT: -6.193997487      4.320      6.492
REMARK  11 active torsions:
REMARK  status: ('A' for Active; 'I' for Inactive)
REMARK    1  A    between atoms: C4_6  and  N2_7 
REMARK    2  A    between atoms: N2_7  and  C5_9 
REMARK    3  A    between atoms: C5_9  and  C6_10 
REMARK    4  A    between atoms: C6_10  and  C7_11 
REMARK    5  A    between atoms: N4_21  and  C14_23 
REMARK    6  A    between atoms: C14_23  and  C15_24 
REMARK    7  A    between atoms: C15_24  and  N5_25 
REMARK       I    between atoms: N5_25  and  C16_27 
REMARK       I    between atoms: C16_27  and  N6_29 
REMARK    8  A    between atoms: N6_29  and  C17_30 
REMARK    9  A    between atoms: N6_29  and  C19_33 
REMARK   10  A    between atoms: C17_30  and  C18_31 
REMARK   11  A    between atoms: C19_33  and  C20_34 
ROOT
HETATM    1  C1  UNL     1      41.457  18.848  38.926  1.00  0.00     0.054 C 
HETATM    2  C2  UNL     1      39.997  18.965  38.664  1.00  0.00    -0.002 A 
HETATM    3  C3  UNL     1      39.173  17.875  38.957  1.00  0.00     0.116 A 
HETATM    4  N1  UNL     1      37.844  17.886  38.755  1.00  0.00    -0.201 N 
ATOM      5  H1  UNL     1      37.280  17.068  38.983  1.00  0.00     0.183 HD
HETATM    6  C4  UNL     1      37.269  18.990  38.249  1.00  0.00     0.679 A 
HETATM    7  N3  UNL     1      38.025  20.038  37.963  1.00  0.00    -0.176 N 
ATOM      8  H3  UNL     1      37.568  20.866  37.580  1.00  0.00     0.186 HD
HETATM    9  C13 UNL     1      39.391  20.084  38.148  1.00  0.00     0.124 A 
HETATM   10  N4  UNL     1      39.992  21.130  37.841  1.00  0.00    -0.374 N 
ATOM     11  H4  UNL     1      39.336  21.822  37.480  1.00  0.00     0.161 HD
ENDROOT
BRANCH  10  12
HETATM   12  C14 UNL     1      41.282  21.642  37.840  1.00  0.00     0.141 C 
BRANCH  12  13
HETATM   13  C15 UNL     1      41.622  22.411  36.558  1.00  0.00     0.144 C 
BRANCH  13  14
HETATM   14  N5  UNL     1      42.592  21.741  35.742  1.00  0.00    -0.341 N 
HETATM   15  C16 UNL     1      43.852  22.211  35.352  1.00  0.00     0.318 C 
HETATM   16  O1  UNL     1      44.220  23.358  35.745  1.00  0.00    -0.247 OA
HETATM   17  N6  UNL     1      44.766  21.486  34.532  1.00  0.00    -0.332 N 
ATOM     18  H5  UNL     1      42.334  20.813  35.405  1.00  0.00     0.164 HD
BRANCH  17  19
HETATM   19  C17 UNL     1      44.487  20.163  34.017  1.00  0.00     0.142 C 
BRANCH  19  20
HETATM   20  C18 UNL     1      44.996  19.091  34.983  1.00  0.00     0.134 C 
HETATM   21 CL1  UNL     1      43.618  18.327  35.805  1.00  0.00    -0.129 Cl
ENDBRANCH  19  20
ENDBRANCH  17  19
BRANCH  17  22
HETATM   22  C19 UNL     1      46.029  22.071  34.168  1.00  0.00     0.142 C 
BRANCH  22  23
HETATM   23  C20 UNL     1      46.207  22.353  32.714  1.00  0.00     0.134 C 
HETATM   24 CL2  UNL     1      45.069  23.525  32.045  1.00  0.00    -0.129 Cl
ENDBRANCH  22  23
ENDBRANCH  17  22
ENDBRANCH  13  14
ENDBRANCH  12  13
ENDBRANCH  10  12
BRANCH   6  25
HETATM   25  N2  UNL     1      35.978  19.053  38.033  1.00  0.00    -0.226 N 
ATOM     26  H2  UNL     1      35.623  19.761  37.392  1.00  0.00     0.177 HD
BRANCH  25  27
HETATM   27  C5  UNL     1      35.049  18.169  38.661  1.00  0.00     0.142 C 
BRANCH  27  28
HETATM   28  C6  UNL     1      34.587  18.701  40.023  1.00  0.00     0.058 C 
BRANCH  28  29
HETATM   29  C7  UNL     1      34.502  17.552  40.960  1.00  0.00    -0.057 A 
HETATM   30  C8  UNL     1      33.269  16.918  41.146  1.00  0.00     0.010 A 
HETATM   31  C9  UNL     1      33.186  15.853  42.014  1.00  0.00     0.043 A 
HETATM   32  C10 UNL     1      34.269  15.374  42.717  1.00  0.00     0.116 A 
HETATM   33  F1  UNL     1      34.181  14.324  43.570  1.00  0.00    -0.206 F 
HETATM   34  C11 UNL     1      35.478  16.005  42.527  1.00  0.00     0.043 A 
HETATM   35  C12 UNL     1      35.585  17.072  41.664  1.00  0.00     0.010 A 
ENDBRANCH  28  29
ENDBRANCH  27  28
ENDBRANCH  25  27
ENDBRANCH   6  25
TORSDOF 11
ENDMDL
MODEL 3
REMARK VINA RESULT: -6.142802241      3.821      6.199
REMARK  11 active torsions:
REMARK  status: ('A' for Active; 'I' for Inactive)
REMARK    1  A    between atoms: C4_6  and  N2_7 
REMARK    2  A    between atoms: N2_7  and  C5_9 
REMARK    3  A    between atoms: C5_9  and  C6_10 
REMARK    4  A    between atoms: C6_10  and  C7_11 
REMARK    5  A    between atoms: N4_21  and  C14_23 
REMARK    6  A    between atoms: C14_23  and  C15_24 
REMARK    7  A    between atoms: C15_24  and  N5_25 
REMARK       I    between atoms: N5_25  and  C16_27 
REMARK       I    between atoms: C16_27  and  N6_29 
REMARK    8  A    between atoms: N6_29  and  C17_30 
REMARK    9  A    between atoms: N6_29  and  C19_33 
REMARK   10  A    between atoms: C17_30  and  C18_31 
REMARK   11  A    between atoms: C19_33  and  C20_34 
ROOT
HETATM    1  C1  UNL     1      41.532  19.488  38.475  1.00  0.00     0.054 C 
HETATM    2  C2  UNL     1      40.063  19.437  38.241  1.00  0.00    -0.002 A 
HETATM    3  C3  UNL     1      39.417  18.199  38.293  1.00  0.00     0.116 A 
HETATM    4  N1  UNL     1      38.096  18.053  38.095  1.00  0.00    -0.201 N 
ATOM      5  H1  UNL     1      37.666  17.130  38.141  1.00  0.00     0.183 HD
HETATM    6  C4  UNL     1      37.349  19.140  37.835  1.00  0.00     0.679 A 
HETATM    7  N3  UNL     1      37.934  20.326  37.782  1.00  0.00    -0.176 N 
ATOM      8  H3  UNL     1      37.349  21.138  37.584  1.00  0.00     0.186 HD
HETATM    9  C13 UNL     1      39.284  20.536  37.975  1.00  0.00     0.124 A 
HETATM   10  N4  UNL     1      39.715  21.702  37.900  1.00  0.00    -0.374 N 
ATOM     11  H4  UNL     1      38.953  22.349  37.694  1.00  0.00     0.161 HD
ENDROOT
BRANCH  10  12
HETATM   12  C14 UNL     1      40.915  22.390  38.012  1.00  0.00     0.141 C 
BRANCH  12  13
HETATM   13  C15 UNL     1      41.379  23.006  36.686  1.00  0.00     0.144 C 
BRANCH  13  14
HETATM   14  N5  UNL     1      42.651  22.509  36.250  1.00  0.00    -0.341 N 
HETATM   15  C16 UNL     1      42.906  21.355  35.502  1.00  0.00     0.318 C 
HETATM   16  O1  UNL     1      41.927  20.634  35.144  1.00  0.00    -0.247 OA
HETATM   17  N6  UNL     1      44.206  20.920  35.106  1.00  0.00    -0.332 N 
ATOM     18  H5  UNL     1      43.466  23.062  36.517  1.00  0.00     0.164 HD
BRANCH  17  19
HETATM   19  C17 UNL     1      45.415  21.644  35.434  1.00  0.00     0.142 C 
BRANCH  19  20
HETATM   20  C18 UNL     1      46.231  21.927  34.170  1.00  0.00     0.134 C 
HETATM   21 CL1  UNL     1      45.307  22.996  33.093  1.00  0.00    -0.129 Cl
ENDBRANCH  19  20
ENDBRANCH  17  19
BRANCH  17  22
HETATM   22  C19 UNL     1      44.362  19.701  34.358  1.00  0.00     0.142 C 
BRANCH  22  23
HETATM   23  C20 UNL     1      44.870  18.534  35.134  1.00  0.00     0.134 C 
HETATM   24 CL2  UNL     1      43.652  17.715  36.115  1.00  0.00    -0.129 Cl
ENDBRANCH  22  23
ENDBRANCH  17  22
ENDBRANCH  13  14
ENDBRANCH  12  13
ENDBRANCH  10  12
BRANCH   6  25
HETATM   25  N2  UNL     1      36.058  19.053  37.636  1.00  0.00    -0.226 N 
ATOM     26  H2  UNL     1      35.633  19.639  36.917  1.00  0.00     0.177 HD
BRANCH  25  27
HETATM   27  C5  UNL     1      35.221  18.171  38.384  1.00  0.00     0.142 C 
BRANCH  27  28
HETATM   28  C6  UNL     1      35.148  18.571  39.863  1.00  0.00     0.058 C 
BRANCH  28  29
HETATM   29  C7  UNL     1      35.440  17.367  40.680  1.00  0.00    -0.057 A 
HETATM   30  C8  UNL     1      35.724  16.160  40.033  1.00  0.00     0.010 A 
HETATM   31  C9  UNL     1      35.995  15.041  40.787  1.00  0.00     0.043 A 
HETATM   32  C10 UNL     1      36.000  15.049  42.164  1.00  0.00     0.116 A 
HETATM   33  F1  UNL     1      36.268  13.944  42.901  1.00  0.00    -0.206 F 
HETATM   34  C11 UNL     1      35.720  16.243  42.792  1.00  0.00     0.043 A 
HETATM   35  C12 UNL     1      35.446  17.374  42.059  1.00  0.00     0.010 A 
ENDBRANCH  28  29
ENDBRANCH  27  28
ENDBRANCH  25  27
ENDBRANCH   6  25
TORSDOF 11
ENDMDL
MODEL 4
REMARK VINA RESULT: -6.093780917      3.218      5.797
REMARK  11 active torsions:
REMARK  status: ('A' for Active; 'I' for Inactive)
REMARK    1  A    between atoms: C4_6  and  N2_7 
REMARK    2  A    between atoms: N2_7  and  C5_9 
REMARK    3  A    between atoms: C5_9  and  C6_10 
REMARK    4  A    between atoms: C6_10  and  C7_11 
REMARK    5  A    between atoms: N4_21  and  C14_23 
REMARK    6  A    between atoms: C14_23  and  C15_24 
REMARK    7  A    between atoms: C15_24  and  N5_25 
REMARK       I    between atoms: N5_25  and  C16_27 
REMARK       I    between atoms: C16_27  and  N6_29 
REMARK    8  A    between atoms: N6_29  and  C17_30 
REMARK    9  A    between atoms: N6_29  and  C19_33 
REMARK   10  A    between atoms: C17_30  and  C18_31 
REMARK   11  A    between atoms: C19_33  and  C20_34 
ROOT
HETATM    1  C1  UNL     1      46.361  16.646  34.026  1.00  0.00     0.054 C 
HETATM    2  C2  UNL     1      45.662  16.236  35.274  1.00  0.00    -0.002 A 
HETATM    3  C3  UNL     1      46.173  15.161  36.007  1.00  0.00     0.116 A 
HETATM    4  N1  UNL     1      45.611  14.718  37.144  1.00  0.00    -0.201 N 
ATOM      5  H1  UNL     1      46.017  13.929  37.648  1.00  0.00     0.183 HD
HETATM    6  C4  UNL     1      44.507  15.327  37.610  1.00  0.00     0.679 A 
HETATM    7  N3  UNL     1      44.002  16.348  36.936  1.00  0.00    -0.176 N 
ATOM      8  H3  UNL     1      43.164  16.796  37.308  1.00  0.00     0.186 HD
HETATM    9  C13 UNL     1      44.534  16.845  35.765  1.00  0.00     0.124 A 
HETATM   10  N4  UNL     1      43.966  17.813  35.225  1.00  0.00    -0.374 N 
ATOM     11  H4  UNL     1      43.151  18.095  35.770  1.00  0.00     0.161 HD
ENDROOT
BRANCH  10  12
HETATM   12  C14 UNL     1      44.104  18.626  34.108  1.00  0.00     0.141 C 
BRANCH  12  13
HETATM   13  C15 UNL     1      43.916  20.115  34.422  1.00  0.00     0.144 C 
BRANCH  13  14
HETATM   14  N5  UNL     1      42.656  20.404  35.041  1.00  0.00    -0.341 N 
HETATM   15  C16 UNL     1      42.400  21.318  36.069  1.00  0.00     0.318 C 
HETATM   16  O1  UNL     1      43.365  21.993  36.537  1.00  0.00    -0.247 OA
HETATM   17  N6  UNL     1      41.114  21.550  36.640  1.00  0.00    -0.332 N 
ATOM     18  H5  UNL     1      41.852  19.882  34.692  1.00  0.00     0.164 HD
BRANCH  17  19
HETATM   19  C17 UNL     1      39.918  20.862  36.204  1.00  0.00     0.142 C 
BRANCH  19  20
HETATM   20  C18 UNL     1      38.746  21.177  37.135  1.00  0.00     0.134 C 
HETATM   21 CL1  UNL     1      37.217  20.757  36.331  1.00  0.00    -0.129 Cl
ENDBRANCH  19  20
ENDBRANCH  17  19
BRANCH  17  22
HETATM   22  C19 UNL     1      40.962  22.497  37.714  1.00  0.00     0.142 C 
BRANCH  22  23
HETATM   23  C20 UNL     1      40.874  23.927  37.298  1.00  0.00     0.134 C 
HETATM   24 CL2  UNL     1      40.490  25.051  38.603  1.00  0.00    -0.129 Cl
ENDBRANCH  22  23
ENDBRANCH  17  22
ENDBRANCH  13  14
ENDBRANCH  12  13
ENDBRANCH  10  12
BRANCH   6  25
HETATM   25  N2  UNL     1      43.921  14.935  38.714  1.00  0.00    -0.226 N 
ATOM     26  H2  UNL     1      44.274  14.103  39.187  1.00  0.00     0.177 HD
BRANCH  25  27
HETATM   27  C5  UNL     1      42.807  15.625  39.281  1.00  0.00     0.142 C 
BRANCH  27  28
HETATM   28  C6  UNL     1      41.475  14.971  38.898  1.00  0.00     0.058 C 
BRANCH  28  29
HETATM   29  C7  UNL     1      40.420  16.014  38.947  1.00  0.00    -0.057 A 
HETATM   30  C8  UNL     1      40.792  17.348  39.142  1.00  0.00     0.010 A 
HETATM   31  C9  UNL     1      39.818  18.318  39.189  1.00  0.00     0.043 A 
HETATM   32  C10 UNL     1      38.476  18.038  39.053  1.00  0.00     0.116 A 
HETATM   33  F1  UNL     1      37.520  18.998  39.099  1.00  0.00    -0.206 F 
HETATM   34  C11 UNL     1      38.119  16.722  38.861  1.00  0.00     0.043 A 
HETATM   35  C12 UNL     1      39.076  15.735  38.810  1.00  0.00     0.010 A 
ENDBRANCH  28  29
ENDBRANCH  27  28
ENDBRANCH  25  27
ENDBRANCH   6  25
TORSDOF 11
ENDMDL
MODEL 5
REMARK VINA RESULT: -6.055476119      4.933      7.242
REMARK  11 active torsions:
REMARK  status: ('A' for Active; 'I' for Inactive)
REMARK    1  A    between atoms: C4_6  and  N2_7 
REMARK    2  A    between atoms: N2_7  and  C5_9 
REMARK    3  A    between atoms: C5_9  and  C6_10 
REMARK    4  A    between atoms: C6_10  and  C7_11 
REMARK    5  A    between atoms: N4_21  and  C14_23 
REMARK    6  A    between atoms: C14_23  and  C15_24 
REMARK    7  A    between atoms: C15_24  and  N5_25 
REMARK       I    between atoms: N5_25  and  C16_27 
REMARK       I    between atoms: C16_27  and  N6_29 
REMARK    8  A    between atoms: N6_29  and  C17_30 
REMARK    9  A    between atoms: N6_29  and  C19_33 
REMARK   10  A    between atoms: C17_30  and  C18_31 
REMARK   11  A    between atoms: C19_33  and  C20_34 
ROOT
HETATM    1  C1  UNL     1      41.617  18.986  38.828  1.00  0.00     0.054 C 
HETATM    2  C2  UNL     1      40.146  19.031  38.607  1.00  0.00    -0.002 A 
HETATM    3  C3  UNL     1      39.394  17.881  38.856  1.00  0.00     0.116 A 
HETATM    4  N1  UNL     1      38.062  17.825  38.685  1.00  0.00    -0.201 N 
ATOM      5  H1  UNL     1      37.552  16.963  38.879  1.00  0.00     0.183 HD
HETATM    6  C4  UNL     1      37.411  18.919  38.255  1.00  0.00     0.679 A 
HETATM    7  N3  UNL     1      38.099  20.024  38.012  1.00  0.00    -0.176 N 
ATOM      8  H3  UNL     1      37.585  20.843  37.687  1.00  0.00     0.186 HD
HETATM    9  C13 UNL     1      39.464  20.139  38.169  1.00  0.00     0.124 A 
HETATM   10  N4  UNL     1      39.996  21.235  37.908  1.00  0.00    -0.374 N 
ATOM     11  H4  UNL     1      39.292  21.906  37.601  1.00  0.00     0.161 HD
ENDROOT
BRANCH  10  12
HETATM   12  C14 UNL     1      41.254  21.821  37.906  1.00  0.00     0.141 C 
BRANCH  12  13
HETATM   13  C15 UNL     1      41.621  22.452  36.558  1.00  0.00     0.144 C 
BRANCH  13  14
HETATM   14  N5  UNL     1      42.616  21.709  35.842  1.00  0.00    -0.341 N 
HETATM   15  C16 UNL     1      43.872  22.154  35.414  1.00  0.00     0.318 C 
HETATM   16  O1  UNL     1      44.212  23.348  35.669  1.00  0.00    -0.247 OA
HETATM   17  N6  UNL     1      44.812  21.355  34.699  1.00  0.00    -0.332 N 
ATOM     18  H5  UNL     1      42.381  20.742  35.618  1.00  0.00     0.164 HD
BRANCH  17  19
HETATM   19  C17 UNL     1      44.566  19.973  34.345  1.00  0.00     0.142 C 
BRANCH  19  20
HETATM   20  C18 UNL     1      45.615  19.060  34.984  1.00  0.00     0.134 C 
HETATM   21 CL1  UNL     1      44.814  17.643  35.698  1.00  0.00    -0.129 Cl
ENDBRANCH  19  20
ENDBRANCH  17  19
BRANCH  17  22
HETATM   22  C19 UNL     1      46.068  21.918  34.282  1.00  0.00     0.142 C 
BRANCH  22  23
HETATM   23  C20 UNL     1      46.209  22.153  32.816  1.00  0.00     0.134 C 
HETATM   24 CL2  UNL     1      45.269  23.512  32.194  1.00  0.00    -0.129 Cl
ENDBRANCH  22  23
ENDBRANCH  17  22
ENDBRANCH  13  14
ENDBRANCH  12  13
ENDBRANCH  10  12
BRANCH   6  25
HETATM   25  N2  UNL     1      36.114  18.918  38.072  1.00  0.00    -0.226 N 
ATOM     26  H2  UNL     1      35.707  19.613  37.447  1.00  0.00     0.177 HD
BRANCH  25  27
HETATM   27  C5  UNL     1      35.247  17.982  38.715  1.00  0.00     0.142 C 
BRANCH  27  28
HETATM   28  C6  UNL     1      35.005  18.345  40.185  1.00  0.00     0.058 C 
BRANCH  28  29
HETATM   29  C7  UNL     1      33.602  17.994  40.519  1.00  0.00    -0.057 A 
HETATM   30  C8  UNL     1      32.569  18.475  39.709  1.00  0.00     0.010 A 
HETATM   31  C9  UNL     1      31.267  18.152  40.016  1.00  0.00     0.043 A 
HETATM   32  C10 UNL     1      30.925  17.368  41.096  1.00  0.00     0.116 A 
HETATM   33  F1  UNL     1      29.641  17.052  41.393  1.00  0.00    -0.206 F 
HETATM   34  C11 UNL     1      31.949  16.898  41.888  1.00  0.00     0.043 A 
HETATM   35  C12 UNL     1      33.259  17.208  41.600  1.00  0.00     0.010 A 
ENDBRANCH  28  29
ENDBRANCH  27  28
ENDBRANCH  25  27
ENDBRANCH   6  25
TORSDOF 11
ENDMDL
