MODEL 1
REMARK VINA RESULT: -6.354012316      0.000      0.000
REMARK  9 active torsions:
REMARK  status: ('A' for Active; 'I' for Inactive)
REMARK    1  A    between atoms: C1_2  and  C2_3 
REMARK       I    between atoms: C1_2  and  N2_10 
REMARK    2  A    between atoms: C2_3  and  C3_4 
REMARK    3  A    between atoms: N2_10  and  C6_12 
REMARK    4  A    between atoms: C6_12  and  C7_13 
REMARK    5  A    between atoms: C7_13  and  O2_14 
REMARK    6  A    between atoms: O2_14  and  C8_15 
REMARK    7  A    between atoms: C8_15  and  C9_16 
REMARK    8  A    between atoms: C9_16  and  N3_17 
REMARK       I    between atoms: N3_17  and  C10_19 
REMARK    9  A    between atoms: C10_19  and  C11_21 
ROOT
HETATM    1  O2  UNL     1      39.445  22.017  36.919  1.00  0.00    -0.388 OA
ENDROOT
BRANCH   1   2
HETATM    2  C7  UNL     1      38.880  20.985  37.617  1.00  0.00     0.187 C 
BRANCH   2   3
HETATM    3  C6  UNL     1      39.404  19.683  37.071  1.00  0.00     0.148 C 
BRANCH   3   4
HETATM    4  N2  UNL     1      39.970  18.849  38.113  1.00  0.00    -0.359 N 
HETATM    5  C1  UNL     1      41.347  18.861  38.442  1.00  0.00     0.219 C 
HETATM    6  O1  UNL     1      42.128  19.622  37.811  1.00  0.00    -0.274 OA
ATOM      7  H2  UNL     1      39.350  18.228  38.632  1.00  0.00     0.162 HD
BRANCH   5   8
HETATM    8  C2  UNL     1      41.872  17.992  39.511  1.00  0.00     0.128 C 
BRANCH   8   9
HETATM    9  C3  UNL     1      41.780  16.549  39.102  1.00  0.00     0.100 A 
HETATM   10  C4  UNL     1      42.797  15.668  39.733  1.00  0.00     0.115 A 
HETATM   11  C5  UNL     1      43.414  15.539  38.409  1.00  0.00     0.163 A 
HETATM   12  F1  UNL     1      44.493  14.885  37.903  1.00  0.00    -0.191 F 
HETATM   13  N1  UNL     1      42.518  16.300  37.919  1.00  0.00    -0.365 N 
ATOM     14  H1  UNL     1      42.374  16.630  36.965  1.00  0.00     0.162 HD
ENDBRANCH   8   9
ENDBRANCH   5   8
ENDBRANCH   3   4
ENDBRANCH   2   3
ENDBRANCH   1   2
BRANCH   1  15
HETATM   15  C8  UNL     1      40.263  22.832  37.692  1.00  0.00     0.187 C 
BRANCH  15  16
HETATM   16  C9  UNL     1      41.501  23.269  36.943  1.00  0.00     0.149 C 
BRANCH  16  17
HETATM   17  N3  UNL     1      42.067  22.109  36.283  1.00  0.00    -0.354 N 
HETATM   18  C10 UNL     1      43.326  22.211  35.638  1.00  0.00     0.268 C 
HETATM   19  O3  UNL     1      43.978  23.297  35.622  1.00  0.00    -0.266 OA
ATOM     20  H3  UNL     1      41.561  21.223  36.281  1.00  0.00     0.162 HD
BRANCH  18  21
HETATM   21  C11 UNL     1      43.928  21.068  34.964  1.00  0.00     0.102 A 
HETATM   22  C12 UNL     1      44.512  21.006  33.735  1.00  0.00     0.057 A 
HETATM   23  C13 UNL     1      44.945  19.722  33.501  1.00  0.00     0.047 A 
HETATM   24 BR1  UNL     1      45.833  19.064  31.944  1.00  0.00    -0.048 Br
HETATM   25  C14 UNL     1      44.607  19.000  34.624  1.00  0.00     0.098 A 
HETATM   26 BR2  UNL     1      44.936  17.150  34.925  1.00  0.00    -0.030 Br
HETATM   27  N4  UNL     1      43.997  19.822  35.494  1.00  0.00    -0.345 N 
ATOM     28  H4  UNL     1      43.641  19.551  36.411  1.00  0.00     0.167 HD
ENDBRANCH  18  21
ENDBRANCH  16  17
ENDBRANCH  15  16
ENDBRANCH   1  15
TORSDOF 9
ENDMDL
MODEL 2
REMARK VINA RESULT: -6.263729884      5.502      8.878
REMARK  9 active torsions:
REMARK  status: ('A' for Active; 'I' for Inactive)
REMARK    1  A    between atoms: C1_2  and  C2_3 
REMARK       I    between atoms: C1_2  and  N2_10 
REMARK    2  A    between atoms: C2_3  and  C3_4 
REMARK    3  A    between atoms: N2_10  and  C6_12 
REMARK    4  A    between atoms: C6_12  and  C7_13 
REMARK    5  A    between atoms: C7_13  and  O2_14 
REMARK    6  A    between atoms: O2_14  and  C8_15 
REMARK    7  A    between atoms: C8_15  and  C9_16 
REMARK    8  A    between atoms: C9_16  and  N3_17 
REMARK       I    between atoms: N3_17  and  C10_19 
REMARK    9  A    between atoms: C10_19  and  C11_21 
ROOT
HETATM    1  O2  UNL     1      41.959  21.602  37.501  1.00  0.00    -0.388 OA
ENDROOT
BRANCH   1   2
HETATM    2  C7  UNL     1      42.043  21.452  36.144  1.00  0.00     0.187 C 
BRANCH   2   3
HETATM    3  C6  UNL     1      43.496  21.438  35.744  1.00  0.00     0.148 C 
BRANCH   3   4
HETATM    4  N2  UNL     1      43.665  21.626  34.317  1.00  0.00    -0.359 N 
HETATM    5  C1  UNL     1      44.647  22.483  33.767  1.00  0.00     0.219 C 
HETATM    6  O1  UNL     1      45.416  23.118  34.537  1.00  0.00    -0.274 OA
ATOM      7  H2  UNL     1      43.049  21.118  33.682  1.00  0.00     0.162 HD
BRANCH   5   8
HETATM    8  C2  UNL     1      44.777  22.640  32.307  1.00  0.00     0.128 C 
BRANCH   8   9
HETATM    9  C3  UNL     1      45.710  23.773  31.986  1.00  0.00     0.100 A 
HETATM   10  C4  UNL     1      45.957  23.971  30.534  1.00  0.00     0.115 A 
HETATM   11  C5  UNL     1      47.326  23.501  30.767  1.00  0.00     0.163 A 
HETATM   12  F1  UNL     1      48.426  23.303  29.994  1.00  0.00    -0.191 F 
HETATM   13  N1  UNL     1      47.061  23.349  32.004  1.00  0.00    -0.365 N 
ATOM     14  H1  UNL     1      47.645  23.022  32.773  1.00  0.00     0.162 HD
ENDBRANCH   8   9
ENDBRANCH   5   8
ENDBRANCH   3   4
ENDBRANCH   2   3
ENDBRANCH   1   2
BRANCH   1  15
HETATM   15  C8  UNL     1      40.669  21.843  37.956  1.00  0.00     0.187 C 
BRANCH  15  16
HETATM   16  C9  UNL     1      39.626  21.169  37.092  1.00  0.00     0.149 C 
BRANCH  16  17
HETATM   17  N3  UNL     1      38.558  20.698  37.951  1.00  0.00    -0.354 N 
HETATM   18  C10 UNL     1      38.226  19.319  37.970  1.00  0.00     0.268 C 
HETATM   19  O3  UNL     1      38.842  18.478  37.250  1.00  0.00    -0.266 OA
ATOM     20  H3  UNL     1      38.046  21.356  38.539  1.00  0.00     0.162 HD
BRANCH  18  21
HETATM   21  C11 UNL     1      37.158  18.808  38.820  1.00  0.00     0.102 A 
HETATM   22  C12 UNL     1      37.239  18.259  40.063  1.00  0.00     0.057 A 
HETATM   23  C13 UNL     1      35.978  17.914  40.492  1.00  0.00     0.047 A 
HETATM   24 BR1  UNL     1      35.501  17.108  42.156  1.00  0.00    -0.048 Br
HETATM   25  C14 UNL     1      35.124  18.270  39.472  1.00  0.00     0.098 A 
HETATM   26 BR2  UNL     1      33.233  18.053  39.449  1.00  0.00    -0.030 Br
HETATM   27  N4  UNL     1      35.847  18.806  38.475  1.00  0.00    -0.345 N 
ATOM     28  H4  UNL     1      35.469  19.156  37.595  1.00  0.00     0.167 HD
ENDBRANCH  18  21
ENDBRANCH  16  17
ENDBRANCH  15  16
ENDBRANCH   1  15
TORSDOF 9
ENDMDL
MODEL 3
REMARK VINA RESULT: -6.104303722      3.280      5.687
REMARK  9 active torsions:
REMARK  status: ('A' for Active; 'I' for Inactive)
REMARK    1  A    between atoms: C1_2  and  C2_3 
REMARK       I    between atoms: C1_2  and  N2_10 
REMARK    2  A    between atoms: C2_3  and  C3_4 
REMARK    3  A    between atoms: N2_10  and  C6_12 
REMARK    4  A    between atoms: C6_12  and  C7_13 
REMARK    5  A    between atoms: C7_13  and  O2_14 
REMARK    6  A    between atoms: O2_14  and  C8_15 
REMARK    7  A    between atoms: C8_15  and  C9_16 
REMARK    8  A    between atoms: C9_16  and  N3_17 
REMARK       I    between atoms: N3_17  and  C10_19 
REMARK    9  A    between atoms: C10_19  and  C11_21 
ROOT
HETATM    1  O2  UNL     1      43.849  15.802  37.669  1.00  0.00    -0.388 OA
ENDROOT
BRANCH   1   2
HETATM    2  C7  UNL     1      43.178  15.374  38.782  1.00  0.00     0.187 C 
BRANCH   2   3
HETATM    3  C6  UNL     1      42.411  16.532  39.364  1.00  0.00     0.148 C 
BRANCH   3   4
HETATM    4  N2  UNL     1      42.400  17.675  38.473  1.00  0.00    -0.359 N 
HETATM    5  C1  UNL     1      41.640  18.841  38.729  1.00  0.00     0.219 C 
HETATM    6  O1  UNL     1      40.937  18.906  39.773  1.00  0.00    -0.274 OA
ATOM      7  H2  UNL     1      42.964  17.637  37.625  1.00  0.00     0.162 HD
BRANCH   5   8
HETATM    8  C2  UNL     1      41.664  19.977  37.789  1.00  0.00     0.128 C 
BRANCH   8   9
HETATM    9  C3  UNL     1      40.721  21.052  38.247  1.00  0.00     0.100 A 
HETATM   10  C4  UNL     1      39.905  21.655  37.162  1.00  0.00     0.115 A 
HETATM   11  C5  UNL     1      40.685  22.884  37.345  1.00  0.00     0.163 A 
HETATM   12  F1  UNL     1      40.697  24.117  36.773  1.00  0.00    -0.191 F 
HETATM   13  N1  UNL     1      41.355  22.319  38.270  1.00  0.00    -0.365 N 
ATOM     14  H1  UNL     1      42.115  22.671  38.850  1.00  0.00     0.162 HD
ENDBRANCH   8   9
ENDBRANCH   5   8
ENDBRANCH   3   4
ENDBRANCH   2   3
ENDBRANCH   1   2
BRANCH   1  15
HETATM   15  C8  UNL     1      44.658  14.828  37.097  1.00  0.00     0.187 C 
BRANCH  15  16
HETATM   16  C9  UNL     1      45.828  15.429  36.351  1.00  0.00     0.149 C 
BRANCH  16  17
HETATM   17  N3  UNL     1      45.509  16.806  36.036  1.00  0.00    -0.354 N 
HETATM   18  C10 UNL     1      46.160  17.449  34.951  1.00  0.00     0.268 C 
HETATM   19  O3  UNL     1      47.021  16.848  34.243  1.00  0.00    -0.266 OA
ATOM     20  H3  UNL     1      44.820  17.313  36.591  1.00  0.00     0.162 HD
BRANCH  18  21
HETATM   21  C11 UNL     1      45.866  18.834  34.603  1.00  0.00     0.102 A 
HETATM   22  C12 UNL     1      46.420  19.611  33.632  1.00  0.00     0.057 A 
HETATM   23  C13 UNL     1      45.839  20.857  33.660  1.00  0.00     0.047 A 
HETATM   24 BR1  UNL     1      46.229  22.342  32.525  1.00  0.00    -0.048 Br
HETATM   25  C14 UNL     1      44.912  20.818  34.678  1.00  0.00     0.098 A 
HETATM   26 BR2  UNL     1      43.770  22.238  35.227  1.00  0.00    -0.030 Br
HETATM   27  N4  UNL     1      44.940  19.596  35.235  1.00  0.00    -0.345 N 
ATOM     28  H4  UNL     1      44.355  19.290  36.013  1.00  0.00     0.167 HD
ENDBRANCH  18  21
ENDBRANCH  16  17
ENDBRANCH  15  16
ENDBRANCH   1  15
TORSDOF 9
ENDMDL
MODEL 4
REMARK VINA RESULT: -6.101816292      4.876      7.349
REMARK  9 active torsions:
REMARK  status: ('A' for Active; 'I' for Inactive)
REMARK    1  A    between atoms: C1_2  and  C2_3 
REMARK       I    between atoms: C1_2  and  N2_10 
REMARK    2  A    between atoms: C2_3  and  C3_4 
REMARK    3  A    between atoms: N2_10  and  C6_12 
REMARK    4  A    between atoms: C6_12  and  C7_13 
REMARK    5  A    between atoms: C7_13  and  O2_14 
REMARK    6  A    between atoms: O2_14  and  C8_15 
REMARK    7  A    between atoms: C8_15  and  C9_16 
REMARK    8  A    between atoms: C9_16  and  N3_17 
REMARK       I    between atoms: N3_17  and  C10_19 
REMARK    9  A    between atoms: C10_19  and  C11_21 
ROOT
HETATM    1  O2  UNL     1      38.895  21.561  36.481  1.00  0.00    -0.388 OA
ENDROOT
BRANCH   1   2
HETATM    2  C7  UNL     1      39.383  21.630  37.758  1.00  0.00     0.187 C 
BRANCH   2   3
HETATM    3  C6  UNL     1      40.860  21.335  37.732  1.00  0.00     0.148 C 
BRANCH   3   4
HETATM    4  N2  UNL     1      41.227  20.328  38.707  1.00  0.00    -0.359 N 
HETATM    5  C1  UNL     1      41.520  18.989  38.355  1.00  0.00     0.219 C 
HETATM    6  O1  UNL     1      41.464  18.640  37.146  1.00  0.00    -0.274 OA
ATOM      7  H2  UNL     1      41.276  20.596  39.690  1.00  0.00     0.162 HD
BRANCH   5   8
HETATM    8  C2  UNL     1      41.887  18.002  39.387  1.00  0.00     0.128 C 
BRANCH   8   9
HETATM    9  C3  UNL     1      41.813  16.610  38.827  1.00  0.00     0.100 A 
HETATM   10  C4  UNL     1      42.477  15.577  39.662  1.00  0.00     0.115 A 
HETATM   11  C5  UNL     1      43.490  15.466  38.608  1.00  0.00     0.163 A 
HETATM   12  F1  UNL     1      44.615  14.727  38.420  1.00  0.00    -0.191 F 
HETATM   13  N1  UNL     1      42.880  16.357  37.931  1.00  0.00    -0.365 N 
ATOM     14  H1  UNL     1      43.095  16.764  37.022  1.00  0.00     0.162 HD
ENDBRANCH   8   9
ENDBRANCH   5   8
ENDBRANCH   3   4
ENDBRANCH   2   3
ENDBRANCH   1   2
BRANCH   1  15
HETATM   15  C8  UNL     1      38.507  20.283  36.101  1.00  0.00     0.187 C 
BRANCH  15  16
HETATM   16  C9  UNL     1      37.012  20.179  35.898  1.00  0.00     0.149 C 
BRANCH  16  17
HETATM   17  N3  UNL     1      36.405  19.820  37.164  1.00  0.00    -0.354 N 
HETATM   18  C10 UNL     1      36.036  18.473  37.411  1.00  0.00     0.268 C 
HETATM   19  O3  UNL     1      36.225  17.564  36.548  1.00  0.00    -0.266 OA
ATOM     20  H3  UNL     1      36.242  20.533  37.875  1.00  0.00     0.162 HD
BRANCH  18  21
HETATM   21  C11 UNL     1      35.423  18.073  38.671  1.00  0.00     0.102 A 
HETATM   22  C12 UNL     1      34.111  17.840  38.950  1.00  0.00     0.057 A 
HETATM   23  C13 UNL     1      33.984  17.483  40.273  1.00  0.00     0.047 A 
HETATM   24 BR1  UNL     1      32.376  17.045  41.205  1.00  0.00    -0.048 Br
HETATM   25  C14 UNL     1      35.259  17.505  40.793  1.00  0.00     0.098 A 
HETATM   26 BR2  UNL     1      35.760  17.104  42.584  1.00  0.00    -0.030 Br
HETATM   27  N4  UNL     1      36.112  17.861  39.818  1.00  0.00    -0.345 N 
ATOM     28  H4  UNL     1      37.122  17.957  39.926  1.00  0.00     0.167 HD
ENDBRANCH  18  21
ENDBRANCH  16  17
ENDBRANCH  15  16
ENDBRANCH   1  15
TORSDOF 9
ENDMDL
MODEL 5
REMARK VINA RESULT: -6.091455775      4.568      8.173
REMARK  9 active torsions:
REMARK  status: ('A' for Active; 'I' for Inactive)
REMARK    1  A    between atoms: C1_2  and  C2_3 
REMARK       I    between atoms: C1_2  and  N2_10 
REMARK    2  A    between atoms: C2_3  and  C3_4 
REMARK    3  A    between atoms: N2_10  and  C6_12 
REMARK    4  A    between atoms: C6_12  and  C7_13 
REMARK    5  A    between atoms: C7_13  and  O2_14 
REMARK    6  A    between atoms: O2_14  and  C8_15 
REMARK    7  A    between atoms: C8_15  and  C9_16 
REMARK    8  A    between atoms: C9_16  and  N3_17 
REMARK       I    between atoms: N3_17  and  C10_19 
REMARK    9  A    between atoms: C10_19  and  C11_21 
ROOT
HETATM    1  O2  UNL     1      42.807  21.957  36.730  1.00  0.00    -0.388 OA
ENDROOT
BRANCH   1   2
HETATM    2  C7  UNL     1      43.244  21.751  35.450  1.00  0.00     0.187 C 
BRANCH   2   3
HETATM    3  C6  UNL     1      44.585  22.416  35.279  1.00  0.00     0.148 C 
BRANCH   3   4
HETATM    4  N2  UNL     1      44.853  22.741  33.893  1.00  0.00    -0.359 N 
HETATM    5  C1  UNL     1      46.062  22.395  33.244  1.00  0.00     0.219 C 
HETATM    6  O1  UNL     1      46.955  21.779  33.884  1.00  0.00    -0.274 OA
ATOM      7  H2  UNL     1      44.140  23.239  33.361  1.00  0.00     0.162 HD
BRANCH   5   8
HETATM    8  C2  UNL     1      46.286  22.749  31.830  1.00  0.00     0.128 C 
BRANCH   8   9
HETATM    9  C3  UNL     1      46.156  24.234  31.638  1.00  0.00     0.100 A 
HETATM   10  C4  UNL     1      45.591  24.635  30.324  1.00  0.00     0.115 A 
HETATM   11  C5  UNL     1      46.918  25.159  29.984  1.00  0.00     0.163 A 
HETATM   12  F1  UNL     1      47.469  25.776  28.905  1.00  0.00    -0.191 F 
HETATM   13  N1  UNL     1      47.352  24.794  31.126  1.00  0.00    -0.365 N 
ATOM     14  H1  UNL     1      48.278  24.880  31.544  1.00  0.00     0.162 HD
ENDBRANCH   8   9
ENDBRANCH   5   8
ENDBRANCH   3   4
ENDBRANCH   2   3
ENDBRANCH   1   2
BRANCH   1  15
HETATM   15  C8  UNL     1      41.638  22.704  36.806  1.00  0.00     0.187 C 
BRANCH  15  16
HETATM   16  C9  UNL     1      40.786  22.307  37.991  1.00  0.00     0.149 C 
BRANCH  16  17
HETATM   17  N3  UNL     1      41.069  20.923  38.312  1.00  0.00    -0.354 N 
HETATM   18  C10 UNL     1      40.039  19.953  38.214  1.00  0.00     0.268 C 
HETATM   19  O3  UNL     1      38.865  20.265  37.852  1.00  0.00    -0.266 OA
ATOM     20  H3  UNL     1      42.006  20.646  38.607  1.00  0.00     0.162 HD
BRANCH  18  21
HETATM   21  C11 UNL     1      40.284  18.551  38.529  1.00  0.00     0.102 A 
HETATM   22  C12 UNL     1      39.408  17.509  38.544  1.00  0.00     0.057 A 
HETATM   23  C13 UNL     1      40.075  16.359  38.898  1.00  0.00     0.047 A 
HETATM   24 BR1  UNL     1      39.343  14.604  39.077  1.00  0.00    -0.048 Br
HETATM   25  C14 UNL     1      41.386  16.730  39.098  1.00  0.00     0.098 A 
HETATM   26 BR2  UNL     1      42.822  15.591  39.607  1.00  0.00    -0.030 Br
HETATM   27  N4  UNL     1      41.496  18.050  38.872  1.00  0.00    -0.345 N 
ATOM     28  H4  UNL     1      42.358  18.591  38.947  1.00  0.00     0.167 HD
ENDBRANCH  18  21
ENDBRANCH  16  17
ENDBRANCH  15  16
ENDBRANCH   1  15
TORSDOF 9
ENDMDL
