MODEL 1
REMARK VINA RESULT: -6.032403558      0.000      0.000
REMARK  12 active torsions:
REMARK  status: ('A' for Active; 'I' for Inactive)
REMARK    1  A    between atoms: N3_4  and  C2_6 
REMARK    2  A    between atoms: C2_6  and  C3_7 
REMARK    3  A    between atoms: C3_7  and  C4_8 
REMARK    4  A    between atoms: C4_8  and  N4_9 
REMARK       I    between atoms: N4_9  and  C5_11 
REMARK    5  A    between atoms: C5_11  and  C6_13 
REMARK    6  A    between atoms: C6_13  and  C7_14 
REMARK    7  A    between atoms: C7_14  and  C8_15 
REMARK    8  A    between atoms: C8_15  and  C9_16 
REMARK    9  A    between atoms: C9_16  and  C10_17 
REMARK   10  A    between atoms: C10_17  and  N5_18 
REMARK   11  A    between atoms: N5_18  and  S1_20 
REMARK   12  A    between atoms: S1_20  and  C11_23 
ROOT
HETATM    1  C9  UNL     1      45.387  16.687  35.558  1.00  0.00     0.020 C 
ENDROOT
BRANCH   1   2
HETATM    2  C8  UNL     1      44.293  17.525  35.011  1.00  0.00     0.002 C 
BRANCH   2   3
HETATM    3  C7  UNL     1      43.451  18.181  36.035  1.00  0.00     0.009 C 
BRANCH   3   4
HETATM    4  C6  UNL     1      43.179  19.661  35.638  1.00  0.00     0.103 C 
BRANCH   4   5
HETATM    5  C5  UNL     1      42.456  20.272  36.771  1.00  0.00     0.217 C 
HETATM    6  N4  UNL     1      41.392  19.551  37.367  1.00  0.00    -0.361 N 
ATOM      7  H4  UNL     1      41.161  18.632  36.990  1.00  0.00     0.162 HD
HETATM    8  O1  UNL     1      42.804  21.408  37.169  1.00  0.00    -0.274 OA
BRANCH   6   9
HETATM    9  C4  UNL     1      40.620  20.047  38.480  1.00  0.00     0.124 C 
BRANCH   9  10
HETATM   10  C3  UNL     1      39.299  20.544  37.989  1.00  0.00     0.039 C 
BRANCH  10  11
HETATM   11  C2  UNL     1      39.389  21.984  37.495  1.00  0.00     0.123 C 
BRANCH  11  12
HETATM   12  N3  UNL     1      40.264  22.781  38.297  1.00  0.00    -0.367 N 
HETATM   13  C1  UNL     1      40.623  23.988  38.016  1.00  0.00     0.196 C 
HETATM   14  N1  UNL     1      40.120  24.573  36.836  1.00  0.00    -0.067 NA
HETATM   15  N2  UNL     1      41.501  24.643  38.921  1.00  0.00    -0.067 NA
ATOM     16  H3  UNL     1      40.632  22.366  39.153  1.00  0.00     0.161 HD
ENDBRANCH  11  12
ENDBRANCH  10  11
ENDBRANCH   9  10
ENDBRANCH   6   9
ENDBRANCH   4   5
ENDBRANCH   3   4
ENDBRANCH   2   3
ENDBRANCH   1   2
BRANCH   1  17
HETATM   17  C10 UNL     1      46.663  16.738  34.831  1.00  0.00     0.132 C 
BRANCH  17  18
HETATM   18  N5  UNL     1      47.459  17.916  34.929  1.00  0.00    -0.315 N 
ATOM     19  H5  UNL     1      47.890  18.271  35.783  1.00  0.00     0.172 HD
BRANCH  18  20
HETATM   20  S1  UNL     1      47.574  18.641  33.374  1.00  0.00     0.260 S 
HETATM   21  O2  UNL     1      47.227  17.600  32.348  1.00  0.00    -0.200 OA
HETATM   22  O3  UNL     1      48.988  19.120  33.207  1.00  0.00    -0.200 OA
BRANCH  20  23
HETATM   23  C11 UNL     1      46.446  19.974  33.306  1.00  0.00     0.104 A 
HETATM   24  C12 UNL     1      45.598  20.162  32.229  1.00  0.00     0.050 A 
HETATM   25  C13 UNL     1      44.719  21.217  32.181  1.00  0.00     0.037 A 
HETATM   26 CL1  UNL     1      43.638  21.453  30.805  1.00  0.00    -0.084 Cl
HETATM   27  C14 UNL     1      44.664  22.116  33.218  1.00  0.00     0.049 A 
HETATM   28  C15 UNL     1      45.509  21.924  34.284  1.00  0.00     0.059 A 
HETATM   29 CL2  UNL     1      45.476  23.049  35.632  1.00  0.00    -0.082 Cl
HETATM   30  C16 UNL     1      46.411  20.863  34.357  1.00  0.00     0.079 A 
HETATM   31 CL3  UNL     1      47.438  20.714  35.776  1.00  0.00    -0.081 Cl
ENDBRANCH  20  23
ENDBRANCH  18  20
ENDBRANCH  17  18
ENDBRANCH   1  17
TORSDOF 12
ENDMDL
MODEL 2
REMARK VINA RESULT: -5.937047133      3.675      8.168
REMARK  12 active torsions:
REMARK  status: ('A' for Active; 'I' for Inactive)
REMARK    1  A    between atoms: N3_4  and  C2_6 
REMARK    2  A    between atoms: C2_6  and  C3_7 
REMARK    3  A    between atoms: C3_7  and  C4_8 
REMARK    4  A    between atoms: C4_8  and  N4_9 
REMARK       I    between atoms: N4_9  and  C5_11 
REMARK    5  A    between atoms: C5_11  and  C6_13 
REMARK    6  A    between atoms: C6_13  and  C7_14 
REMARK    7  A    between atoms: C7_14  and  C8_15 
REMARK    8  A    between atoms: C8_15  and  C9_16 
REMARK    9  A    between atoms: C9_16  and  C10_17 
REMARK   10  A    between atoms: C10_17  and  N5_18 
REMARK   11  A    between atoms: N5_18  and  S1_20 
REMARK   12  A    between atoms: S1_20  and  C11_23 
ROOT
HETATM    1  C9  UNL     1      44.759  22.529  35.016  1.00  0.00     0.020 C 
ENDROOT
BRANCH   1   2
HETATM    2  C8  UNL     1      44.929  22.031  33.630  1.00  0.00     0.002 C 
BRANCH   2   3
HETATM    3  C7  UNL     1      44.881  20.559  33.496  1.00  0.00     0.009 C 
BRANCH   3   4
HETATM    4  C6  UNL     1      45.023  20.151  32.001  1.00  0.00     0.103 C 
BRANCH   4   5
HETATM    5  C5  UNL     1      46.077  19.118  31.948  1.00  0.00     0.217 C 
HETATM    6  N4  UNL     1      45.798  17.834  32.476  1.00  0.00    -0.361 N 
ATOM      7  H4  UNL     1      44.876  17.668  32.878  1.00  0.00     0.162 HD
HETATM    8  O1  UNL     1      47.184  19.410  31.439  1.00  0.00    -0.274 OA
BRANCH   6   9
HETATM    9  C4  UNL     1      46.749  16.749  32.475  1.00  0.00     0.124 C 
BRANCH   9  10
HETATM   10  C3  UNL     1      46.941  16.251  33.870  1.00  0.00     0.039 C 
BRANCH  10  11
HETATM   11  C2  UNL     1      48.191  16.843  34.513  1.00  0.00     0.123 C 
BRANCH  11  12
HETATM   12  N3  UNL     1      47.986  18.185  34.964  1.00  0.00    -0.367 N 
HETATM   13  C1  UNL     1      48.697  19.198  34.601  1.00  0.00     0.196 C 
HETATM   14  N1  UNL     1      49.754  18.978  33.694  1.00  0.00    -0.067 NA
HETATM   15  N2  UNL     1      48.362  20.468  35.143  1.00  0.00    -0.067 NA
ATOM     16  H3  UNL     1      47.224  18.353  35.620  1.00  0.00     0.161 HD
ENDBRANCH  11  12
ENDBRANCH  10  11
ENDBRANCH   9  10
ENDBRANCH   6   9
ENDBRANCH   4   5
ENDBRANCH   3   4
ENDBRANCH   2   3
ENDBRANCH   1   2
BRANCH   1  17
HETATM   17  C10 UNL     1      43.398  22.457  35.564  1.00  0.00     0.132 C 
BRANCH  17  18
HETATM   18  N5  UNL     1      43.166  21.648  36.715  1.00  0.00    -0.315 N 
ATOM     19  H5  UNL     1      43.870  21.094  37.202  1.00  0.00     0.172 HD
BRANCH  18  20
HETATM   20  S1  UNL     1      41.506  21.760  37.148  1.00  0.00     0.260 S 
HETATM   21  O2  UNL     1      40.714  22.016  35.898  1.00  0.00    -0.200 OA
HETATM   22  O3  UNL     1      41.372  22.897  38.120  1.00  0.00    -0.200 OA
BRANCH  20  23
HETATM   23  C11 UNL     1      41.028  20.246  37.880  1.00  0.00     0.104 A 
HETATM   24  C12 UNL     1      41.944  19.250  38.167  1.00  0.00     0.050 A 
HETATM   25  C13 UNL     1      41.558  18.061  38.738  1.00  0.00     0.037 A 
HETATM   26 CL1  UNL     1      42.731  16.792  39.103  1.00  0.00    -0.084 Cl
HETATM   27  C14 UNL     1      40.236  17.837  39.038  1.00  0.00     0.049 A 
HETATM   28  C15 UNL     1      39.332  18.830  38.749  1.00  0.00     0.059 A 
HETATM   29 CL2  UNL     1      37.632  18.588  39.114  1.00  0.00    -0.082 Cl
HETATM   30  C16 UNL     1      39.697  20.045  38.171  1.00  0.00     0.079 A 
HETATM   31 CL3  UNL     1      38.452  21.246  37.855  1.00  0.00    -0.081 Cl
ENDBRANCH  20  23
ENDBRANCH  18  20
ENDBRANCH  17  18
ENDBRANCH   1  17
TORSDOF 12
ENDMDL
MODEL 3
REMARK VINA RESULT: -5.913977547      3.430      7.173
REMARK  12 active torsions:
REMARK  status: ('A' for Active; 'I' for Inactive)
REMARK    1  A    between atoms: N3_4  and  C2_6 
REMARK    2  A    between atoms: C2_6  and  C3_7 
REMARK    3  A    between atoms: C3_7  and  C4_8 
REMARK    4  A    between atoms: C4_8  and  N4_9 
REMARK       I    between atoms: N4_9  and  C5_11 
REMARK    5  A    between atoms: C5_11  and  C6_13 
REMARK    6  A    between atoms: C6_13  and  C7_14 
REMARK    7  A    between atoms: C7_14  and  C8_15 
REMARK    8  A    between atoms: C8_15  and  C9_16 
REMARK    9  A    between atoms: C9_16  and  C10_17 
REMARK   10  A    between atoms: C10_17  and  N5_18 
REMARK   11  A    between atoms: N5_18  and  S1_20 
REMARK   12  A    between atoms: S1_20  and  C11_23 
ROOT
HETATM    1  C9  UNL     1      38.943  20.895  37.751  1.00  0.00     0.020 C 
ENDROOT
BRANCH   1   2
HETATM    2  C8  UNL     1      39.312  22.323  37.597  1.00  0.00     0.002 C 
BRANCH   2   3
HETATM    3  C7  UNL     1      40.743  22.616  37.826  1.00  0.00     0.009 C 
BRANCH   3   4
HETATM    4  C6  UNL     1      41.427  23.026  36.489  1.00  0.00     0.103 C 
BRANCH   4   5
HETATM    5  C5  UNL     1      42.740  22.350  36.467  1.00  0.00     0.217 C 
HETATM    6  N4  UNL     1      43.782  22.912  35.689  1.00  0.00    -0.361 N 
ATOM      7  H4  UNL     1      43.586  23.766  35.167  1.00  0.00     0.162 HD
HETATM    8  O1  UNL     1      42.892  21.302  37.137  1.00  0.00    -0.274 OA
BRANCH   6   9
HETATM    9  C4  UNL     1      45.103  22.341  35.596  1.00  0.00     0.124 C 
BRANCH   9  10
HETATM   10  C3  UNL     1      45.182  21.456  34.395  1.00  0.00     0.039 C 
BRANCH  10  11
HETATM   11  C2  UNL     1      46.557  21.522  33.737  1.00  0.00     0.123 C 
BRANCH  11  12
HETATM   12  N3  UNL     1      47.313  20.324  33.937  1.00  0.00    -0.367 N 
HETATM   13  C1  UNL     1      47.625  19.489  33.005  1.00  0.00     0.196 C 
HETATM   14  N1  UNL     1      47.196  19.768  31.691  1.00  0.00    -0.067 NA
HETATM   15  N2  UNL     1      48.383  18.344  33.371  1.00  0.00    -0.067 NA
ATOM     16  H3  UNL     1      47.627  20.115  34.884  1.00  0.00     0.161 HD
ENDBRANCH  11  12
ENDBRANCH  10  11
ENDBRANCH   9  10
ENDBRANCH   6   9
ENDBRANCH   4   5
ENDBRANCH   3   4
ENDBRANCH   2   3
ENDBRANCH   1   2
BRANCH   1  17
HETATM   17  C10 UNL     1      39.986  20.015  38.296  1.00  0.00     0.132 C 
BRANCH  17  18
HETATM   18  N5  UNL     1      40.741  19.211  37.393  1.00  0.00    -0.315 N 
ATOM     19  H5  UNL     1      40.780  19.330  36.381  1.00  0.00     0.172 HD
BRANCH  18  20
HETATM   20  S1  UNL     1      41.578  18.005  38.290  1.00  0.00     0.260 S 
HETATM   21  O2  UNL     1      40.595  16.932  38.659  1.00  0.00    -0.200 OA
HETATM   22  O3  UNL     1      42.144  18.669  39.513  1.00  0.00    -0.200 OA
BRANCH  20  23
HETATM   23  C11 UNL     1      42.850  17.356  37.282  1.00  0.00     0.104 A 
HETATM   24  C12 UNL     1      43.126  17.873  36.028  1.00  0.00     0.050 A 
HETATM   25  C13 UNL     1      44.124  17.352  35.240  1.00  0.00     0.037 A 
HETATM   26 CL1  UNL     1      44.473  18.014  33.641  1.00  0.00    -0.084 Cl
HETATM   27  C14 UNL     1      44.877  16.294  35.690  1.00  0.00     0.049 A 
HETATM   28  C15 UNL     1      44.596  15.786  36.935  1.00  0.00     0.059 A 
HETATM   29 CL2  UNL     1      45.532  14.434  37.551  1.00  0.00    -0.082 Cl
HETATM   30  C16 UNL     1      43.590  16.295  37.754  1.00  0.00     0.079 A 
HETATM   31 CL3  UNL     1      43.329  15.569  39.334  1.00  0.00    -0.081 Cl
ENDBRANCH  20  23
ENDBRANCH  18  20
ENDBRANCH  17  18
ENDBRANCH   1  17
TORSDOF 12
ENDMDL
MODEL 4
REMARK VINA RESULT: -5.910385751      6.421      8.701
REMARK  12 active torsions:
REMARK  status: ('A' for Active; 'I' for Inactive)
REMARK    1  A    between atoms: N3_4  and  C2_6 
REMARK    2  A    between atoms: C2_6  and  C3_7 
REMARK    3  A    between atoms: C3_7  and  C4_8 
REMARK    4  A    between atoms: C4_8  and  N4_9 
REMARK       I    between atoms: N4_9  and  C5_11 
REMARK    5  A    between atoms: C5_11  and  C6_13 
REMARK    6  A    between atoms: C6_13  and  C7_14 
REMARK    7  A    between atoms: C7_14  and  C8_15 
REMARK    8  A    between atoms: C8_15  and  C9_16 
REMARK    9  A    between atoms: C9_16  and  C10_17 
REMARK   10  A    between atoms: C10_17  and  N5_18 
REMARK   11  A    between atoms: N5_18  and  S1_20 
REMARK   12  A    between atoms: S1_20  and  C11_23 
ROOT
HETATM    1  C9  UNL     1      38.595  18.664  38.281  1.00  0.00     0.020 C 
ENDROOT
BRANCH   1   2
HETATM    2  C8  UNL     1      37.803  18.389  39.503  1.00  0.00     0.002 C 
BRANCH   2   3
HETATM    3  C7  UNL     1      36.343  18.302  39.284  1.00  0.00     0.009 C 
BRANCH   3   4
HETATM    4  C6  UNL     1      35.581  18.695  40.582  1.00  0.00     0.103 C 
BRANCH   4   5
HETATM    5  C5  UNL     1      34.163  18.351  40.355  1.00  0.00     0.217 C 
HETATM    6  N4  UNL     1      33.654  17.155  40.917  1.00  0.00    -0.361 N 
ATOM      7  H4  UNL     1      34.288  16.569  41.459  1.00  0.00     0.162 HD
HETATM    8  O1  UNL     1      33.455  19.127  39.671  1.00  0.00    -0.274 OA
BRANCH   6   9
HETATM    9  C4  UNL     1      32.287  16.721  40.762  1.00  0.00     0.124 C 
BRANCH   9  10
HETATM   10  C3  UNL     1      31.481  17.184  41.932  1.00  0.00     0.039 C 
BRANCH  10  11
HETATM   11  C2  UNL     1      30.354  18.119  41.504  1.00  0.00     0.123 C 
BRANCH  11  12
HETATM   12  N3  UNL     1      30.356  18.365  40.095  1.00  0.00    -0.367 N 
HETATM   13  C1  UNL     1      30.105  19.505  39.549  1.00  0.00     0.196 C 
HETATM   14  N1  UNL     1      29.807  20.596  40.391  1.00  0.00    -0.067 NA
HETATM   15  N2  UNL     1      30.149  19.581  38.130  1.00  0.00    -0.067 NA
ATOM     16  H3  UNL     1      30.571  17.582  39.479  1.00  0.00     0.161 HD
ENDBRANCH  11  12
ENDBRANCH  10  11
ENDBRANCH   9  10
ENDBRANCH   6   9
ENDBRANCH   4   5
ENDBRANCH   3   4
ENDBRANCH   2   3
ENDBRANCH   1   2
BRANCH   1  17
HETATM   17  C10 UNL     1      39.137  20.024  38.156  1.00  0.00     0.132 C 
BRANCH  17  18
HETATM   18  N5  UNL     1      40.446  20.287  38.657  1.00  0.00    -0.315 N 
ATOM     19  H5  UNL     1      40.686  20.447  39.635  1.00  0.00     0.172 HD
BRANCH  18  20
HETATM   20  S1  UNL     1      41.554  20.289  37.342  1.00  0.00     0.260 S 
HETATM   21  O2  UNL     1      42.502  21.439  37.533  1.00  0.00    -0.200 OA
HETATM   22  O3  UNL     1      40.753  20.447  36.081  1.00  0.00    -0.200 OA
BRANCH  20  23
HETATM   23  C11 UNL     1      42.419  18.770  37.351  1.00  0.00     0.104 A 
HETATM   24  C12 UNL     1      42.272  17.850  38.374  1.00  0.00     0.050 A 
HETATM   25  C13 UNL     1      42.960  16.661  38.375  1.00  0.00     0.037 A 
HETATM   26 CL1  UNL     1      42.770  15.489  39.683  1.00  0.00    -0.084 Cl
HETATM   27  C14 UNL     1      43.819  16.360  37.346  1.00  0.00     0.049 A 
HETATM   28  C15 UNL     1      43.960  17.278  36.334  1.00  0.00     0.059 A 
HETATM   29 CL2  UNL     1      45.047  16.937  34.999  1.00  0.00    -0.082 Cl
HETATM   30  C16 UNL     1      43.275  18.491  36.309  1.00  0.00     0.079 A 
HETATM   31 CL3  UNL     1      43.530  19.585  34.956  1.00  0.00    -0.081 Cl
ENDBRANCH  20  23
ENDBRANCH  18  20
ENDBRANCH  17  18
ENDBRANCH   1  17
TORSDOF 12
ENDMDL
MODEL 5
REMARK VINA RESULT: -5.806685819      4.410      7.708
REMARK  12 active torsions:
REMARK  status: ('A' for Active; 'I' for Inactive)
REMARK    1  A    between atoms: N3_4  and  C2_6 
REMARK    2  A    between atoms: C2_6  and  C3_7 
REMARK    3  A    between atoms: C3_7  and  C4_8 
REMARK    4  A    between atoms: C4_8  and  N4_9 
REMARK       I    between atoms: N4_9  and  C5_11 
REMARK    5  A    between atoms: C5_11  and  C6_13 
REMARK    6  A    between atoms: C6_13  and  C7_14 
REMARK    7  A    between atoms: C7_14  and  C8_15 
REMARK    8  A    between atoms: C8_15  and  C9_16 
REMARK    9  A    between atoms: C9_16  and  C10_17 
REMARK   10  A    between atoms: C10_17  and  N5_18 
REMARK   11  A    between atoms: N5_18  and  S1_20 
REMARK   12  A    between atoms: S1_20  and  C11_23 
ROOT
HETATM    1  C9  UNL     1      39.694  18.139  39.025  1.00  0.00     0.020 C 
ENDROOT
BRANCH   1   2
HETATM    2  C8  UNL     1      40.906  18.982  39.160  1.00  0.00     0.002 C 
BRANCH   2   3
HETATM    3  C7  UNL     1      42.155  18.342  38.694  1.00  0.00     0.009 C 
BRANCH   3   4
HETATM    4  C6  UNL     1      42.094  16.806  38.937  1.00  0.00     0.103 C 
BRANCH   4   5
HETATM    5  C5  UNL     1      43.255  16.225  38.233  1.00  0.00     0.217 C 
HETATM    6  N4  UNL     1      43.795  16.919  37.123  1.00  0.00    -0.361 N 
ATOM      7  H4  UNL     1      43.360  17.799  36.847  1.00  0.00     0.162 HD
HETATM    8  O1  UNL     1      43.725  15.136  38.639  1.00  0.00    -0.274 OA
BRANCH   6   9
HETATM    9  C4  UNL     1      44.928  16.449  36.364  1.00  0.00     0.124 C 
BRANCH   9  10
HETATM   10  C3  UNL     1      45.278  17.453  35.315  1.00  0.00     0.039 C 
BRANCH  10  11
HETATM   11  C2  UNL     1      46.726  17.305  34.856  1.00  0.00     0.123 C 
BRANCH  11  12
HETATM   12  N3  UNL     1      47.535  18.420  35.242  1.00  0.00    -0.367 N 
HETATM   13  C1  UNL     1      48.227  19.142  34.428  1.00  0.00     0.196 C 
HETATM   14  N1  UNL     1      48.190  18.818  33.056  1.00  0.00    -0.067 NA
HETATM   15  N2  UNL     1      48.979  20.216  34.974  1.00  0.00    -0.067 NA
ATOM     16  H3  UNL     1      47.567  18.662  36.233  1.00  0.00     0.161 HD
ENDBRANCH  11  12
ENDBRANCH  10  11
ENDBRANCH   9  10
ENDBRANCH   6   9
ENDBRANCH   4   5
ENDBRANCH   3   4
ENDBRANCH   2   3
ENDBRANCH   1   2
BRANCH   1  17
HETATM   17  C10 UNL     1      38.518  18.791  38.433  1.00  0.00     0.132 C 
BRANCH  17  18
HETATM   18  N5  UNL     1      38.186  18.501  37.077  1.00  0.00    -0.315 N 
ATOM     19  H5  UNL     1      38.082  17.569  36.678  1.00  0.00     0.172 HD
BRANCH  18  20
HETATM   20  S1  UNL     1      37.988  19.982  36.224  1.00  0.00     0.260 S 
HETATM   21  O2  UNL     1      36.746  20.653  36.737  1.00  0.00    -0.200 OA
HETATM   22  O3  UNL     1      37.863  19.645  34.766  1.00  0.00    -0.200 OA
BRANCH  20  23
HETATM   23  C11 UNL     1      39.394  20.978  36.521  1.00  0.00     0.104 A 
HETATM   24  C12 UNL     1      39.317  22.155  37.244  1.00  0.00     0.050 A 
HETATM   25  C13 UNL     1      40.427  22.935  37.467  1.00  0.00     0.037 A 
HETATM   26 CL1  UNL     1      40.326  24.437  38.390  1.00  0.00    -0.084 Cl
HETATM   27  C14 UNL     1      41.649  22.553  36.970  1.00  0.00     0.049 A 
HETATM   28  C15 UNL     1      41.717  21.383  36.254  1.00  0.00     0.059 A 
HETATM   29 CL2  UNL     1      43.258  20.855  35.599  1.00  0.00    -0.082 Cl
HETATM   30  C16 UNL     1      40.608  20.574  36.012  1.00  0.00     0.079 A 
HETATM   31 CL3  UNL     1      40.818  19.093  35.088  1.00  0.00    -0.081 Cl
ENDBRANCH  20  23
ENDBRANCH  18  20
ENDBRANCH  17  18
ENDBRANCH   1  17
TORSDOF 12
ENDMDL
