MODEL 1
REMARK VINA RESULT: -6.914891432      0.000      0.000
REMARK  15 active torsions:
REMARK  status: ('A' for Active; 'I' for Inactive)
REMARK    1  A    between atoms: O1_1  and  C1_3 
REMARK    2  A    between atoms: C1_3  and  C2_4 
REMARK    3  A    between atoms: C2_4  and  N1_5 
REMARK    4  A    between atoms: N1_5  and  C3_7 
REMARK    5  A    between atoms: C3_7  and  N2_9 
REMARK    6  A    between atoms: N2_9  and  C4_11 
REMARK    7  A    between atoms: C4_11  and  C5_12 
REMARK    8  A    between atoms: C5_12  and  C6_13 
REMARK    9  A    between atoms: C6_13  and  C7_14 
REMARK   10  A    between atoms: C7_14  and  C8_15 
REMARK   11  A    between atoms: C8_15  and  C9_16 
REMARK   12  A    between atoms: C9_16  and  N3_17 
REMARK       I    between atoms: N3_17  and  C10_19 
REMARK       I    between atoms: C10_19  and  N5_33 
REMARK   13  A    between atoms: N4_20  and  C11_22 
REMARK   14  A    between atoms: C11_22  and  C12_23 
REMARK   15  A    between atoms: C12_23  and  C13_24 
ROOT
HETATM    1  N3  UNL     1      38.849  20.970  36.900  1.00  0.00    -0.226 N 
ATOM      2  H3  UNL     1      38.730  20.946  35.887  1.00  0.00     0.177 HD
HETATM    3  C10 UNL     1      38.658  19.737  37.660  1.00  0.00     0.675 C 
HETATM    4  N4  UNL     1      37.486  19.460  37.992  1.00  0.00    -0.205 N 
ATOM      5  H4  UNL     1      36.820  20.162  37.668  1.00  0.00     0.183 HD
HETATM    6  N5  UNL     1      39.791  18.940  37.973  1.00  0.00    -0.218 N 
HETATM    7  C19 UNL     1      40.317  18.712  39.301  1.00  0.00     0.141 C 
HETATM    8  C20 UNL     1      41.813  18.899  39.009  1.00  0.00     0.022 C 
HETATM    9  C21 UNL     1      41.970  18.043  37.776  1.00  0.00     0.022 C 
HETATM   10  C22 UNL     1      40.659  18.206  37.064  1.00  0.00     0.141 C 
ENDROOT
BRANCH   1  11
HETATM   11  C9  UNL     1      39.198  22.212  37.523  1.00  0.00     0.138 C 
BRANCH  11  12
HETATM   12  C8  UNL     1      40.669  22.367  37.826  1.00  0.00     0.020 C 
BRANCH  12  13
HETATM   13  C7  UNL     1      41.458  22.840  36.644  1.00  0.00     0.002 C 
BRANCH  13  14
HETATM   14  C6  UNL     1      42.565  21.906  36.304  1.00  0.00     0.002 C 
BRANCH  14  15
HETATM   15  C5  UNL     1      43.511  22.470  35.282  1.00  0.00     0.020 C 
BRANCH  15  16
HETATM   16  C4  UNL     1      44.915  22.093  35.632  1.00  0.00     0.122 C 
BRANCH  16  17
HETATM   17  N2  UNL     1      45.930  22.666  34.798  1.00  0.00    -0.367 N 
ATOM     18  H2  UNL     1      46.394  23.525  35.095  1.00  0.00     0.161 HD
BRANCH  17  19
HETATM   19  C3  UNL     1      46.304  22.068  33.574  1.00  0.00     0.167 C 
HETATM   20  S1  UNL     1      46.189  20.431  33.505  1.00  0.00    -0.041 SA
BRANCH  19  21
HETATM   21  N1  UNL     1      46.794  22.820  32.503  1.00  0.00    -0.365 N 
ATOM     22  H1  UNL     1      47.740  22.598  32.191  1.00  0.00     0.161 HD
BRANCH  21  23
HETATM   23  C2  UNL     1      46.127  23.863  31.794  1.00  0.00     0.148 C 
BRANCH  23  24
HETATM   24  C1  UNL     1      47.046  24.644  30.928  1.00  0.00     0.183 C 
BRANCH  24  25
HETATM   25  O1  UNL     1      47.651  25.741  31.472  1.00  0.00    -0.399 OA
ATOM     26  H1  UNL     1      48.461  26.039  31.076  1.00  0.00     0.209 HD
ENDBRANCH  24  25
ENDBRANCH  23  24
ENDBRANCH  21  23
ENDBRANCH  19  21
ENDBRANCH  17  19
ENDBRANCH  16  17
ENDBRANCH  15  16
ENDBRANCH  14  15
ENDBRANCH  13  14
ENDBRANCH  12  13
ENDBRANCH  11  12
ENDBRANCH   1  11
BRANCH   4  27
HETATM   27  C11 UNL     1      36.858  18.425  38.697  1.00  0.00     0.083 C 
BRANCH  27  28
HETATM   28  C12 UNL     1      36.585  18.735  40.145  1.00  0.00     0.087 C 
BRANCH  28  29
HETATM   29  C13 UNL     1      35.189  18.360  40.519  1.00  0.00    -0.012 A 
HETATM   30  C14 UNL     1      34.123  18.775  39.754  1.00  0.00     0.056 A 
HETATM   31  C15 UNL     1      32.859  18.362  40.171  1.00  0.00     0.155 A 
HETATM   32  F1  UNL     1      31.796  18.776  39.403  1.00  0.00    -0.203 F 
HETATM   33  C16 UNL     1      32.670  17.581  41.291  1.00  0.00     0.157 A 
HETATM   34  F2  UNL     1      31.422  17.204  41.655  1.00  0.00    -0.203 F 
HETATM   35  C17 UNL     1      33.785  17.192  42.024  1.00  0.00     0.088 A 
HETATM   36  C18 UNL     1      35.062  17.575  41.652  1.00  0.00     0.126 A 
HETATM   37  F3  UNL     1      36.147  17.188  42.382  1.00  0.00    -0.205 F 
ENDBRANCH  28  29
ENDBRANCH  27  28
ENDBRANCH   4  27
TORSDOF 15
ENDMDL
MODEL 2
REMARK VINA RESULT: -6.850162391      2.014      2.420
REMARK  15 active torsions:
REMARK  status: ('A' for Active; 'I' for Inactive)
REMARK    1  A    between atoms: O1_1  and  C1_3 
REMARK    2  A    between atoms: C1_3  and  C2_4 
REMARK    3  A    between atoms: C2_4  and  N1_5 
REMARK    4  A    between atoms: N1_5  and  C3_7 
REMARK    5  A    between atoms: C3_7  and  N2_9 
REMARK    6  A    between atoms: N2_9  and  C4_11 
REMARK    7  A    between atoms: C4_11  and  C5_12 
REMARK    8  A    between atoms: C5_12  and  C6_13 
REMARK    9  A    between atoms: C6_13  and  C7_14 
REMARK   10  A    between atoms: C7_14  and  C8_15 
REMARK   11  A    between atoms: C8_15  and  C9_16 
REMARK   12  A    between atoms: C9_16  and  N3_17 
REMARK       I    between atoms: N3_17  and  C10_19 
REMARK       I    between atoms: C10_19  and  N5_33 
REMARK   13  A    between atoms: N4_20  and  C11_22 
REMARK   14  A    between atoms: C11_22  and  C12_23 
REMARK   15  A    between atoms: C12_23  and  C13_24 
ROOT
HETATM    1  N3  UNL     1      39.204  21.217  36.964  1.00  0.00    -0.226 N 
ATOM      2  H3  UNL     1      39.067  21.312  35.958  1.00  0.00     0.177 HD
HETATM    3  C10 UNL     1      38.930  19.927  37.593  1.00  0.00     0.675 C 
HETATM    4  N4  UNL     1      37.746  19.706  37.923  1.00  0.00    -0.205 N 
ATOM      5  H4  UNL     1      37.132  20.487  37.694  1.00  0.00     0.183 HD
HETATM    6  N5  UNL     1      40.002  19.017  37.790  1.00  0.00    -0.218 N 
HETATM    7  C19 UNL     1      40.532  18.607  39.072  1.00  0.00     0.141 C 
HETATM    8  C20 UNL     1      42.032  18.710  38.764  1.00  0.00     0.022 C 
HETATM    9  C21 UNL     1      42.100  17.983  37.443  1.00  0.00     0.022 C 
HETATM   10  C22 UNL     1      40.794  18.322  36.786  1.00  0.00     0.141 C 
ENDROOT
BRANCH   1  11
HETATM   11  C9  UNL     1      39.660  22.354  37.707  1.00  0.00     0.138 C 
BRANCH  11  12
HETATM   12  C8  UNL     1      40.949  22.956  37.199  1.00  0.00     0.020 C 
BRANCH  12  13
HETATM   13  C7  UNL     1      41.910  21.925  36.692  1.00  0.00     0.002 C 
BRANCH  13  14
HETATM   14  C6  UNL     1      42.912  22.510  35.761  1.00  0.00     0.002 C 
BRANCH  14  15
HETATM   15  C5  UNL     1      44.144  21.662  35.623  1.00  0.00     0.020 C 
BRANCH  15  16
HETATM   16  C4  UNL     1      45.357  22.536  35.589  1.00  0.00     0.122 C 
BRANCH  16  17
HETATM   17  N2  UNL     1      46.071  22.546  34.346  1.00  0.00    -0.367 N 
ATOM     18  H2  UNL     1      46.144  23.417  33.820  1.00  0.00     0.161 HD
BRANCH  17  19
HETATM   19  C3  UNL     1      46.677  21.378  33.833  1.00  0.00     0.167 C 
HETATM   20  S1  UNL     1      46.083  20.823  32.407  1.00  0.00    -0.041 SA
BRANCH  19  21
HETATM   21  N1  UNL     1      47.687  20.704  34.526  1.00  0.00    -0.365 N 
ATOM     22  H1  UNL     1      48.499  21.260  34.795  1.00  0.00     0.161 HD
BRANCH  21  23
HETATM   23  C2  UNL     1      47.715  19.327  34.901  1.00  0.00     0.148 C 
BRANCH  23  24
HETATM   24  C1  UNL     1      48.952  18.639  34.453  1.00  0.00     0.183 C 
BRANCH  24  25
HETATM   25  O1  UNL     1      49.387  17.574  35.189  1.00  0.00    -0.399 OA
ATOM     26  H1  UNL     1      49.721  16.820  34.718  1.00  0.00     0.209 HD
ENDBRANCH  24  25
ENDBRANCH  23  24
ENDBRANCH  21  23
ENDBRANCH  19  21
ENDBRANCH  17  19
ENDBRANCH  16  17
ENDBRANCH  15  16
ENDBRANCH  14  15
ENDBRANCH  13  14
ENDBRANCH  12  13
ENDBRANCH  11  12
ENDBRANCH   1  11
BRANCH   4  27
HETATM   27  C11 UNL     1      37.051  18.651  38.530  1.00  0.00     0.083 C 
BRANCH  27  28
HETATM   28  C12 UNL     1      36.927  18.767  40.026  1.00  0.00     0.087 C 
BRANCH  28  29
HETATM   29  C13 UNL     1      35.557  18.383  40.481  1.00  0.00    -0.012 A 
HETATM   30  C14 UNL     1      34.452  18.699  39.724  1.00  0.00     0.056 A 
HETATM   31  C15 UNL     1      33.218  18.285  40.220  1.00  0.00     0.155 A 
HETATM   32  F1  UNL     1      32.116  18.600  39.459  1.00  0.00    -0.203 F 
HETATM   33  C16 UNL     1      33.093  17.596  41.407  1.00  0.00     0.157 A 
HETATM   34  F2  UNL     1      31.871  17.214  41.847  1.00  0.00    -0.203 F 
HETATM   35  C17 UNL     1      34.245  17.305  42.129  1.00  0.00     0.088 A 
HETATM   36  C18 UNL     1      35.495  17.694  41.679  1.00  0.00     0.126 A 
HETATM   37  F3  UNL     1      36.616  17.404  42.399  1.00  0.00    -0.205 F 
ENDBRANCH  28  29
ENDBRANCH  27  28
ENDBRANCH   4  27
TORSDOF 15
ENDMDL
MODEL 3
REMARK VINA RESULT: -6.722151821      4.135      5.586
REMARK  15 active torsions:
REMARK  status: ('A' for Active; 'I' for Inactive)
REMARK    1  A    between atoms: O1_1  and  C1_3 
REMARK    2  A    between atoms: C1_3  and  C2_4 
REMARK    3  A    between atoms: C2_4  and  N1_5 
REMARK    4  A    between atoms: N1_5  and  C3_7 
REMARK    5  A    between atoms: C3_7  and  N2_9 
REMARK    6  A    between atoms: N2_9  and  C4_11 
REMARK    7  A    between atoms: C4_11  and  C5_12 
REMARK    8  A    between atoms: C5_12  and  C6_13 
REMARK    9  A    between atoms: C6_13  and  C7_14 
REMARK   10  A    between atoms: C7_14  and  C8_15 
REMARK   11  A    between atoms: C8_15  and  C9_16 
REMARK   12  A    between atoms: C9_16  and  N3_17 
REMARK       I    between atoms: N3_17  and  C10_19 
REMARK       I    between atoms: C10_19  and  N5_33 
REMARK   13  A    between atoms: N4_20  and  C11_22 
REMARK   14  A    between atoms: C11_22  and  C12_23 
REMARK   15  A    between atoms: C12_23  and  C13_24 
ROOT
HETATM    1  N3  UNL     1      41.028  19.101  39.464  1.00  0.00    -0.226 N 
ATOM      2  H3  UNL     1      40.984  19.479  40.411  1.00  0.00     0.177 HD
HETATM    3  C10 UNL     1      39.901  19.329  38.563  1.00  0.00     0.675 C 
HETATM    4  N4  UNL     1      38.951  18.521  38.641  1.00  0.00    -0.205 N 
ATOM      5  H4  UNL     1      39.115  17.803  39.346  1.00  0.00     0.183 HD
HETATM    6  N5  UNL     1      39.947  20.431  37.670  1.00  0.00    -0.218 N 
HETATM    7  C19 UNL     1      40.025  20.342  36.228  1.00  0.00     0.141 C 
HETATM    8  C20 UNL     1      41.099  21.409  35.973  1.00  0.00     0.022 C 
HETATM    9  C21 UNL     1      40.576  22.545  36.817  1.00  0.00     0.022 C 
HETATM   10  C22 UNL     1      39.938  21.853  37.986  1.00  0.00     0.141 C 
ENDROOT
BRANCH   1  11
HETATM   11  C9  UNL     1      42.194  18.369  39.068  1.00  0.00     0.138 C 
BRANCH  11  12
HETATM   12  C8  UNL     1      41.964  16.889  38.870  1.00  0.00     0.020 C 
BRANCH  12  13
HETATM   13  C7  UNL     1      42.960  16.045  39.603  1.00  0.00     0.002 C 
BRANCH  13  14
HETATM   14  C6  UNL     1      43.138  14.713  38.964  1.00  0.00     0.002 C 
BRANCH  14  15
HETATM   15  C5  UNL     1      44.569  14.421  38.617  1.00  0.00     0.020 C 
BRANCH  15  16
HETATM   16  C4  UNL     1      45.011  15.315  37.503  1.00  0.00     0.122 C 
BRANCH  16  17
HETATM   17  N2  UNL     1      46.387  15.185  37.121  1.00  0.00    -0.367 N 
ATOM     18  H2  UNL     1      47.114  15.312  37.825  1.00  0.00     0.161 HD
BRANCH  17  19
HETATM   19  C3  UNL     1      46.759  14.886  35.792  1.00  0.00     0.167 C 
HETATM   20  S1  UNL     1      45.813  13.798  35.005  1.00  0.00    -0.041 SA
BRANCH  19  21
HETATM   21  N1  UNL     1      47.896  15.442  35.198  1.00  0.00    -0.365 N 
ATOM     22  H1  UNL     1      48.748  14.885  35.248  1.00  0.00     0.161 HD
BRANCH  21  23
HETATM   23  C2  UNL     1      48.003  16.699  34.531  1.00  0.00     0.148 C 
BRANCH  23  24
HETATM   24  C1  UNL     1      49.316  17.355  34.758  1.00  0.00     0.183 C 
BRANCH  24  25
HETATM   25  O1  UNL     1      50.204  16.727  35.582  1.00  0.00    -0.399 OA
ATOM     26  H1  UNL     1      51.025  16.433  35.204  1.00  0.00     0.209 HD
ENDBRANCH  24  25
ENDBRANCH  23  24
ENDBRANCH  21  23
ENDBRANCH  19  21
ENDBRANCH  17  19
ENDBRANCH  16  17
ENDBRANCH  15  16
ENDBRANCH  14  15
ENDBRANCH  13  14
ENDBRANCH  12  13
ENDBRANCH  11  12
ENDBRANCH   1  11
BRANCH   4  27
HETATM   27  C11 UNL     1      37.715  18.356  38.000  1.00  0.00     0.083 C 
BRANCH  27  28
HETATM   28  C12 UNL     1      36.525  18.743  38.836  1.00  0.00     0.087 C 
BRANCH  28  29
HETATM   29  C13 UNL     1      36.260  17.723  39.895  1.00  0.00    -0.012 A 
HETATM   30  C14 UNL     1      36.515  18.003  41.217  1.00  0.00     0.056 A 
HETATM   31  C15 UNL     1      36.221  16.997  42.135  1.00  0.00     0.155 A 
HETATM   32  F1  UNL     1      36.474  17.280  43.456  1.00  0.00    -0.203 F 
HETATM   33  C16 UNL     1      35.703  15.778  41.752  1.00  0.00     0.157 A 
HETATM   34  F2  UNL     1      35.433  14.831  42.681  1.00  0.00    -0.203 F 
HETATM   35  C17 UNL     1      35.466  15.553  40.401  1.00  0.00     0.088 A 
HETATM   36  C18 UNL     1      35.740  16.520  39.450  1.00  0.00     0.126 A 
HETATM   37  F3  UNL     1      35.505  16.284  38.127  1.00  0.00    -0.205 F 
ENDBRANCH  28  29
ENDBRANCH  27  28
ENDBRANCH   4  27
TORSDOF 15
ENDMDL
MODEL 4
REMARK VINA RESULT: -6.689952476      2.593      3.657
REMARK  15 active torsions:
REMARK  status: ('A' for Active; 'I' for Inactive)
REMARK    1  A    between atoms: O1_1  and  C1_3 
REMARK    2  A    between atoms: C1_3  and  C2_4 
REMARK    3  A    between atoms: C2_4  and  N1_5 
REMARK    4  A    between atoms: N1_5  and  C3_7 
REMARK    5  A    between atoms: C3_7  and  N2_9 
REMARK    6  A    between atoms: N2_9  and  C4_11 
REMARK    7  A    between atoms: C4_11  and  C5_12 
REMARK    8  A    between atoms: C5_12  and  C6_13 
REMARK    9  A    between atoms: C6_13  and  C7_14 
REMARK   10  A    between atoms: C7_14  and  C8_15 
REMARK   11  A    between atoms: C8_15  and  C9_16 
REMARK   12  A    between atoms: C9_16  and  N3_17 
REMARK       I    between atoms: N3_17  and  C10_19 
REMARK       I    between atoms: C10_19  and  N5_33 
REMARK   13  A    between atoms: N4_20  and  C11_22 
REMARK   14  A    between atoms: C11_22  and  C12_23 
REMARK   15  A    between atoms: C12_23  and  C13_24 
ROOT
HETATM    1  N3  UNL     1      39.392  18.314  35.413  1.00  0.00    -0.226 N 
ATOM      2  H3  UNL     1      39.810  17.878  34.591  1.00  0.00     0.177 HD
HETATM    3  C10 UNL     1      39.208  17.509  36.618  1.00  0.00     0.675 C 
HETATM    4  N4  UNL     1      38.166  16.824  36.681  1.00  0.00    -0.205 N 
ATOM      5  H4  UNL     1      37.583  16.936  35.851  1.00  0.00     0.183 HD
HETATM    6  N5  UNL     1      40.204  17.550  37.629  1.00  0.00    -0.218 N 
HETATM    7  C19 UNL     1      40.033  18.099  38.956  1.00  0.00     0.141 C 
HETATM    8  C20 UNL     1      41.346  18.887  39.069  1.00  0.00     0.022 C 
HETATM    9  C21 UNL     1      42.339  17.851  38.602  1.00  0.00     0.022 C 
HETATM   10  C22 UNL     1      41.580  17.078  37.563  1.00  0.00     0.141 C 
ENDROOT
BRANCH   1  11
HETATM   11  C9  UNL     1      39.007  19.691  35.341  1.00  0.00     0.138 C 
BRANCH  11  12
HETATM   12  C8  UNL     1      37.640  19.988  35.912  1.00  0.00     0.020 C 
BRANCH  12  13
HETATM   13  C7  UNL     1      37.626  21.209  36.779  1.00  0.00     0.002 C 
BRANCH  13  14
HETATM   14  C6  UNL     1      38.825  21.280  37.658  1.00  0.00     0.002 C 
BRANCH  14  15
HETATM   15  C5  UNL     1      39.562  22.583  37.532  1.00  0.00     0.020 C 
BRANCH  15  16
HETATM   16  C4  UNL     1      41.029  22.350  37.701  1.00  0.00     0.122 C 
BRANCH  16  17
HETATM   17  N2  UNL     1      41.865  22.947  36.700  1.00  0.00    -0.367 N 
ATOM     18  H2  UNL     1      41.706  23.919  36.433  1.00  0.00     0.161 HD
BRANCH  17  19
HETATM   19  C3  UNL     1      42.902  22.220  36.076  1.00  0.00     0.167 C 
HETATM   20  S1  UNL     1      42.635  20.613  35.869  1.00  0.00    -0.041 SA
BRANCH  19  21
HETATM   21  N1  UNL     1      44.108  22.823  35.705  1.00  0.00    -0.365 N 
ATOM     22  H1  UNL     1      44.076  23.828  35.534  1.00  0.00     0.161 HD
BRANCH  21  23
HETATM   23  C2  UNL     1      45.379  22.196  35.537  1.00  0.00     0.148 C 
BRANCH  23  24
HETATM   24  C1  UNL     1      45.842  22.215  34.126  1.00  0.00     0.183 C 
BRANCH  24  25
HETATM   25  O1  UNL     1      47.166  21.981  33.890  1.00  0.00    -0.399 OA
ATOM     26  H1  UNL     1      47.644  22.625  33.381  1.00  0.00     0.209 HD
ENDBRANCH  24  25
ENDBRANCH  23  24
ENDBRANCH  21  23
ENDBRANCH  19  21
ENDBRANCH  17  19
ENDBRANCH  16  17
ENDBRANCH  15  16
ENDBRANCH  14  15
ENDBRANCH  13  14
ENDBRANCH  12  13
ENDBRANCH  11  12
ENDBRANCH   1  11
BRANCH   4  27
HETATM   27  C11 UNL     1      37.597  15.940  37.607  1.00  0.00     0.083 C 
BRANCH  27  28
HETATM   28  C12 UNL     1      36.217  16.327  38.069  1.00  0.00     0.087 C 
BRANCH  28  29
HETATM   29  C13 UNL     1      36.183  16.520  39.550  1.00  0.00    -0.012 A 
HETATM   30  C14 UNL     1      35.879  15.471  40.387  1.00  0.00     0.056 A 
HETATM   31  C15 UNL     1      35.888  15.742  41.754  1.00  0.00     0.155 A 
HETATM   32  F1  UNL     1      35.587  14.691  42.588  1.00  0.00    -0.203 F 
HETATM   33  C16 UNL     1      36.182  16.991  42.256  1.00  0.00     0.157 A 
HETATM   34  F2  UNL     1      36.179  17.205  43.593  1.00  0.00    -0.203 F 
HETATM   35  C17 UNL     1      36.482  18.012  41.362  1.00  0.00     0.088 A 
HETATM   36  C18 UNL     1      36.487  17.795  39.995  1.00  0.00     0.126 A 
HETATM   37  F3  UNL     1      36.780  18.806  39.128  1.00  0.00    -0.205 F 
ENDBRANCH  28  29
ENDBRANCH  27  28
ENDBRANCH   4  27
TORSDOF 15
ENDMDL
MODEL 5
REMARK VINA RESULT: -6.572561993      3.096      4.662
REMARK  15 active torsions:
REMARK  status: ('A' for Active; 'I' for Inactive)
REMARK    1  A    between atoms: O1_1  and  C1_3 
REMARK    2  A    between atoms: C1_3  and  C2_4 
REMARK    3  A    between atoms: C2_4  and  N1_5 
REMARK    4  A    between atoms: N1_5  and  C3_7 
REMARK    5  A    between atoms: C3_7  and  N2_9 
REMARK    6  A    between atoms: N2_9  and  C4_11 
REMARK    7  A    between atoms: C4_11  and  C5_12 
REMARK    8  A    between atoms: C5_12  and  C6_13 
REMARK    9  A    between atoms: C6_13  and  C7_14 
REMARK   10  A    between atoms: C7_14  and  C8_15 
REMARK   11  A    between atoms: C8_15  and  C9_16 
REMARK   12  A    between atoms: C9_16  and  N3_17 
REMARK       I    between atoms: N3_17  and  C10_19 
REMARK       I    between atoms: C10_19  and  N5_33 
REMARK   13  A    between atoms: N4_20  and  C11_22 
REMARK   14  A    between atoms: C11_22  and  C12_23 
REMARK   15  A    between atoms: C12_23  and  C13_24 
ROOT
HETATM    1  N3  UNL     1      41.565  18.350  39.115  1.00  0.00    -0.226 N 
ATOM      2  H3  UNL     1      41.858  18.703  40.026  1.00  0.00     0.177 HD
HETATM    3  C10 UNL     1      40.223  18.670  38.635  1.00  0.00     0.675 C 
HETATM    4  N4  UNL     1      39.299  17.920  39.015  1.00  0.00    -0.205 N 
ATOM      5  H4  UNL     1      39.636  17.175  39.624  1.00  0.00     0.183 HD
HETATM    6  N5  UNL     1      40.048  19.791  37.782  1.00  0.00    -0.218 N 
HETATM    7  C19 UNL     1      39.645  19.737  36.394  1.00  0.00     0.141 C 
HETATM    8  C20 UNL     1      40.645  20.742  35.806  1.00  0.00     0.022 C 
HETATM    9  C21 UNL     1      40.503  21.885  36.781  1.00  0.00     0.022 C 
HETATM   10  C22 UNL     1      40.238  21.201  38.091  1.00  0.00     0.141 C 
ENDROOT
BRANCH   1  11
HETATM   11  C9  UNL     1      42.486  17.559  38.356  1.00  0.00     0.138 C 
BRANCH  11  12
HETATM   12  C8  UNL     1      42.253  16.069  38.448  1.00  0.00     0.020 C 
BRANCH  12  13
HETATM   13  C7  UNL     1      43.018  15.431  39.567  1.00  0.00     0.002 C 
BRANCH  13  14
HETATM   14  C6  UNL     1      44.241  14.738  39.080  1.00  0.00     0.002 C 
BRANCH  14  15
HETATM   15  C5  UNL     1      44.263  14.575  37.587  1.00  0.00     0.020 C 
BRANCH  15  16
HETATM   16  C4  UNL     1      45.568  15.065  37.046  1.00  0.00     0.122 C 
BRANCH  16  17
HETATM   17  N2  UNL     1      45.608  16.456  36.704  1.00  0.00    -0.367 N 
ATOM     18  H2  UNL     1      45.354  17.150  37.407  1.00  0.00     0.161 HD
BRANCH  17  19
HETATM   19  C3  UNL     1      45.989  16.889  35.415  1.00  0.00     0.167 C 
HETATM   20  S1  UNL     1      45.247  16.143  34.153  1.00  0.00    -0.041 SA
BRANCH  19  21
HETATM   21  N1  UNL     1      46.980  17.856  35.222  1.00  0.00    -0.365 N 
ATOM     22  H1  UNL     1      46.818  18.762  35.661  1.00  0.00     0.161 HD
BRANCH  21  23
HETATM   23  C2  UNL     1      48.193  17.723  34.481  1.00  0.00     0.148 C 
BRANCH  23  24
HETATM   24  C1  UNL     1      49.009  18.964  34.497  1.00  0.00     0.183 C 
BRANCH  24  25
HETATM   25  O1  UNL     1      49.871  19.169  33.458  1.00  0.00    -0.399 OA
ATOM     26  H1  UNL     1      50.543  18.515  33.307  1.00  0.00     0.209 HD
ENDBRANCH  24  25
ENDBRANCH  23  24
ENDBRANCH  21  23
ENDBRANCH  19  21
ENDBRANCH  17  19
ENDBRANCH  16  17
ENDBRANCH  15  16
ENDBRANCH  14  15
ENDBRANCH  13  14
ENDBRANCH  12  13
ENDBRANCH  11  12
ENDBRANCH   1  11
BRANCH   4  27
HETATM   27  C11 UNL     1      37.914  17.849  38.814  1.00  0.00     0.083 C 
BRANCH  27  28
HETATM   28  C12 UNL     1      37.133  18.963  39.458  1.00  0.00     0.087 C 
BRANCH  28  29
HETATM   29  C13 UNL     1      35.913  18.437  40.140  1.00  0.00    -0.012 A 
HETATM   30  C14 UNL     1      34.687  18.483  39.518  1.00  0.00     0.056 A 
HETATM   31  C15 UNL     1      33.609  17.954  40.224  1.00  0.00     0.155 A 
HETATM   32  F1  UNL     1      32.385  17.999  39.598  1.00  0.00    -0.203 F 
HETATM   33  C16 UNL     1      33.748  17.410  41.483  1.00  0.00     0.157 A 
HETATM   34  F2  UNL     1      32.670  16.906  42.129  1.00  0.00    -0.203 F 
HETATM   35  C17 UNL     1      35.012  17.391  42.061  1.00  0.00     0.088 A 
HETATM   36  C18 UNL     1      36.115  17.903  41.401  1.00  0.00     0.126 A 
HETATM   37  F3  UNL     1      37.349  17.880  41.982  1.00  0.00    -0.205 F 
ENDBRANCH  28  29
ENDBRANCH  27  28
ENDBRANCH   4  27
TORSDOF 15
ENDMDL
