MODEL 1
REMARK VINA RESULT: -6.049517115      0.000      0.000
REMARK  13 active torsions:
REMARK  status: ('A' for Active; 'I' for Inactive)
REMARK    1  A    between atoms: C1_2  and  N2_4 
REMARK    2  A    between atoms: N2_4  and  C2_6 
REMARK    3  A    between atoms: C2_6  and  C3_7 
REMARK    4  A    between atoms: C3_7  and  C4_8 
REMARK    5  A    between atoms: C4_8  and  C5_9 
REMARK    6  A    between atoms: C5_9  and  C6_10 
REMARK    7  A    between atoms: C6_10  and  C7_11 
REMARK    8  A    between atoms: C7_11  and  N3_12 
REMARK    9  A    between atoms: C7_11  and  C18_29 
REMARK   10  A    between atoms: N4_17  and  C11_18 
REMARK   11  A    between atoms: C11_18  and  C12_19 
REMARK   12  A    between atoms: C12_19  and  C13_20 
REMARK   13  A    between atoms: C18_29  and  C19_31 
ROOT
HETATM    1  N3  UNL     1      41.743  21.814  37.868  1.00  0.00    -0.357 N 
ATOM      2  H3  UNL     1      42.291  21.626  38.706  1.00  0.00     0.165 HD
HETATM    3  C8  UNL     1      42.400  21.485  36.749  1.00  0.00     0.079 C 
HETATM    4  C9  UNL     1      41.888  20.481  35.751  1.00  0.00     0.082 C 
HETATM    5  C10 UNL     1      42.980  20.436  34.716  1.00  0.00     0.132 C 
HETATM    6  N4  UNL     1      43.802  21.634  34.898  1.00  0.00    -0.343 N 
HETATM    7  C17 UNL     1      43.186  22.408  35.913  1.00  0.00     0.266 C 
HETATM    8  O1  UNL     1      43.341  23.641  35.998  1.00  0.00    -0.266 OA
ENDROOT
BRANCH   1   9
HETATM    9  C7  UNL     1      40.500  22.348  38.164  1.00  0.00     0.028 C 
BRANCH   9  10
HETATM   10  C6  UNL     1      39.326  21.683  37.486  1.00  0.00     0.058 C 
BRANCH  10  11
HETATM   11  C5  UNL     1      38.690  20.541  38.215  1.00  0.00     0.006 C 
BRANCH  11  12
HETATM   12  C4  UNL     1      38.636  19.255  37.453  1.00  0.00     0.002 C 
BRANCH  12  13
HETATM   13  C3  UNL     1      38.566  18.105  38.474  1.00  0.00     0.020 C 
BRANCH  13  14
HETATM   14  C2  UNL     1      39.507  17.044  37.988  1.00  0.00     0.121 C 
BRANCH  14  15
HETATM   15  N2  UNL     1      40.821  17.516  37.643  1.00  0.00    -0.369 N 
ATOM     16  H2  UNL     1      41.013  17.758  36.671  1.00  0.00     0.161 HD
BRANCH  15  17
HETATM   17  C1  UNL     1      41.860  17.660  38.596  1.00  0.00     0.180 C 
HETATM   18  N1  UNL     1      42.155  18.925  39.203  1.00  0.00    -0.070 NA
HETATM   19  S1  UNL     1      42.743  16.375  39.009  1.00  0.00    -0.044 SA
ENDBRANCH  15  17
ENDBRANCH  14  15
ENDBRANCH  13  14
ENDBRANCH  12  13
ENDBRANCH  11  12
ENDBRANCH  10  11
ENDBRANCH   9  10
BRANCH   9  20
HETATM   20  C18 UNL     1      40.286  23.819  38.203  1.00  0.00     0.048 C 
HETATM   21 CL2  UNL     1      40.016  24.603  36.640  1.00  0.00    -0.086 Cl
BRANCH  20  22
HETATM   22  C19 UNL     1      41.234  24.582  39.103  1.00  0.00     0.167 C 
HETATM   23 CL3  UNL     1      40.830  26.315  38.959  1.00  0.00    -0.125 Cl
ENDBRANCH  20  22
ENDBRANCH   9  20
ENDBRANCH   1   9
BRANCH   6  24
HETATM   24  C11 UNL     1      45.014  21.926  34.193  1.00  0.00     0.155 C 
BRANCH  24  25
HETATM   25  C12 UNL     1      46.284  21.639  34.836  1.00  0.00     0.022 C 
BRANCH  25  26
HETATM   26  C13 UNL     1      46.948  20.359  34.749  1.00  0.00     0.031 A 
HETATM   27  C14 UNL     1      46.517  19.071  34.592  1.00  0.00     0.054 A 
HETATM   28  C15 UNL     1      47.662  18.271  34.567  1.00  0.00     0.051 A 
HETATM   29 CL1  UNL     1      47.700  16.540  34.386  1.00  0.00    -0.083 Cl
HETATM   30  C16 UNL     1      48.750  19.063  34.707  1.00  0.00     0.112 A 
HETATM   31  N5  UNL     1      48.333  20.312  34.816  1.00  0.00    -0.364 N 
ATOM     32  H5  UNL     1      48.941  21.124  34.933  1.00  0.00     0.165 HD
ENDBRANCH  25  26
ENDBRANCH  24  25
ENDBRANCH   6  24
TORSDOF 13
ENDMDL
MODEL 2
REMARK VINA RESULT: -5.993896232      2.895      5.660
REMARK  13 active torsions:
REMARK  status: ('A' for Active; 'I' for Inactive)
REMARK    1  A    between atoms: C1_2  and  N2_4 
REMARK    2  A    between atoms: N2_4  and  C2_6 
REMARK    3  A    between atoms: C2_6  and  C3_7 
REMARK    4  A    between atoms: C3_7  and  C4_8 
REMARK    5  A    between atoms: C4_8  and  C5_9 
REMARK    6  A    between atoms: C5_9  and  C6_10 
REMARK    7  A    between atoms: C6_10  and  C7_11 
REMARK    8  A    between atoms: C7_11  and  N3_12 
REMARK    9  A    between atoms: C7_11  and  C18_29 
REMARK   10  A    between atoms: N4_17  and  C11_18 
REMARK   11  A    between atoms: C11_18  and  C12_19 
REMARK   12  A    between atoms: C12_19  and  C13_20 
REMARK   13  A    between atoms: C18_29  and  C19_31 
ROOT
HETATM    1  N3  UNL     1      42.108  20.609  37.720  1.00  0.00    -0.357 N 
ATOM      2  H3  UNL     1      42.907  20.963  38.246  1.00  0.00     0.165 HD
HETATM    3  C8  UNL     1      41.870  19.316  37.970  1.00  0.00     0.079 C 
HETATM    4  C9  UNL     1      40.568  18.805  38.526  1.00  0.00     0.082 C 
HETATM    5  C10 UNL     1      40.808  17.324  38.660  1.00  0.00     0.132 C 
HETATM    6  N4  UNL     1      41.971  16.996  37.833  1.00  0.00    -0.343 N 
HETATM    7  C17 UNL     1      42.349  18.184  37.159  1.00  0.00     0.266 C 
HETATM    8  O1  UNL     1      42.969  18.169  36.080  1.00  0.00    -0.266 OA
ENDROOT
BRANCH   1   9
HETATM    9  C7  UNL     1      41.534  21.584  36.922  1.00  0.00     0.028 C 
BRANCH   9  10
HETATM   10  C6  UNL     1      42.490  22.345  36.032  1.00  0.00     0.058 C 
BRANCH  10  11
HETATM   11  C5  UNL     1      43.720  21.615  35.592  1.00  0.00     0.006 C 
BRANCH  11  12
HETATM   12  C4  UNL     1      44.971  22.435  35.577  1.00  0.00     0.002 C 
BRANCH  12  13
HETATM   13  C3  UNL     1      45.908  21.844  34.508  1.00  0.00     0.020 C 
BRANCH  13  14
HETATM   14  C2  UNL     1      46.512  20.609  35.106  1.00  0.00     0.121 C 
BRANCH  14  15
HETATM   15  N2  UNL     1      47.887  20.380  34.753  1.00  0.00    -0.369 N 
ATOM     16  H2  UNL     1      48.604  20.974  35.172  1.00  0.00     0.161 HD
BRANCH  15  17
HETATM   17  C1  UNL     1      48.290  19.367  33.848  1.00  0.00     0.180 C 
HETATM   18  N1  UNL     1      49.668  19.008  33.684  1.00  0.00    -0.070 NA
HETATM   19  S1  UNL     1      47.178  18.598  32.969  1.00  0.00    -0.044 SA
ENDBRANCH  15  17
ENDBRANCH  14  15
ENDBRANCH  13  14
ENDBRANCH  12  13
ENDBRANCH  11  12
ENDBRANCH  10  11
ENDBRANCH   9  10
BRANCH   9  20
HETATM   20  C18 UNL     1      40.510  22.515  37.464  1.00  0.00     0.048 C 
HETATM   21 CL2  UNL     1      38.832  21.961  37.369  1.00  0.00    -0.086 Cl
BRANCH  20  22
HETATM   22  C19 UNL     1      40.688  23.966  37.071  1.00  0.00     0.167 C 
HETATM   23 CL3  UNL     1      40.573  24.943  38.560  1.00  0.00    -0.125 Cl
ENDBRANCH  20  22
ENDBRANCH   9  20
ENDBRANCH   1   9
BRANCH   6  24
HETATM   24  C11 UNL     1      42.605  15.713  37.764  1.00  0.00     0.155 C 
BRANCH  24  25
HETATM   25  C12 UNL     1      44.009  15.608  38.121  1.00  0.00     0.022 C 
BRANCH  25  26
HETATM   26  C13 UNL     1      45.056  15.344  37.161  1.00  0.00     0.031 A 
HETATM   27  C14 UNL     1      45.732  14.220  36.774  1.00  0.00     0.054 A 
HETATM   28  C15 UNL     1      46.626  14.619  35.778  1.00  0.00     0.051 A 
HETATM   29 CL1  UNL     1      47.741  13.588  34.927  1.00  0.00    -0.083 Cl
HETATM   30  C16 UNL     1      46.487  15.950  35.577  1.00  0.00     0.112 A 
HETATM   31  N5  UNL     1      45.552  16.392  36.398  1.00  0.00    -0.364 N 
ATOM     32  H5  UNL     1      45.239  17.361  36.462  1.00  0.00     0.165 HD
ENDBRANCH  25  26
ENDBRANCH  24  25
ENDBRANCH   6  24
TORSDOF 13
ENDMDL
MODEL 3
REMARK VINA RESULT: -5.943818070      2.139      2.860
REMARK  13 active torsions:
REMARK  status: ('A' for Active; 'I' for Inactive)
REMARK    1  A    between atoms: C1_2  and  N2_4 
REMARK    2  A    between atoms: N2_4  and  C2_6 
REMARK    3  A    between atoms: C2_6  and  C3_7 
REMARK    4  A    between atoms: C3_7  and  C4_8 
REMARK    5  A    between atoms: C4_8  and  C5_9 
REMARK    6  A    between atoms: C5_9  and  C6_10 
REMARK    7  A    between atoms: C6_10  and  C7_11 
REMARK    8  A    between atoms: C7_11  and  N3_12 
REMARK    9  A    between atoms: C7_11  and  C18_29 
REMARK   10  A    between atoms: N4_17  and  C11_18 
REMARK   11  A    between atoms: C11_18  and  C12_19 
REMARK   12  A    between atoms: C12_19  and  C13_20 
REMARK   13  A    between atoms: C18_29  and  C19_31 
ROOT
HETATM    1  N3  UNL     1      42.290  20.670  37.297  1.00  0.00    -0.357 N 
ATOM      2  H3  UNL     1      43.003  20.281  37.915  1.00  0.00     0.165 HD
HETATM    3  C8  UNL     1      42.725  20.788  36.037  1.00  0.00     0.079 C 
HETATM    4  C9  UNL     1      42.066  20.109  34.866  1.00  0.00     0.082 C 
HETATM    5  C10 UNL     1      42.931  20.514  33.701  1.00  0.00     0.132 C 
HETATM    6  N4  UNL     1      43.723  21.669  34.128  1.00  0.00    -0.343 N 
HETATM    7  C17 UNL     1      43.289  22.008  35.435  1.00  0.00     0.266 C 
HETATM    8  O1  UNL     1      43.406  23.157  35.899  1.00  0.00    -0.266 OA
ENDROOT
BRANCH   1   9
HETATM    9  C7  UNL     1      41.111  20.946  37.967  1.00  0.00     0.028 C 
BRANCH   9  10
HETATM   10  C6  UNL     1      40.446  19.764  38.633  1.00  0.00     0.058 C 
BRANCH  10  11
HETATM   11  C5  UNL     1      41.350  18.771  39.292  1.00  0.00     0.006 C 
BRANCH  11  12
HETATM   12  C4  UNL     1      41.343  17.405  38.682  1.00  0.00     0.002 C 
BRANCH  12  13
HETATM   13  C3  UNL     1      42.778  16.854  38.745  1.00  0.00     0.020 C 
BRANCH  13  14
HETATM   14  C2  UNL     1      42.703  15.551  39.485  1.00  0.00     0.121 C 
BRANCH  14  15
HETATM   15  N2  UNL     1      43.821  14.672  39.269  1.00  0.00    -0.369 N 
ATOM     16  H2  UNL     1      44.254  14.226  40.078  1.00  0.00     0.161 HD
BRANCH  15  17
HETATM   17  C1  UNL     1      44.347  14.399  37.982  1.00  0.00     0.180 C 
HETATM   18  N1  UNL     1      45.608  14.929  37.556  1.00  0.00    -0.070 NA
HETATM   19  S1  UNL     1      43.507  13.476  36.960  1.00  0.00    -0.044 SA
ENDBRANCH  15  17
ENDBRANCH  14  15
ENDBRANCH  13  14
ENDBRANCH  12  13
ENDBRANCH  11  12
ENDBRANCH  10  11
ENDBRANCH   9  10
BRANCH   9  20
HETATM   20  C18 UNL     1      40.075  21.828  37.366  1.00  0.00     0.048 C 
HETATM   21 CL2  UNL     1      40.208  23.550  37.750  1.00  0.00    -0.086 Cl
BRANCH  20  22
HETATM   22  C19 UNL     1      38.658  21.301  37.446  1.00  0.00     0.167 C 
HETATM   23 CL3  UNL     1      38.318  20.450  35.914  1.00  0.00    -0.125 Cl
ENDBRANCH  20  22
ENDBRANCH   9  20
ENDBRANCH   1   9
BRANCH   6  24
HETATM   24  C11 UNL     1      44.756  22.298  33.362  1.00  0.00     0.155 C 
BRANCH  24  25
HETATM   25  C12 UNL     1      46.139  22.096  33.755  1.00  0.00     0.022 C 
BRANCH  25  26
HETATM   26  C13 UNL     1      46.724  20.791  33.964  1.00  0.00     0.031 A 
HETATM   27  C14 UNL     1      46.473  19.544  33.465  1.00  0.00     0.054 A 
HETATM   28  C15 UNL     1      47.406  18.686  34.053  1.00  0.00     0.051 A 
HETATM   29 CL1  UNL     1      47.545  16.974  33.774  1.00  0.00    -0.083 Cl
HETATM   30  C16 UNL     1      48.194  19.407  34.885  1.00  0.00     0.112 A 
HETATM   31  N5  UNL     1      47.795  20.665  34.838  1.00  0.00    -0.364 N 
ATOM     32  H5  UNL     1      48.212  21.432  35.366  1.00  0.00     0.165 HD
ENDBRANCH  25  26
ENDBRANCH  24  25
ENDBRANCH   6  24
TORSDOF 13
ENDMDL
MODEL 4
REMARK VINA RESULT: -5.916609621      3.240      3.783
REMARK  13 active torsions:
REMARK  status: ('A' for Active; 'I' for Inactive)
REMARK    1  A    between atoms: C1_2  and  N2_4 
REMARK    2  A    between atoms: N2_4  and  C2_6 
REMARK    3  A    between atoms: C2_6  and  C3_7 
REMARK    4  A    between atoms: C3_7  and  C4_8 
REMARK    5  A    between atoms: C4_8  and  C5_9 
REMARK    6  A    between atoms: C5_9  and  C6_10 
REMARK    7  A    between atoms: C6_10  and  C7_11 
REMARK    8  A    between atoms: C7_11  and  N3_12 
REMARK    9  A    between atoms: C7_11  and  C18_29 
REMARK   10  A    between atoms: N4_17  and  C11_18 
REMARK   11  A    between atoms: C11_18  and  C12_19 
REMARK   12  A    between atoms: C12_19  and  C13_20 
REMARK   13  A    between atoms: C18_29  and  C19_31 
ROOT
HETATM    1  N3  UNL     1      41.640  21.884  37.850  1.00  0.00    -0.357 N 
ATOM      2  H3  UNL     1      42.164  21.658  38.695  1.00  0.00     0.165 HD
HETATM    3  C8  UNL     1      42.310  21.559  36.738  1.00  0.00     0.079 C 
HETATM    4  C9  UNL     1      41.787  20.595  35.705  1.00  0.00     0.082 C 
HETATM    5  C10 UNL     1      42.900  20.538  34.693  1.00  0.00     0.132 C 
HETATM    6  N4  UNL     1      43.757  21.703  34.921  1.00  0.00    -0.343 N 
HETATM    7  C17 UNL     1      43.144  22.474  35.940  1.00  0.00     0.266 C 
HETATM    8  O1  UNL     1      43.337  23.699  36.057  1.00  0.00    -0.266 OA
ENDROOT
BRANCH   1   9
HETATM    9  C7  UNL     1      40.409  22.451  38.133  1.00  0.00     0.028 C 
BRANCH   9  10
HETATM   10  C6  UNL     1      39.230  21.848  37.406  1.00  0.00     0.058 C 
BRANCH  10  11
HETATM   11  C5  UNL     1      38.783  20.495  37.864  1.00  0.00     0.006 C 
BRANCH  11  12
HETATM   12  C4  UNL     1      37.621  19.925  37.114  1.00  0.00     0.002 C 
BRANCH  12  13
HETATM   13  C3  UNL     1      36.932  21.080  36.365  1.00  0.00     0.020 C 
BRANCH  13  14
HETATM   14  C2  UNL     1      36.584  20.558  35.003  1.00  0.00     0.121 C 
BRANCH  14  15
HETATM   15  N2  UNL     1      35.658  21.373  34.265  1.00  0.00    -0.369 N 
ATOM     16  H2  UNL     1      34.773  21.626  34.704  1.00  0.00     0.161 HD
BRANCH  15  17
HETATM   17  C1  UNL     1      35.923  21.840  32.953  1.00  0.00     0.180 C 
HETATM   18  N1  UNL     1      37.116  21.473  32.249  1.00  0.00    -0.070 NA
HETATM   19  S1  UNL     1      34.864  22.818  32.229  1.00  0.00    -0.044 SA
ENDBRANCH  15  17
ENDBRANCH  14  15
ENDBRANCH  13  14
ENDBRANCH  12  13
ENDBRANCH  11  12
ENDBRANCH  10  11
ENDBRANCH   9  10
BRANCH   9  20
HETATM   20  C18 UNL     1      40.244  23.926  38.211  1.00  0.00     0.048 C 
HETATM   21 CL2  UNL     1      39.956  24.756  36.675  1.00  0.00    -0.086 Cl
BRANCH  20  22
HETATM   22  C19 UNL     1      41.241  24.638  39.102  1.00  0.00     0.167 C 
HETATM   23 CL3  UNL     1      40.887  26.385  39.012  1.00  0.00    -0.125 Cl
ENDBRANCH  20  22
ENDBRANCH   9  20
ENDBRANCH   1   9
BRANCH   6  24
HETATM   24  C11 UNL     1      44.992  21.971  34.248  1.00  0.00     0.155 C 
BRANCH  24  25
HETATM   25  C12 UNL     1      46.238  21.654  34.922  1.00  0.00     0.022 C 
BRANCH  25  26
HETATM   26  C13 UNL     1      46.909  20.380  34.797  1.00  0.00     0.031 A 
HETATM   27  C14 UNL     1      46.486  19.099  34.579  1.00  0.00     0.054 A 
HETATM   28  C15 UNL     1      47.633  18.303  34.544  1.00  0.00     0.051 A 
HETATM   29 CL1  UNL     1      47.681  16.581  34.294  1.00  0.00    -0.083 Cl
HETATM   30  C16 UNL     1      48.715  19.092  34.738  1.00  0.00     0.112 A 
HETATM   31  N5  UNL     1      48.293  20.335  34.889  1.00  0.00    -0.364 N 
ATOM     32  H5  UNL     1      48.895  21.142  35.050  1.00  0.00     0.165 HD
ENDBRANCH  25  26
ENDBRANCH  24  25
ENDBRANCH   6  24
TORSDOF 13
ENDMDL
MODEL 5
REMARK VINA RESULT: -5.900058245      3.095      4.235
REMARK  13 active torsions:
REMARK  status: ('A' for Active; 'I' for Inactive)
REMARK    1  A    between atoms: C1_2  and  N2_4 
REMARK    2  A    between atoms: N2_4  and  C2_6 
REMARK    3  A    between atoms: C2_6  and  C3_7 
REMARK    4  A    between atoms: C3_7  and  C4_8 
REMARK    5  A    between atoms: C4_8  and  C5_9 
REMARK    6  A    between atoms: C5_9  and  C6_10 
REMARK    7  A    between atoms: C6_10  and  C7_11 
REMARK    8  A    between atoms: C7_11  and  N3_12 
REMARK    9  A    between atoms: C7_11  and  C18_29 
REMARK   10  A    between atoms: N4_17  and  C11_18 
REMARK   11  A    between atoms: C11_18  and  C12_19 
REMARK   12  A    between atoms: C12_19  and  C13_20 
REMARK   13  A    between atoms: C18_29  and  C19_31 
ROOT
HETATM    1  N3  UNL     1      41.806  20.700  37.955  1.00  0.00    -0.357 N 
ATOM      2  H3  UNL     1      42.332  20.658  38.828  1.00  0.00     0.165 HD
HETATM    3  C8  UNL     1      42.607  20.759  36.884  1.00  0.00     0.079 C 
HETATM    4  C9  UNL     1      42.592  19.736  35.780  1.00  0.00     0.082 C 
HETATM    5  C10 UNL     1      43.676  20.215  34.851  1.00  0.00     0.132 C 
HETATM    6  N4  UNL     1      43.950  21.613  35.187  1.00  0.00    -0.343 N 
HETATM    7  C17 UNL     1      43.019  21.989  36.187  1.00  0.00     0.266 C 
HETATM    8  O1  UNL     1      42.673  23.172  36.365  1.00  0.00    -0.266 OA
ENDROOT
BRANCH   1   9
HETATM    9  C7  UNL     1      40.439  20.683  38.167  1.00  0.00     0.028 C 
BRANCH   9  10
HETATM   10  C6  UNL     1      39.830  19.318  38.386  1.00  0.00     0.058 C 
BRANCH  10  11
HETATM   11  C5  UNL     1      40.651  18.335  39.161  1.00  0.00     0.006 C 
BRANCH  11  12
HETATM   12  C4  UNL     1      41.214  17.207  38.356  1.00  0.00     0.002 C 
BRANCH  12  13
HETATM   13  C3  UNL     1      42.635  16.924  38.873  1.00  0.00     0.020 C 
BRANCH  13  14
HETATM   14  C2  UNL     1      42.600  15.560  39.494  1.00  0.00     0.121 C 
BRANCH  14  15
HETATM   15  N2  UNL     1      43.761  14.751  39.237  1.00  0.00    -0.369 N 
ATOM     16  H2  UNL     1      44.322  14.437  40.030  1.00  0.00     0.161 HD
BRANCH  15  17
HETATM   17  C1  UNL     1      44.159  14.372  37.931  1.00  0.00     0.180 C 
HETATM   18  N1  UNL     1      43.378  13.468  37.139  1.00  0.00    -0.070 NA
HETATM   19  S1  UNL     1      45.529  14.960  37.315  1.00  0.00    -0.044 SA
ENDBRANCH  15  17
ENDBRANCH  14  15
ENDBRANCH  13  14
ENDBRANCH  12  13
ENDBRANCH  11  12
ENDBRANCH  10  11
ENDBRANCH   9  10
BRANCH   9  20
HETATM   20  C18 UNL     1      39.523  21.510  37.338  1.00  0.00     0.048 C 
HETATM   21 CL2  UNL     1      39.631  23.260  37.576  1.00  0.00    -0.086 Cl
BRANCH  20  22
HETATM   22  C19 UNL     1      38.099  21.002  37.252  1.00  0.00     0.167 C 
HETATM   23 CL3  UNL     1      37.856  20.370  35.600  1.00  0.00    -0.125 Cl
ENDBRANCH  20  22
ENDBRANCH   9  20
ENDBRANCH   1   9
BRANCH   6  24
HETATM   24  C11 UNL     1      44.991  22.416  34.618  1.00  0.00     0.155 C 
BRANCH  24  25
HETATM   25  C12 UNL     1      45.567  22.015  33.347  1.00  0.00     0.022 C 
BRANCH  25  26
HETATM   26  C13 UNL     1      45.829  22.937  32.266  1.00  0.00     0.031 A 
HETATM   27  C14 UNL     1      45.038  23.677  31.432  1.00  0.00     0.054 A 
HETATM   28  C15 UNL     1      45.901  24.393  30.598  1.00  0.00     0.051 A 
HETATM   29 CL1  UNL     1      45.429  25.500  29.341  1.00  0.00    -0.083 Cl
HETATM   30  C16 UNL     1      47.177  24.085  30.927  1.00  0.00     0.112 A 
HETATM   31  N5  UNL     1      47.144  23.217  31.922  1.00  0.00    -0.364 N 
ATOM     32  H5  UNL     1      47.965  22.811  32.372  1.00  0.00     0.165 HD
ENDBRANCH  25  26
ENDBRANCH  24  25
ENDBRANCH   6  24
TORSDOF 13
ENDMDL
