MODEL 1
REMARK VINA RESULT: -5.476878822      0.000      0.000
REMARK  12 active torsions:
REMARK  status: ('A' for Active; 'I' for Inactive)
REMARK    1  A    between atoms: C2_2  and  C3_3 
REMARK    2  A    between atoms: C3_3  and  C4_4 
REMARK    3  A    between atoms: C4_4  and  N1_5 
REMARK    4  A    between atoms: N1_5  and  C5_8 
REMARK    5  A    between atoms: C5_8  and  C6_9 
REMARK    6  A    between atoms: C6_9  and  C7_10 
REMARK    7  A    between atoms: C7_10  and  C8_11 
REMARK    8  A    between atoms: C8_11  and  N2_12 
REMARK    9  A    between atoms: N2_12  and  C9_14 
REMARK   10  A    between atoms: C9_14  and  C10_15 
REMARK   11  A    between atoms: C10_15  and  N3_16 
REMARK       I    between atoms: N3_16  and  C11_18 
REMARK   12  A    between atoms: C11_18  and  C12_20 
ROOT
HETATM    1  C9  UNL     1      47.804  20.084  35.326  1.00  0.00     0.133 C 
ENDROOT
BRANCH   1   2
HETATM    2  N2  UNL     1      47.421  18.718  35.305  1.00  0.00    -0.420 N 
ATOM      3  H2  UNL     1      46.914  18.301  36.085  1.00  0.00     0.153 HD
BRANCH   2   4
HETATM    4  C8  UNL     1      47.769  17.949  34.155  1.00  0.00     0.113 C 
BRANCH   4   5
HETATM    5  C7  UNL     1      47.518  16.493  34.401  1.00  0.00     0.021 C 
BRANCH   5   6
HETATM    6  C6  UNL     1      46.364  16.222  35.323  1.00  0.00     0.029 C 
BRANCH   6   7
HETATM    7  C5  UNL     1      46.577  14.943  36.116  1.00  0.00     0.232 C 
BRANCH   7   8
HETATM    8  N1  UNL     1      46.094  15.101  37.436  1.00  0.00    -0.075 N 
ATOM      9  H12 UNL     1      45.847  16.074  37.615  1.00  0.00     0.277 HD
ATOM     10  H11 UNL     1      46.850  14.991  38.112  1.00  0.00     0.277 HD
BRANCH   8  11
HETATM   11  C4  UNL     1      45.006  14.239  37.753  1.00  0.00     0.232 C 
BRANCH  11  12
HETATM   12  C3  UNL     1      44.015  14.920  38.668  1.00  0.00     0.027 C 
BRANCH  12  13
HETATM   13  C2  UNL     1      43.381  16.072  37.923  1.00  0.00    -0.003 C 
HETATM   14  C1  UNL     1      42.637  16.897  38.958  1.00  0.00     0.005 C 
ENDBRANCH  12  13
ENDBRANCH  11  12
ENDBRANCH   8  11
ENDBRANCH   7   8
ENDBRANCH   6   7
ENDBRANCH   5   6
ENDBRANCH   4   5
ENDBRANCH   2   4
ENDBRANCH   1   2
BRANCH   1  15
HETATM   15  C10 UNL     1      46.842  20.968  34.601  1.00  0.00     0.142 C 
BRANCH  15  16
HETATM   16  N3  UNL     1      45.598  21.065  35.339  1.00  0.00    -0.354 N 
HETATM   17  C11 UNL     1      44.558  21.970  34.993  1.00  0.00     0.270 C 
HETATM   18  O1  UNL     1      44.678  22.741  34.032  1.00  0.00    -0.266 OA
ATOM     19  H3  UNL     1      45.462  20.454  36.144  1.00  0.00     0.162 HD
BRANCH  17  20
HETATM   20  C12 UNL     1      43.336  21.970  35.801  1.00  0.00     0.125 A 
HETATM   21  N4  UNL     1      42.655  23.056  36.223  1.00  0.00    -0.343 N 
HETATM   22  C13 UNL     1      41.591  22.691  36.944  1.00  0.00     0.099 A 
ATOM     23  H4  UNL     1      42.916  24.021  36.020  1.00  0.00     0.167 HD
HETATM   24 BR1  UNL     1      40.297  23.804  37.780  1.00  0.00    -0.030 Br
HETATM   25  C14 UNL     1      41.592  21.321  36.984  1.00  0.00     0.069 A 
HETATM   26 BR2  UNL     1      40.271  20.266  37.903  1.00  0.00    -0.046 Br
HETATM   27  C15 UNL     1      42.687  20.859  36.267  1.00  0.00     0.086 A 
HETATM   28 CL1  UNL     1      43.123  19.201  36.022  1.00  0.00    -0.080 Cl
ENDBRANCH  17  20
ENDBRANCH  15  16
ENDBRANCH   1  15
TORSDOF 12
ENDMDL
MODEL 2
REMARK VINA RESULT: -5.439043798      5.260      7.925
REMARK  12 active torsions:
REMARK  status: ('A' for Active; 'I' for Inactive)
REMARK    1  A    between atoms: C2_2  and  C3_3 
REMARK    2  A    between atoms: C3_3  and  C4_4 
REMARK    3  A    between atoms: C4_4  and  N1_5 
REMARK    4  A    between atoms: N1_5  and  C5_8 
REMARK    5  A    between atoms: C5_8  and  C6_9 
REMARK    6  A    between atoms: C6_9  and  C7_10 
REMARK    7  A    between atoms: C7_10  and  C8_11 
REMARK    8  A    between atoms: C8_11  and  N2_12 
REMARK    9  A    between atoms: N2_12  and  C9_14 
REMARK   10  A    between atoms: C9_14  and  C10_15 
REMARK   11  A    between atoms: C10_15  and  N3_16 
REMARK       I    between atoms: N3_16  and  C11_18 
REMARK   12  A    between atoms: C11_18  and  C12_20 
ROOT
HETATM    1  C9  UNL     1      38.160  21.507  37.119  1.00  0.00     0.133 C 
ENDROOT
BRANCH   1   2
HETATM    2  N2  UNL     1      37.407  20.383  37.543  1.00  0.00    -0.420 N 
ATOM      3  H2  UNL     1      37.562  19.957  38.457  1.00  0.00     0.153 HD
BRANCH   2   4
HETATM    4  C8  UNL     1      36.423  19.868  36.647  1.00  0.00     0.113 C 
BRANCH   4   5
HETATM    5  C7  UNL     1      36.850  18.538  36.105  1.00  0.00     0.021 C 
BRANCH   5   6
HETATM    6  C6  UNL     1      37.609  17.695  37.089  1.00  0.00     0.029 C 
BRANCH   6   7
HETATM    7  C5  UNL     1      36.737  16.588  37.657  1.00  0.00     0.232 C 
BRANCH   7   8
HETATM    8  N1  UNL     1      36.656  16.705  39.064  1.00  0.00    -0.075 N 
ATOM      9  H12 UNL     1      37.542  17.029  39.451  1.00  0.00     0.277 HD
ATOM     10  H11 UNL     1      36.607  15.784  39.500  1.00  0.00     0.277 HD
BRANCH   8  11
HETATM   11  C4  UNL     1      35.582  17.529  39.508  1.00  0.00     0.232 C 
BRANCH  11  12
HETATM   12  C3  UNL     1      35.963  18.307  40.746  1.00  0.00     0.027 C 
BRANCH  12  13
HETATM   13  C2  UNL     1      35.265  17.692  41.937  1.00  0.00    -0.003 C 
HETATM   14  C1  UNL     1      36.354  17.120  42.827  1.00  0.00     0.005 C 
ENDBRANCH  12  13
ENDBRANCH  11  12
ENDBRANCH   8  11
ENDBRANCH   7   8
ENDBRANCH   6   7
ENDBRANCH   5   6
ENDBRANCH   4   5
ENDBRANCH   2   4
ENDBRANCH   1   2
BRANCH   1  15
HETATM   15  C10 UNL     1      39.462  21.640  37.842  1.00  0.00     0.142 C 
BRANCH  15  16
HETATM   16  N3  UNL     1      40.156  20.368  37.862  1.00  0.00    -0.354 N 
HETATM   17  C11 UNL     1      41.573  20.256  37.842  1.00  0.00     0.270 C 
HETATM   18  O1  UNL     1      42.291  21.263  37.795  1.00  0.00    -0.266 OA
ATOM     19  H3  UNL     1      39.602  19.513  37.890  1.00  0.00     0.162 HD
BRANCH  17  20
HETATM   20  C12 UNL     1      42.167  18.917  37.880  1.00  0.00     0.125 A 
HETATM   21  N4  UNL     1      42.086  18.034  38.896  1.00  0.00    -0.343 N 
HETATM   22  C13 UNL     1      42.749  16.914  38.598  1.00  0.00     0.099 A 
ATOM     23  H4  UNL     1      41.586  18.198  39.771  1.00  0.00     0.167 HD
HETATM   24 BR1  UNL     1      42.964  15.353  39.661  1.00  0.00    -0.030 Br
HETATM   25  C14 UNL     1      43.275  17.088  37.344  1.00  0.00     0.069 A 
HETATM   26 BR2  UNL     1      44.335  15.771  36.424  1.00  0.00    -0.046 Br
HETATM   27  C15 UNL     1      42.914  18.346  36.885  1.00  0.00     0.086 A 
HETATM   28 CL1  UNL     1      43.332  19.035  35.352  1.00  0.00    -0.080 Cl
ENDBRANCH  17  20
ENDBRANCH  15  16
ENDBRANCH   1  15
TORSDOF 12
ENDMDL
MODEL 3
REMARK VINA RESULT: -5.318169142      3.806      6.970
REMARK  12 active torsions:
REMARK  status: ('A' for Active; 'I' for Inactive)
REMARK    1  A    between atoms: C2_2  and  C3_3 
REMARK    2  A    between atoms: C3_3  and  C4_4 
REMARK    3  A    between atoms: C4_4  and  N1_5 
REMARK    4  A    between atoms: N1_5  and  C5_8 
REMARK    5  A    between atoms: C5_8  and  C6_9 
REMARK    6  A    between atoms: C6_9  and  C7_10 
REMARK    7  A    between atoms: C7_10  and  C8_11 
REMARK    8  A    between atoms: C8_11  and  N2_12 
REMARK    9  A    between atoms: N2_12  and  C9_14 
REMARK   10  A    between atoms: C9_14  and  C10_15 
REMARK   11  A    between atoms: C10_15  and  N3_16 
REMARK       I    between atoms: N3_16  and  C11_18 
REMARK   12  A    between atoms: C11_18  and  C12_20 
ROOT
HETATM    1  C9  UNL     1      43.284  22.539  35.799  1.00  0.00     0.133 C 
ENDROOT
BRANCH   1   2
HETATM    2  N2  UNL     1      42.155  22.444  36.652  1.00  0.00    -0.420 N 
ATOM      3  H2  UNL     1      41.966  21.594  37.183  1.00  0.00     0.153 HD
BRANCH   2   4
HETATM    4  C8  UNL     1      41.295  23.578  36.743  1.00  0.00     0.113 C 
BRANCH   4   5
HETATM    5  C7  UNL     1      40.125  23.281  37.631  1.00  0.00     0.021 C 
BRANCH   5   6
HETATM    6  C6  UNL     1      39.926  21.819  37.906  1.00  0.00     0.029 C 
BRANCH   6   7
HETATM    7  C5  UNL     1      38.614  21.320  37.324  1.00  0.00     0.232 C 
BRANCH   7   8
HETATM    8  N1  UNL     1      37.940  20.509  38.265  1.00  0.00    -0.075 N 
ATOM      9  H12 UNL     1      36.956  20.771  38.328  1.00  0.00     0.277 HD
ATOM     10  H11 UNL     1      38.236  20.735  39.215  1.00  0.00     0.277 HD
BRANCH   8  11
HETATM   11  C4  UNL     1      38.073  19.113  38.016  1.00  0.00     0.232 C 
BRANCH  11  12
HETATM   12  C3  UNL     1      37.921  18.312  39.289  1.00  0.00     0.027 C 
BRANCH  12  13
HETATM   13  C2  UNL     1      36.516  18.499  39.812  1.00  0.00    -0.003 C 
HETATM   14  C1  UNL     1      36.496  17.914  41.213  1.00  0.00     0.005 C 
ENDBRANCH  12  13
ENDBRANCH  11  12
ENDBRANCH   8  11
ENDBRANCH   7   8
ENDBRANCH   6   7
ENDBRANCH   5   6
ENDBRANCH   4   5
ENDBRANCH   2   4
ENDBRANCH   1   2
BRANCH   1  15
HETATM   15  C10 UNL     1      43.379  21.402  34.833  1.00  0.00     0.142 C 
BRANCH  15  16
HETATM   16  N3  UNL     1      43.653  20.166  35.538  1.00  0.00    -0.354 N 
HETATM   17  C11 UNL     1      42.637  19.254  35.931  1.00  0.00     0.270 C 
HETATM   18  O1  UNL     1      41.445  19.486  35.692  1.00  0.00    -0.266 OA
ATOM     19  H3  UNL     1      44.622  19.941  35.763  1.00  0.00     0.162 HD
BRANCH  17  20
HETATM   20  C12 UNL     1      43.033  18.026  36.626  1.00  0.00     0.125 A 
HETATM   21  N4  UNL     1      43.859  17.070  36.155  1.00  0.00    -0.343 N 
HETATM   22  C13 UNL     1      43.995  16.087  37.049  1.00  0.00     0.099 A 
ATOM     23  H4  UNL     1      44.316  17.094  35.244  1.00  0.00     0.167 HD
HETATM   24 BR1  UNL     1      45.031  14.499  36.905  1.00  0.00    -0.030 Br
HETATM   25  C14 UNL     1      43.228  16.427  38.132  1.00  0.00     0.069 A 
HETATM   26 BR2  UNL     1      43.057  15.351  39.718  1.00  0.00    -0.046 Br
HETATM   27  C15 UNL     1      42.618  17.647  37.875  1.00  0.00     0.086 A 
HETATM   28 CL1  UNL     1      41.552  18.502  38.938  1.00  0.00    -0.080 Cl
ENDBRANCH  17  20
ENDBRANCH  15  16
ENDBRANCH   1  15
TORSDOF 12
ENDMDL
MODEL 4
REMARK VINA RESULT: -5.316019047      4.896      7.272
REMARK  12 active torsions:
REMARK  status: ('A' for Active; 'I' for Inactive)
REMARK    1  A    between atoms: C2_2  and  C3_3 
REMARK    2  A    between atoms: C3_3  and  C4_4 
REMARK    3  A    between atoms: C4_4  and  N1_5 
REMARK    4  A    between atoms: N1_5  and  C5_8 
REMARK    5  A    between atoms: C5_8  and  C6_9 
REMARK    6  A    between atoms: C6_9  and  C7_10 
REMARK    7  A    between atoms: C7_10  and  C8_11 
REMARK    8  A    between atoms: C8_11  and  N2_12 
REMARK    9  A    between atoms: N2_12  and  C9_14 
REMARK   10  A    between atoms: C9_14  and  C10_15 
REMARK   11  A    between atoms: C10_15  and  N3_16 
REMARK       I    between atoms: N3_16  and  C11_18 
REMARK   12  A    between atoms: C11_18  and  C12_20 
ROOT
HETATM    1  C9  UNL     1      40.839  21.669  37.196  1.00  0.00     0.133 C 
ENDROOT
BRANCH   1   2
HETATM    2  N2  UNL     1      41.474  21.016  38.283  1.00  0.00    -0.420 N 
ATOM      3  H2  UNL     1      42.050  21.534  38.947  1.00  0.00     0.153 HD
BRANCH   2   4
HETATM    4  C8  UNL     1      41.277  19.609  38.417  1.00  0.00     0.113 C 
BRANCH   4   5
HETATM    5  C7  UNL     1      39.885  19.231  38.012  1.00  0.00     0.021 C 
BRANCH   5   6
HETATM    6  C6  UNL     1      39.045  18.704  39.139  1.00  0.00     0.029 C 
BRANCH   6   7
HETATM    7  C5  UNL     1      37.600  18.514  38.710  1.00  0.00     0.232 C 
BRANCH   7   8
HETATM    8  N1  UNL     1      36.726  19.000  39.711  1.00  0.00    -0.075 N 
ATOM      9  H12 UNL     1      36.493  19.978  39.542  1.00  0.00     0.277 HD
ATOM     10  H11 UNL     1      37.215  19.093  40.602  1.00  0.00     0.277 HD
BRANCH   8  11
HETATM   11  C4  UNL     1      35.545  18.220  39.865  1.00  0.00     0.232 C 
BRANCH  11  12
HETATM   12  C3  UNL     1      35.024  18.287  41.282  1.00  0.00     0.027 C 
BRANCH  12  13
HETATM   13  C2  UNL     1      35.318  16.974  41.968  1.00  0.00    -0.003 C 
HETATM   14  C1  UNL     1      36.522  17.213  42.860  1.00  0.00     0.005 C 
ENDBRANCH  12  13
ENDBRANCH  11  12
ENDBRANCH   8  11
ENDBRANCH   7   8
ENDBRANCH   6   7
ENDBRANCH   5   6
ENDBRANCH   4   5
ENDBRANCH   2   4
ENDBRANCH   1   2
BRANCH   1  15
HETATM   15  C10 UNL     1      41.768  22.555  36.429  1.00  0.00     0.142 C 
BRANCH  15  16
HETATM   16  N3  UNL     1      42.799  21.766  35.788  1.00  0.00    -0.354 N 
HETATM   17  C11 UNL     1      44.085  22.280  35.466  1.00  0.00     0.270 C 
HETATM   18  O1  UNL     1      44.381  23.455  35.716  1.00  0.00    -0.266 OA
ATOM     19  H3  UNL     1      42.593  20.794  35.556  1.00  0.00     0.162 HD
BRANCH  17  20
HETATM   20  C12 UNL     1      45.056  21.385  34.832  1.00  0.00     0.125 A 
HETATM   21  N4  UNL     1      46.226  20.970  35.359  1.00  0.00    -0.343 N 
HETATM   22  C13 UNL     1      46.865  20.165  34.506  1.00  0.00     0.099 A 
ATOM     23  H4  UNL     1      46.574  21.234  36.281  1.00  0.00     0.167 HD
HETATM   24 BR1  UNL     1      48.546  19.306  34.731  1.00  0.00    -0.030 Br
HETATM   25  C14 UNL     1      46.074  20.061  33.392  1.00  0.00     0.069 A 
HETATM   26 BR2  UNL     1      46.524  19.017  31.839  1.00  0.00    -0.046 Br
HETATM   27  C15 UNL     1      44.932  20.826  33.588  1.00  0.00     0.086 A 
HETATM   28 CL1  UNL     1      43.624  21.017  32.470  1.00  0.00    -0.080 Cl
ENDBRANCH  17  20
ENDBRANCH  15  16
ENDBRANCH   1  15
TORSDOF 12
ENDMDL
MODEL 5
REMARK VINA RESULT: -5.299923403      3.774      4.283
REMARK  12 active torsions:
REMARK  status: ('A' for Active; 'I' for Inactive)
REMARK    1  A    between atoms: C2_2  and  C3_3 
REMARK    2  A    between atoms: C3_3  and  C4_4 
REMARK    3  A    between atoms: C4_4  and  N1_5 
REMARK    4  A    between atoms: N1_5  and  C5_8 
REMARK    5  A    between atoms: C5_8  and  C6_9 
REMARK    6  A    between atoms: C6_9  and  C7_10 
REMARK    7  A    between atoms: C7_10  and  C8_11 
REMARK    8  A    between atoms: C8_11  and  N2_12 
REMARK    9  A    between atoms: N2_12  and  C9_14 
REMARK   10  A    between atoms: C9_14  and  C10_15 
REMARK   11  A    between atoms: C10_15  and  N3_16 
REMARK       I    between atoms: N3_16  and  C11_18 
REMARK   12  A    between atoms: C11_18  and  C12_20 
ROOT
HETATM    1  C9  UNL     1      47.663  18.794  35.014  1.00  0.00     0.133 C 
ENDROOT
BRANCH   1   2
HETATM    2  N2  UNL     1      48.962  18.227  35.069  1.00  0.00    -0.420 N 
ATOM      3  H2  UNL     1      49.785  18.808  35.231  1.00  0.00     0.153 HD
BRANCH   2   4
HETATM    4  C8  UNL     1      49.078  16.817  34.889  1.00  0.00     0.113 C 
BRANCH   4   5
HETATM    5  C7  UNL     1      47.768  16.232  34.456  1.00  0.00     0.021 C 
BRANCH   5   6
HETATM    6  C6  UNL     1      47.259  15.146  35.359  1.00  0.00     0.029 C 
BRANCH   6   7
HETATM    7  C5  UNL     1      46.146  15.653  36.260  1.00  0.00     0.232 C 
BRANCH   7   8
HETATM    8  N1  UNL     1      46.138  14.934  37.478  1.00  0.00    -0.075 N 
ATOM      9  H12 UNL     1      46.749  15.380  38.163  1.00  0.00     0.277 HD
ATOM     10  H11 UNL     1      46.623  14.043  37.373  1.00  0.00     0.277 HD
BRANCH   8  11
HETATM   11  C4  UNL     1      44.835  14.738  38.018  1.00  0.00     0.232 C 
BRANCH  11  12
HETATM   12  C3  UNL     1      43.847  15.724  37.438  1.00  0.00     0.027 C 
BRANCH  12  13
HETATM   13  C2  UNL     1      42.995  16.271  38.560  1.00  0.00    -0.003 C 
HETATM   14  C1  UNL     1      43.119  15.291  39.712  1.00  0.00     0.005 C 
ENDBRANCH  12  13
ENDBRANCH  11  12
ENDBRANCH   8  11
ENDBRANCH   7   8
ENDBRANCH   6   7
ENDBRANCH   5   6
ENDBRANCH   4   5
ENDBRANCH   2   4
ENDBRANCH   1   2
BRANCH   1  15
HETATM   15  C10 UNL     1      47.662  20.268  35.260  1.00  0.00     0.142 C 
BRANCH  15  16
HETATM   16  N3  UNL     1      47.227  20.974  34.072  1.00  0.00    -0.354 N 
HETATM   17  C11 UNL     1      46.276  22.029  34.099  1.00  0.00     0.270 C 
HETATM   18  O1  UNL     1      45.757  22.392  35.162  1.00  0.00    -0.266 OA
ATOM     19  H3  UNL     1      47.623  20.700  33.173  1.00  0.00     0.162 HD
BRANCH  17  20
HETATM   20  C12 UNL     1      45.922  22.683  32.836  1.00  0.00     0.125 A 
HETATM   21  N4  UNL     1      46.648  23.615  32.186  1.00  0.00    -0.343 N 
HETATM   22  C13 UNL     1      46.026  23.999  31.068  1.00  0.00     0.099 A 
ATOM     23  H4  UNL     1      47.548  23.977  32.503  1.00  0.00     0.167 HD
HETATM   24 BR1  UNL     1      46.593  25.282  29.785  1.00  0.00    -0.030 Br
HETATM   25  C14 UNL     1      44.858  23.285  31.001  1.00  0.00     0.069 A 
HETATM   26 BR2  UNL     1      43.568  23.454  29.583  1.00  0.00    -0.046 Br
HETATM   27  C15 UNL     1      44.784  22.454  32.110  1.00  0.00     0.086 A 
HETATM   28 CL1  UNL     1      43.500  21.352  32.479  1.00  0.00    -0.080 Cl
ENDBRANCH  17  20
ENDBRANCH  15  16
ENDBRANCH   1  15
TORSDOF 12
ENDMDL
