MODEL 1
REMARK VINA RESULT: -6.951354893      0.000      0.000
REMARK  15 active torsions:
REMARK  status: ('A' for Active; 'I' for Inactive)
REMARK    1  A    between atoms: C2_2  and  C4_4 
REMARK    2  A    between atoms: C4_4  and  C5_5 
REMARK    3  A    between atoms: C4_4  and  N5_38 
REMARK    4  A    between atoms: C5_5  and  C6_6 
REMARK    5  A    between atoms: C6_6  and  C7_7 
REMARK    6  A    between atoms: C7_7  and  C8_8 
REMARK    7  A    between atoms: C7_7  and  C18_28 
REMARK    8  A    between atoms: C9_9  and  C10_10 
REMARK    9  A    between atoms: C12_15  and  C13_16 
REMARK   10  A    between atoms: C13_16  and  C14_17 
REMARK   11  A    between atoms: C14_17  and  C15_18 
REMARK   12  A    between atoms: C15_18  and  C16_19 
REMARK   13  A    between atoms: C16_19  and  N2_20 
REMARK   14  A    between atoms: C18_28  and  C19_29 
REMARK   15  A    between atoms: N5_38  and  N6_39 
ROOT
HETATM    1  C7  UNL     1      38.222  18.090  38.600  1.00  0.00     0.012 C 
ENDROOT
BRANCH   1   2
HETATM    2  C6  UNL     1      38.275  16.603  38.611  1.00  0.00     0.015 C 
BRANCH   2   3
HETATM    3  C5  UNL     1      39.616  16.136  38.120  1.00  0.00     0.071 C 
BRANCH   3   4
HETATM    4  C4  UNL     1      40.324  15.316  39.149  1.00  0.00     0.089 C 
BRANCH   4   5
HETATM    5  C2  UNL     1      41.649  15.809  39.600  1.00  0.00     0.040 C 
HETATM    6  C1  UNL     1      42.753  15.112  38.840  1.00  0.00     0.017 C 
HETATM    7  C3  UNL     1      41.673  17.301  39.353  1.00  0.00     0.017 C 
ENDBRANCH   4   5
BRANCH   4   8
HETATM    8  N5  UNL     1      39.809  14.276  39.590  1.00  0.00    -0.342 NA
BRANCH   8   9
HETATM    9  N6  UNL     1      39.367  13.221  40.067  1.00  0.00    -0.280 N 
ATOM     10  H62 UNL     1      40.289  12.973  39.710  1.00  0.00     0.191 HD
ATOM     11  H61 UNL     1      38.946  12.387  40.477  1.00  0.00     0.191 HD
ENDBRANCH   8   9
ENDBRANCH   4   8
ENDBRANCH   3   4
ENDBRANCH   2   3
ENDBRANCH   1   2
BRANCH   1  12
HETATM   12  C8  UNL     1      37.164  18.586  39.479  1.00  0.00    -0.023 C 
HETATM   13  C9  UNL     1      36.021  17.934  39.634  1.00  0.00     0.004 C 
BRANCH  13  14
HETATM   14  C10 UNL     1      34.937  18.428  40.526  1.00  0.00     0.199 C 
HETATM   15  N1  UNL     1      34.934  17.563  41.689  1.00  0.00    -0.343 N 
HETATM   16  C11 UNL     1      33.826  16.721  41.974  1.00  0.00     0.241 C 
ATOM     17  H1  UNL     1      35.742  17.559  42.312  1.00  0.00     0.163 HD
HETATM   18  O1  UNL     1      34.101  15.585  42.448  1.00  0.00    -0.271 OA
HETATM   19  C12 UNL     1      32.474  17.216  41.708  1.00  0.00     0.176 C 
HETATM   20  N3  UNL     1      32.476  18.171  40.587  1.00  0.00    -0.346 N 
HETATM   21  C17 UNL     1      33.632  18.518  39.884  1.00  0.00     0.244 C 
ATOM     22  H3  UNL     1      31.592  18.598  40.310  1.00  0.00     0.163 HD
HETATM   23  O2  UNL     1      33.550  18.910  38.696  1.00  0.00    -0.271 OA
BRANCH  19  24
HETATM   24  C13 UNL     1      31.461  16.187  41.354  1.00  0.00     0.035 C 
BRANCH  24  25
HETATM   25  C14 UNL     1      30.222  16.142  42.162  1.00  0.00     0.004 C 
BRANCH  25  26
HETATM   26  C15 UNL     1      29.676  17.481  42.550  1.00  0.00     0.027 C 
BRANCH  26  27
HETATM   27  C16 UNL     1      28.355  17.384  43.252  1.00  0.00     0.229 C 
BRANCH  27  28
HETATM   28  N2  UNL     1      28.389  18.158  44.502  1.00  0.00    -0.079 N 
ATOM     29  H23 UNL     1      27.720  18.928  44.493  1.00  0.00     0.274 HD
ATOM     30  H22 UNL     1      28.003  17.634  45.287  1.00  0.00     0.274 HD
ATOM     31  H21 UNL     1      29.339  18.480  44.689  1.00  0.00     0.274 HD
ENDBRANCH  27  28
ENDBRANCH  26  27
ENDBRANCH  25  26
ENDBRANCH  24  25
ENDBRANCH  19  24
ENDBRANCH  13  14
ENDBRANCH   1  12
BRANCH   1  32
HETATM   32  C18 UNL     1      38.111  18.650  37.191  1.00  0.00     0.048 C 
BRANCH  32  33
HETATM   33  C19 UNL     1      38.668  19.998  37.079  1.00  0.00    -0.034 A 
HETATM   34  C20 UNL     1      40.040  20.148  37.154  1.00  0.00     0.038 A 
HETATM   35  C21 UNL     1      40.654  21.379  37.062  1.00  0.00     0.085 A 
HETATM   36  N4  UNL     1      42.062  21.537  37.140  1.00  0.00    -0.099 NA
HETATM   37  C22 UNL     1      39.814  22.472  36.890  1.00  0.00     0.142 A 
HETATM   38  F1  UNL     1      40.400  23.697  36.797  1.00  0.00    -0.204 F 
HETATM   39  C23 UNL     1      38.444  22.327  36.816  1.00  0.00     0.068 A 
HETATM   40  C24 UNL     1      37.840  21.084  36.909  1.00  0.00     0.043 A 
HETATM   41 CL1  UNL     1      36.097  20.939  36.809  1.00  0.00    -0.084 Cl
ENDBRANCH  32  33
ENDBRANCH   1  32
TORSDOF 15
ENDMDL
MODEL 2
REMARK VINA RESULT: -6.936407028      8.775     13.217
REMARK  15 active torsions:
REMARK  status: ('A' for Active; 'I' for Inactive)
REMARK    1  A    between atoms: C2_2  and  C4_4 
REMARK    2  A    between atoms: C4_4  and  C5_5 
REMARK    3  A    between atoms: C4_4  and  N5_38 
REMARK    4  A    between atoms: C5_5  and  C6_6 
REMARK    5  A    between atoms: C6_6  and  C7_7 
REMARK    6  A    between atoms: C7_7  and  C8_8 
REMARK    7  A    between atoms: C7_7  and  C18_28 
REMARK    8  A    between atoms: C9_9  and  C10_10 
REMARK    9  A    between atoms: C12_15  and  C13_16 
REMARK   10  A    between atoms: C13_16  and  C14_17 
REMARK   11  A    between atoms: C14_17  and  C15_18 
REMARK   12  A    between atoms: C15_18  and  C16_19 
REMARK   13  A    between atoms: C16_19  and  N2_20 
REMARK   14  A    between atoms: C18_28  and  C19_29 
REMARK   15  A    between atoms: N5_38  and  N6_39 
ROOT
HETATM    1  C7  UNL     1      44.829  21.991  33.677  1.00  0.00     0.012 C 
ENDROOT
BRANCH   1   2
HETATM    2  C6  UNL     1      44.514  22.555  35.016  1.00  0.00     0.015 C 
BRANCH   2   3
HETATM    3  C5  UNL     1      43.030  22.755  35.150  1.00  0.00     0.071 C 
BRANCH   3   4
HETATM    4  C4  UNL     1      42.386  21.621  35.879  1.00  0.00     0.089 C 
BRANCH   4   5
HETATM    5  C2  UNL     1      42.475  20.283  35.244  1.00  0.00     0.040 C 
HETATM    6  C1  UNL     1      42.223  19.200  36.268  1.00  0.00     0.017 C 
HETATM    7  C3  UNL     1      41.438  20.245  34.144  1.00  0.00     0.017 C 
ENDBRANCH   4   5
BRANCH   4   8
HETATM    8  N5  UNL     1      41.809  21.814  36.961  1.00  0.00    -0.342 NA
BRANCH   8   9
HETATM    9  N6  UNL     1      41.163  22.023  37.998  1.00  0.00    -0.280 N 
ATOM     10  H62 UNL     1      40.735  22.635  37.304  1.00  0.00     0.191 HD
ATOM     11  H61 UNL     1      40.671  22.149  38.883  1.00  0.00     0.191 HD
ENDBRANCH   8   9
ENDBRANCH   4   8
ENDBRANCH   3   4
ENDBRANCH   2   3
ENDBRANCH   1   2
BRANCH   1  12
HETATM   12  C8  UNL     1      45.716  20.834  33.787  1.00  0.00    -0.023 C 
HETATM   13  C9  UNL     1      46.195  20.429  34.954  1.00  0.00     0.004 C 
BRANCH  13  14
HETATM   14  C10 UNL     1      47.098  19.252  35.080  1.00  0.00     0.199 C 
HETATM   15  N1  UNL     1      48.380  19.656  34.538  1.00  0.00    -0.343 N 
HETATM   16  C11 UNL     1      48.905  19.050  33.365  1.00  0.00     0.241 C 
ATOM     17  H1  UNL     1      48.913  20.389  35.007  1.00  0.00     0.163 HD
HETATM   18  O1  UNL     1      49.527  19.814  32.578  1.00  0.00    -0.271 OA
HETATM   19  C12 UNL     1      48.696  17.616  33.156  1.00  0.00     0.176 C 
HETATM   20  N3  UNL     1      47.441  17.171  33.785  1.00  0.00    -0.346 N 
HETATM   21  C17 UNL     1      46.581  18.037  34.465  1.00  0.00     0.244 C 
ATOM     22  H3  UNL     1      47.187  16.186  33.719  1.00  0.00     0.163 HD
HETATM   23  O2  UNL     1      45.359  17.769  34.549  1.00  0.00    -0.271 OA
BRANCH  19  24
HETATM   24  C13 UNL     1      48.614  17.169  31.741  1.00  0.00     0.035 C 
BRANCH  24  25
HETATM   25  C14 UNL     1      47.375  17.480  30.996  1.00  0.00     0.004 C 
BRANCH  25  26
HETATM   26  C15 UNL     1      47.504  18.586  29.994  1.00  0.00     0.027 C 
BRANCH  26  27
HETATM   27  C16 UNL     1      46.736  19.812  30.385  1.00  0.00     0.229 C 
BRANCH  27  28
HETATM   28  N2  UNL     1      47.656  20.939  30.597  1.00  0.00    -0.079 N 
ATOM     29  H23 UNL     1      48.610  20.711  30.315  1.00  0.00     0.274 HD
ATOM     30  H22 UNL     1      47.485  21.701  29.942  1.00  0.00     0.274 HD
ATOM     31  H21 UNL     1      47.610  21.252  31.567  1.00  0.00     0.274 HD
ENDBRANCH  27  28
ENDBRANCH  26  27
ENDBRANCH  25  26
ENDBRANCH  24  25
ENDBRANCH  19  24
ENDBRANCH  13  14
ENDBRANCH   1  12
BRANCH   1  32
HETATM   32  C18 UNL     1      45.373  23.044  32.724  1.00  0.00     0.048 C 
BRANCH  32  33
HETATM   33  C19 UNL     1      44.390  23.451  31.719  1.00  0.00    -0.034 A 
HETATM   34  C20 UNL     1      43.317  22.614  31.477  1.00  0.00     0.038 A 
HETATM   35  C21 UNL     1      42.344  22.912  30.547  1.00  0.00     0.085 A 
HETATM   36  N4  UNL     1      41.242  22.056  30.294  1.00  0.00    -0.099 NA
HETATM   37  C22 UNL     1      42.500  24.110  29.858  1.00  0.00     0.142 A 
HETATM   38  F1  UNL     1      41.550  24.423  28.936  1.00  0.00    -0.204 F 
HETATM   39  C23 UNL     1      43.570  24.947  30.096  1.00  0.00     0.068 A 
HETATM   40  C24 UNL     1      44.540  24.634  31.034  1.00  0.00     0.043 A 
HETATM   41 CL1  UNL     1      45.884  25.724  31.311  1.00  0.00    -0.084 Cl
ENDBRANCH  32  33
ENDBRANCH   1  32
TORSDOF 15
ENDMDL
MODEL 3
REMARK VINA RESULT: -6.799596762      4.946     10.338
REMARK  15 active torsions:
REMARK  status: ('A' for Active; 'I' for Inactive)
REMARK    1  A    between atoms: C2_2  and  C4_4 
REMARK    2  A    between atoms: C4_4  and  C5_5 
REMARK    3  A    between atoms: C4_4  and  N5_38 
REMARK    4  A    between atoms: C5_5  and  C6_6 
REMARK    5  A    between atoms: C6_6  and  C7_7 
REMARK    6  A    between atoms: C7_7  and  C8_8 
REMARK    7  A    between atoms: C7_7  and  C18_28 
REMARK    8  A    between atoms: C9_9  and  C10_10 
REMARK    9  A    between atoms: C12_15  and  C13_16 
REMARK   10  A    between atoms: C13_16  and  C14_17 
REMARK   11  A    between atoms: C14_17  and  C15_18 
REMARK   12  A    between atoms: C15_18  and  C16_19 
REMARK   13  A    between atoms: C16_19  and  N2_20 
REMARK   14  A    between atoms: C18_28  and  C19_29 
REMARK   15  A    between atoms: N5_38  and  N6_39 
ROOT
HETATM    1  C7  UNL     1      40.691  17.264  38.706  1.00  0.00     0.012 C 
ENDROOT
BRANCH   1   2
HETATM    2  C6  UNL     1      41.887  16.759  39.432  1.00  0.00     0.015 C 
BRANCH   2   3
HETATM    3  C5  UNL     1      41.923  15.258  39.376  1.00  0.00     0.071 C 
BRANCH   3   4
HETATM    4  C4  UNL     1      42.650  14.770  38.165  1.00  0.00     0.089 C 
BRANCH   4   5
HETATM    5  C2  UNL     1      41.911  13.849  37.267  1.00  0.00     0.040 C 
HETATM    6  C1  UNL     1      40.457  13.779  37.672  1.00  0.00     0.017 C 
HETATM    7  C3  UNL     1      42.060  14.387  35.861  1.00  0.00     0.017 C 
ENDBRANCH   4   5
BRANCH   4   8
HETATM    8  N5  UNL     1      43.817  15.131  37.943  1.00  0.00    -0.342 NA
BRANCH   8   9
HETATM    9  N6  UNL     1      45.003  15.411  37.712  1.00  0.00    -0.280 N 
ATOM     10  H62 UNL     1      45.018  14.978  38.635  1.00  0.00     0.191 HD
ATOM     11  H61 UNL     1      45.958  15.667  37.462  1.00  0.00     0.191 HD
ENDBRANCH   8   9
ENDBRANCH   4   8
ENDBRANCH   3   4
ENDBRANCH   2   3
ENDBRANCH   1   2
BRANCH   1  12
HETATM   12  C8  UNL     1      41.027  17.641  37.334  1.00  0.00    -0.023 C 
HETATM   13  C9  UNL     1      41.997  18.502  37.064  1.00  0.00     0.004 C 
BRANCH  13  14
HETATM   14  C10 UNL     1      42.350  18.893  35.672  1.00  0.00     0.199 C 
HETATM   15  N1  UNL     1      43.127  17.801  35.121  1.00  0.00    -0.343 N 
HETATM   16  C11 UNL     1      44.492  17.975  34.768  1.00  0.00     0.241 C 
ATOM     17  H1  UNL     1      42.685  16.891  34.984  1.00  0.00     0.163 HD
HETATM   18  O1  UNL     1      45.254  16.996  35.000  1.00  0.00    -0.271 OA
HETATM   19  C12 UNL     1      44.913  19.245  34.174  1.00  0.00     0.176 C 
HETATM   20  N3  UNL     1      44.070  20.353  34.653  1.00  0.00    -0.346 N 
HETATM   21  C17 UNL     1      43.028  20.178  35.567  1.00  0.00     0.244 C 
ATOM     22  H3  UNL     1      44.255  21.293  34.302  1.00  0.00     0.163 HD
HETATM   23  O2  UNL     1      42.673  21.129  36.304  1.00  0.00    -0.271 OA
BRANCH  19  24
HETATM   24  C13 UNL     1      46.313  19.662  34.449  1.00  0.00     0.035 C 
BRANCH  24  25
HETATM   25  C14 UNL     1      47.321  19.408  33.396  1.00  0.00     0.004 C 
BRANCH  25  26
HETATM   26  C15 UNL     1      48.629  18.875  33.893  1.00  0.00     0.027 C 
BRANCH  26  27
HETATM   27  C16 UNL     1      48.637  17.381  34.011  1.00  0.00     0.229 C 
BRANCH  27  28
HETATM   28  N2  UNL     1      48.406  16.984  35.408  1.00  0.00    -0.079 N 
ATOM     29  H23 UNL     1      49.153  17.303  36.025  1.00  0.00     0.274 HD
ATOM     30  H22 UNL     1      47.634  17.501  35.829  1.00  0.00     0.274 HD
ATOM     31  H21 UNL     1      48.266  15.975  35.467  1.00  0.00     0.274 HD
ENDBRANCH  27  28
ENDBRANCH  26  27
ENDBRANCH  25  26
ENDBRANCH  24  25
ENDBRANCH  19  24
ENDBRANCH  13  14
ENDBRANCH   1  12
BRANCH   1  32
HETATM   32  C18 UNL     1      39.994  18.387  39.458  1.00  0.00     0.048 C 
BRANCH  32  33
HETATM   33  C19 UNL     1      38.683  18.708  38.895  1.00  0.00    -0.034 A 
HETATM   34  C20 UNL     1      37.680  17.761  38.988  1.00  0.00     0.038 A 
HETATM   35  C21 UNL     1      36.414  17.974  38.484  1.00  0.00     0.085 A 
HETATM   36  N4  UNL     1      35.383  17.004  38.576  1.00  0.00    -0.099 NA
HETATM   37  C22 UNL     1      36.197  19.201  37.870  1.00  0.00     0.142 A 
HETATM   38  F1  UNL     1      34.955  19.432  37.365  1.00  0.00    -0.204 F 
HETATM   39  C23 UNL     1      37.196  20.149  37.773  1.00  0.00     0.068 A 
HETATM   40  C24 UNL     1      38.462  19.922  38.285  1.00  0.00     0.043 A 
HETATM   41 CL1  UNL     1      39.704  21.150  38.146  1.00  0.00    -0.084 Cl
ENDBRANCH  32  33
ENDBRANCH   1  32
TORSDOF 15
ENDMDL
MODEL 4
REMARK VINA RESULT: -6.763630630      7.834     13.182
REMARK  15 active torsions:
REMARK  status: ('A' for Active; 'I' for Inactive)
REMARK    1  A    between atoms: C2_2  and  C4_4 
REMARK    2  A    between atoms: C4_4  and  C5_5 
REMARK    3  A    between atoms: C4_4  and  N5_38 
REMARK    4  A    between atoms: C5_5  and  C6_6 
REMARK    5  A    between atoms: C6_6  and  C7_7 
REMARK    6  A    between atoms: C7_7  and  C8_8 
REMARK    7  A    between atoms: C7_7  and  C18_28 
REMARK    8  A    between atoms: C9_9  and  C10_10 
REMARK    9  A    between atoms: C12_15  and  C13_16 
REMARK   10  A    between atoms: C13_16  and  C14_17 
REMARK   11  A    between atoms: C14_17  and  C15_18 
REMARK   12  A    between atoms: C15_18  and  C16_19 
REMARK   13  A    between atoms: C16_19  and  N2_20 
REMARK   14  A    between atoms: C18_28  and  C19_29 
REMARK   15  A    between atoms: N5_38  and  N6_39 
ROOT
HETATM    1  C7  UNL     1      44.665  21.522  34.934  1.00  0.00     0.012 C 
ENDROOT
BRANCH   1   2
HETATM    2  C6  UNL     1      44.670  22.825  34.218  1.00  0.00     0.015 C 
BRANCH   2   3
HETATM    3  C5  UNL     1      44.137  22.644  32.824  1.00  0.00     0.071 C 
BRANCH   3   4
HETATM    4  C4  UNL     1      45.004  23.320  31.812  1.00  0.00     0.089 C 
BRANCH   4   5
HETATM    5  C2  UNL     1      44.556  24.650  31.329  1.00  0.00     0.040 C 
HETATM    6  C1  UNL     1      45.748  25.504  30.966  1.00  0.00     0.017 C 
HETATM    7  C3  UNL     1      43.671  24.408  30.127  1.00  0.00     0.017 C 
ENDBRANCH   4   5
BRANCH   4   8
HETATM    8  N5  UNL     1      46.044  22.775  31.409  1.00  0.00    -0.342 NA
BRANCH   8   9
HETATM    9  N6  UNL     1      47.084  22.287  30.945  1.00  0.00    -0.280 N 
ATOM     10  H62 UNL     1      46.427  21.508  30.971  1.00  0.00     0.191 HD
ATOM     11  H61 UNL     1      47.969  21.947  30.569  1.00  0.00     0.191 HD
ENDBRANCH   8   9
ENDBRANCH   4   8
ENDBRANCH   3   4
ENDBRANCH   2   3
ENDBRANCH   1   2
BRANCH   1  12
HETATM   12  C8  UNL     1      45.932  20.815  34.750  1.00  0.00    -0.023 C 
HETATM   13  C9  UNL     1      46.069  19.534  35.057  1.00  0.00     0.004 C 
BRANCH  13  14
HETATM   14  C10 UNL     1      47.353  18.804  34.874  1.00  0.00     0.199 C 
HETATM   15  N1  UNL     1      48.136  19.577  33.931  1.00  0.00    -0.343 N 
HETATM   16  C11 UNL     1      48.468  19.057  32.651  1.00  0.00     0.241 C 
ATOM     17  H1  UNL     1      48.454  20.512  34.191  1.00  0.00     0.163 HD
HETATM   18  O1  UNL     1      48.461  19.883  31.698  1.00  0.00    -0.271 OA
HETATM   19  C12 UNL     1      48.788  17.633  32.527  1.00  0.00     0.176 C 
HETATM   20  N3  UNL     1      48.070  16.844  33.543  1.00  0.00    -0.346 N 
HETATM   21  C17 UNL     1      47.196  17.412  34.472  1.00  0.00     0.244 C 
ATOM     22  H3  UNL     1      48.219  15.836  33.569  1.00  0.00     0.163 HD
HETATM   23  O2  UNL     1      46.269  16.725  34.963  1.00  0.00    -0.271 OA
BRANCH  19  24
HETATM   24  C13 UNL     1      48.456  17.001  31.223  1.00  0.00     0.035 C 
BRANCH  24  25
HETATM   25  C14 UNL     1      47.093  16.449  31.059  1.00  0.00     0.004 C 
BRANCH  25  26
HETATM   26  C15 UNL     1      46.106  17.389  30.437  1.00  0.00     0.027 C 
BRANCH  26  27
HETATM   27  C16 UNL     1      45.161  17.979  31.440  1.00  0.00     0.229 C 
BRANCH  27  28
HETATM   28  N2  UNL     1      45.272  19.446  31.435  1.00  0.00    -0.079 N 
ATOM     29  H23 UNL     1      46.241  19.755  31.358  1.00  0.00     0.274 HD
ATOM     30  H22 UNL     1      44.917  19.852  30.570  1.00  0.00     0.274 HD
ATOM     31  H21 UNL     1      44.811  19.835  32.257  1.00  0.00     0.274 HD
ENDBRANCH  27  28
ENDBRANCH  26  27
ENDBRANCH  25  26
ENDBRANCH  24  25
ENDBRANCH  19  24
ENDBRANCH  13  14
ENDBRANCH   1  12
BRANCH   1  32
HETATM   32  C18 UNL     1      43.467  20.664  34.558  1.00  0.00     0.048 C 
BRANCH  32  33
HETATM   33  C19 UNL     1      42.564  20.439  35.686  1.00  0.00    -0.034 A 
HETATM   34  C20 UNL     1      41.971  21.538  36.279  1.00  0.00     0.038 A 
HETATM   35  C21 UNL     1      41.108  21.423  37.349  1.00  0.00     0.085 A 
HETATM   36  N4  UNL     1      40.499  22.548  37.961  1.00  0.00    -0.099 NA
HETATM   37  C22 UNL     1      40.864  20.133  37.804  1.00  0.00     0.142 A 
HETATM   38  F1  UNL     1      40.016  19.998  38.859  1.00  0.00    -0.204 F 
HETATM   39  C23 UNL     1      41.454  19.034  37.216  1.00  0.00     0.068 A 
HETATM   40  C24 UNL     1      42.319  19.164  36.141  1.00  0.00     0.043 A 
HETATM   41 CL1  UNL     1      43.047  17.744  35.417  1.00  0.00    -0.084 Cl
ENDBRANCH  32  33
ENDBRANCH   1  32
TORSDOF 15
ENDMDL
MODEL 5
REMARK VINA RESULT: -6.712586451      3.737      8.925
REMARK  15 active torsions:
REMARK  status: ('A' for Active; 'I' for Inactive)
REMARK    1  A    between atoms: C2_2  and  C4_4 
REMARK    2  A    between atoms: C4_4  and  C5_5 
REMARK    3  A    between atoms: C4_4  and  N5_38 
REMARK    4  A    between atoms: C5_5  and  C6_6 
REMARK    5  A    between atoms: C6_6  and  C7_7 
REMARK    6  A    between atoms: C7_7  and  C8_8 
REMARK    7  A    between atoms: C7_7  and  C18_28 
REMARK    8  A    between atoms: C9_9  and  C10_10 
REMARK    9  A    between atoms: C12_15  and  C13_16 
REMARK   10  A    between atoms: C13_16  and  C14_17 
REMARK   11  A    between atoms: C14_17  and  C15_18 
REMARK   12  A    between atoms: C15_18  and  C16_19 
REMARK   13  A    between atoms: C16_19  and  N2_20 
REMARK   14  A    between atoms: C18_28  and  C19_29 
REMARK   15  A    between atoms: N5_38  and  N6_39 
ROOT
HETATM    1  C7  UNL     1      35.938  17.673  38.774  1.00  0.00     0.012 C 
ENDROOT
BRANCH   1   2
HETATM    2  C6  UNL     1      36.902  16.618  39.187  1.00  0.00     0.015 C 
BRANCH   2   3
HETATM    3  C5  UNL     1      37.913  16.395  38.098  1.00  0.00     0.071 C 
BRANCH   3   4
HETATM    4  C4  UNL     1      39.311  16.543  38.606  1.00  0.00     0.089 C 
BRANCH   4   5
HETATM    5  C2  UNL     1      39.940  17.878  38.453  1.00  0.00     0.040 C 
HETATM    6  C1  UNL     1      39.770  18.684  39.719  1.00  0.00     0.017 C 
HETATM    7  C3  UNL     1      41.402  17.645  38.146  1.00  0.00     0.017 C 
ENDBRANCH   4   5
BRANCH   4   8
HETATM    8  N5  UNL     1      39.897  15.580  39.126  1.00  0.00    -0.342 NA
BRANCH   8   9
HETATM    9  N6  UNL     1      40.458  14.572  39.580  1.00  0.00    -0.280 N 
ATOM     10  H62 UNL     1      39.663  14.207  39.056  1.00  0.00     0.191 HD
ATOM     11  H61 UNL     1      40.966  13.785  39.983  1.00  0.00     0.191 HD
ENDBRANCH   8   9
ENDBRANCH   4   8
ENDBRANCH   3   4
ENDBRANCH   2   3
ENDBRANCH   1   2
BRANCH   1  12
HETATM   12  C8  UNL     1      36.452  18.442  37.641  1.00  0.00    -0.023 C 
HETATM   13  C9  UNL     1      36.757  19.727  37.749  1.00  0.00     0.004 C 
BRANCH  13  14
HETATM   14  C10 UNL     1      37.282  20.519  36.603  1.00  0.00     0.199 C 
HETATM   15  N1  UNL     1      37.687  19.564  35.592  1.00  0.00    -0.343 N 
HETATM   16  C11 UNL     1      39.050  19.428  35.214  1.00  0.00     0.241 C 
ATOM     17  H1  UNL     1      36.982  18.978  35.144  1.00  0.00     0.163 HD
HETATM   18  O1  UNL     1      39.442  18.256  34.963  1.00  0.00    -0.271 OA
HETATM   19  C12 UNL     1      39.887  20.628  35.141  1.00  0.00     0.176 C 
HETATM   20  N3  UNL     1      39.427  21.647  36.100  1.00  0.00    -0.346 N 
HETATM   21  C17 UNL     1      38.344  21.451  36.960  1.00  0.00     0.244 C 
ATOM     22  H3  UNL     1      39.922  22.538  36.137  1.00  0.00     0.163 HD
HETATM   23  O2  UNL     1      38.282  22.077  38.044  1.00  0.00    -0.271 OA
BRANCH  19  24
HETATM   24  C13 UNL     1      41.332  20.433  35.429  1.00  0.00     0.035 C 
BRANCH  24  25
HETATM   25  C14 UNL     1      42.036  21.513  36.154  1.00  0.00     0.004 C 
BRANCH  25  26
HETATM   26  C15 UNL     1      42.883  22.400  35.293  1.00  0.00     0.027 C 
BRANCH  26  27
HETATM   27  C16 UNL     1      44.349  22.218  35.544  1.00  0.00     0.229 C 
BRANCH  27  28
HETATM   28  N2  UNL     1      45.128  23.006  34.578  1.00  0.00    -0.079 N 
ATOM     29  H23 UNL     1      44.537  23.417  33.855  1.00  0.00     0.274 HD
ATOM     30  H22 UNL     1      45.484  23.870  34.987  1.00  0.00     0.274 HD
ATOM     31  H21 UNL     1      45.875  22.436  34.182  1.00  0.00     0.274 HD
ENDBRANCH  27  28
ENDBRANCH  26  27
ENDBRANCH  25  26
ENDBRANCH  24  25
ENDBRANCH  19  24
ENDBRANCH  13  14
ENDBRANCH   1  12
BRANCH   1  32
HETATM   32  C18 UNL     1      35.529  18.565  39.936  1.00  0.00     0.048 C 
BRANCH  32  33
HETATM   33  C19 UNL     1      34.167  18.295  40.396  1.00  0.00    -0.034 A 
HETATM   34  C20 UNL     1      33.114  18.756  39.629  1.00  0.00     0.038 A 
HETATM   35  C21 UNL     1      31.797  18.552  39.984  1.00  0.00     0.085 A 
HETATM   36  N4  UNL     1      30.713  19.026  39.201  1.00  0.00    -0.099 NA
HETATM   37  C22 UNL     1      31.582  17.851  41.165  1.00  0.00     0.142 A 
HETATM   38  F1  UNL     1      30.290  17.639  41.534  1.00  0.00    -0.204 F 
HETATM   39  C23 UNL     1      32.630  17.390  41.934  1.00  0.00     0.068 A 
HETATM   40  C24 UNL     1      33.948  17.602  41.564  1.00  0.00     0.043 A 
HETATM   41 CL1  UNL     1      35.254  16.997  42.565  1.00  0.00    -0.084 Cl
ENDBRANCH  32  33
ENDBRANCH   1  32
TORSDOF 15
ENDMDL
