MODEL 1
REMARK VINA RESULT: -6.804504114      0.000      0.000
REMARK  12 active torsions:
REMARK  status: ('A' for Active; 'I' for Inactive)
REMARK    1  A    between atoms: C3_4  and  C4_5 
REMARK    2  A    between atoms: C4_5  and  C5_6 
REMARK    3  A    between atoms: C5_6  and  C6_7 
REMARK       I    between atoms: C6_7  and  N2_9 
REMARK    4  A    between atoms: N2_9  and  C7_11 
REMARK    5  A    between atoms: C7_11  and  C8_12 
REMARK    6  A    between atoms: C8_12  and  C9_13 
REMARK    7  A    between atoms: C9_13  and  C10_14 
REMARK    8  A    between atoms: C10_14  and  C11_15 
REMARK    9  A    between atoms: C11_15  and  N3_16 
REMARK       I    between atoms: N3_16  and  C12_18 
REMARK       I    between atoms: C12_18  and  N4_20 
REMARK   10  A    between atoms: N4_20  and  C13_22 
REMARK   11  A    between atoms: C13_22  and  C14_23 
REMARK   12  A    between atoms: C14_23  and  N5_24 
ROOT
HETATM    1  N1  UNL     1      30.387  19.729  39.395  1.00  0.00    -0.191 NA
HETATM    2  C1  UNL     1      30.932  18.849  39.920  1.00  0.00     0.103 C 
HETATM    3  C2  UNL     1      31.589  17.754  40.602  1.00  0.00     0.092 A 
HETATM    4  C3  UNL     1      32.959  17.634  40.561  1.00  0.00    -0.032 A 
HETATM    5  C19 UNL     1      33.511  16.565  41.266  1.00  0.00     0.031 A 
HETATM    6  C20 UNL     1      32.751  15.667  41.971  1.00  0.00     0.053 A 
HETATM    7 BR1  UNL     1      33.555  14.209  42.925  1.00  0.00    -0.048 Br
HETATM    8  C21 UNL     1      31.383  15.801  42.000  1.00  0.00     0.173 A 
HETATM    9  F1  UNL     1      30.657  14.891  42.710  1.00  0.00    -0.201 F 
HETATM   10  C22 UNL     1      30.814  16.840  41.319  1.00  0.00     0.177 A 
HETATM   11  F2  UNL     1      29.476  16.997  41.331  1.00  0.00    -0.201 F 
ENDROOT
BRANCH   4  12
HETATM   12  C4  UNL     1      33.811  18.581  39.835  1.00  0.00     0.049 C 
BRANCH  12  13
HETATM   13  C5  UNL     1      35.229  18.583  40.249  1.00  0.00     0.107 C 
BRANCH  13  14
HETATM   14  C6  UNL     1      36.211  18.816  39.186  1.00  0.00     0.217 C 
HETATM   15  O1  UNL     1      37.410  18.473  39.204  1.00  0.00    -0.274 OA
HETATM   16  N2  UNL     1      35.752  19.504  38.016  1.00  0.00    -0.361 N 
ATOM     17  H2  UNL     1      34.778  19.800  37.953  1.00  0.00     0.162 HD
BRANCH  16  18
HETATM   18  C7  UNL     1      36.642  19.778  36.942  1.00  0.00     0.122 C 
BRANCH  18  19
HETATM   19  C8  UNL     1      36.847  21.237  36.661  1.00  0.00     0.020 C 
BRANCH  19  20
HETATM   20  C9  UNL     1      37.863  21.799  37.635  1.00  0.00     0.003 C 
BRANCH  20  21
HETATM   21  C10 UNL     1      38.938  22.608  36.985  1.00  0.00     0.020 C 
BRANCH  21  22
HETATM   22  C11 UNL     1      40.270  22.097  37.436  1.00  0.00     0.124 C 
BRANCH  22  23
HETATM   23  N3  UNL     1      40.045  21.115  38.497  1.00  0.00    -0.343 N 
HETATM   24  C12 UNL     1      40.765  19.890  38.528  1.00  0.00     0.316 C 
HETATM   25  O2  UNL     1      41.629  19.632  37.619  1.00  0.00    -0.247 OA
HETATM   26  N4  UNL     1      40.523  18.964  39.559  1.00  0.00    -0.341 N 
ATOM     27  H4  UNL     1      39.834  19.172  40.282  1.00  0.00     0.164 HD
ATOM     28  H3  UNL     1      39.361  21.313  39.227  1.00  0.00     0.164 HD
BRANCH  26  29
HETATM   29  C13 UNL     1      41.251  17.723  39.593  1.00  0.00     0.154 C 
BRANCH  29  30
HETATM   30  C14 UNL     1      40.456  16.594  38.976  1.00  0.00     0.292 C 
BRANCH  30  31
HETATM   31  N5  UNL     1      40.997  15.303  39.267  1.00  0.00     0.090 N 
HETATM   32  C15 UNL     1      42.384  15.319  39.649  1.00  0.00     0.272 C 
HETATM   33  C16 UNL     1      43.203  14.871  38.477  1.00  0.00     0.032 C 
HETATM   34  C17 UNL     1      42.219  14.581  37.369  1.00  0.00     0.032 C 
HETATM   35  C18 UNL     1      40.888  14.502  38.071  1.00  0.00     0.272 C 
ENDBRANCH  30  31
ENDBRANCH  29  30
ENDBRANCH  26  29
ENDBRANCH  22  23
ENDBRANCH  21  22
ENDBRANCH  20  21
ENDBRANCH  19  20
ENDBRANCH  18  19
ENDBRANCH  16  18
ENDBRANCH  13  14
ENDBRANCH  12  13
ENDBRANCH   4  12
TORSDOF 12
ENDMDL
MODEL 2
REMARK VINA RESULT: -6.765939765      4.990      8.486
REMARK  12 active torsions:
REMARK  status: ('A' for Active; 'I' for Inactive)
REMARK    1  A    between atoms: C3_4  and  C4_5 
REMARK    2  A    between atoms: C4_5  and  C5_6 
REMARK    3  A    between atoms: C5_6  and  C6_7 
REMARK       I    between atoms: C6_7  and  N2_9 
REMARK    4  A    between atoms: N2_9  and  C7_11 
REMARK    5  A    between atoms: C7_11  and  C8_12 
REMARK    6  A    between atoms: C8_12  and  C9_13 
REMARK    7  A    between atoms: C9_13  and  C10_14 
REMARK    8  A    between atoms: C10_14  and  C11_15 
REMARK    9  A    between atoms: C11_15  and  N3_16 
REMARK       I    between atoms: N3_16  and  C12_18 
REMARK       I    between atoms: C12_18  and  N4_20 
REMARK   10  A    between atoms: N4_20  and  C13_22 
REMARK   11  A    between atoms: C13_22  and  C14_23 
REMARK   12  A    between atoms: C14_23  and  N5_24 
ROOT
HETATM    1  N1  UNL     1      41.607  21.619  37.587  1.00  0.00    -0.191 NA
HETATM    2  C1  UNL     1      40.673  20.973  37.825  1.00  0.00     0.103 C 
HETATM    3  C2  UNL     1      39.489  20.197  38.124  1.00  0.00     0.092 A 
HETATM    4  C3  UNL     1      39.568  19.101  38.953  1.00  0.00    -0.032 A 
HETATM    5  C19 UNL     1      38.375  18.426  39.208  1.00  0.00     0.031 A 
HETATM    6  C20 UNL     1      37.173  18.812  38.672  1.00  0.00     0.053 A 
HETATM    7 BR1  UNL     1      35.556  17.850  39.049  1.00  0.00    -0.048 Br
HETATM    8  C21 UNL     1      37.112  19.907  37.844  1.00  0.00     0.173 A 
HETATM    9  F1  UNL     1      35.901  20.264  37.328  1.00  0.00    -0.201 F 
HETATM   10  C22 UNL     1      38.265  20.590  37.577  1.00  0.00     0.177 A 
HETATM   11  F2  UNL     1      38.236  21.668  36.770  1.00  0.00    -0.201 F 
ENDROOT
BRANCH   4  12
HETATM   12  C4  UNL     1      40.829  18.665  39.561  1.00  0.00     0.049 C 
BRANCH  12  13
HETATM   13  C5  UNL     1      41.225  17.279  39.239  1.00  0.00     0.107 C 
BRANCH  13  14
HETATM   14  C6  UNL     1      42.157  17.117  38.119  1.00  0.00     0.217 C 
HETATM   15  O1  UNL     1      42.333  17.925  37.187  1.00  0.00    -0.274 OA
HETATM   16  N2  UNL     1      42.939  15.917  38.093  1.00  0.00    -0.361 N 
ATOM     17  H2  UNL     1      42.834  15.228  38.837  1.00  0.00     0.162 HD
BRANCH  16  18
HETATM   18  C7  UNL     1      43.861  15.678  37.037  1.00  0.00     0.122 C 
BRANCH  18  19
HETATM   19  C8  UNL     1      43.359  14.748  35.972  1.00  0.00     0.020 C 
BRANCH  19  20
HETATM   20  C9  UNL     1      44.503  14.376  35.050  1.00  0.00     0.003 C 
BRANCH  20  21
HETATM   21  C10 UNL     1      45.824  14.273  35.742  1.00  0.00     0.020 C 
BRANCH  21  22
HETATM   22  C11 UNL     1      46.907  14.647  34.779  1.00  0.00     0.124 C 
BRANCH  22  23
HETATM   23  N3  UNL     1      47.547  15.870  35.267  1.00  0.00    -0.343 N 
HETATM   24  C12 UNL     1      47.236  17.136  34.702  1.00  0.00     0.316 C 
HETATM   25  O2  UNL     1      46.381  17.220  33.753  1.00  0.00    -0.247 OA
HETATM   26  N4  UNL     1      47.870  18.292  35.189  1.00  0.00    -0.341 N 
ATOM     27  H4  UNL     1      48.551  18.222  35.946  1.00  0.00     0.164 HD
ATOM     28  H3  UNL     1      48.226  15.812  36.025  1.00  0.00     0.164 HD
BRANCH  26  29
HETATM   29  C13 UNL     1      47.557  19.576  34.619  1.00  0.00     0.154 C 
BRANCH  29  30
HETATM   30  C14 UNL     1      46.510  20.306  35.430  1.00  0.00     0.292 C 
BRANCH  30  31
HETATM   31  N5  UNL     1      45.249  20.401  34.763  1.00  0.00     0.090 N 
HETATM   32  C15 UNL     1      45.345  20.732  33.366  1.00  0.00     0.272 C 
HETATM   33  C16 UNL     1      45.003  22.182  33.199  1.00  0.00     0.032 C 
HETATM   34  C17 UNL     1      44.691  22.697  34.583  1.00  0.00     0.032 C 
HETATM   35  C18 UNL     1      44.491  21.449  35.404  1.00  0.00     0.272 C 
ENDBRANCH  30  31
ENDBRANCH  29  30
ENDBRANCH  26  29
ENDBRANCH  22  23
ENDBRANCH  21  22
ENDBRANCH  20  21
ENDBRANCH  19  20
ENDBRANCH  18  19
ENDBRANCH  16  18
ENDBRANCH  13  14
ENDBRANCH  12  13
ENDBRANCH   4  12
TORSDOF 12
ENDMDL
MODEL 3
REMARK VINA RESULT: -6.648874223      6.155      9.409
REMARK  12 active torsions:
REMARK  status: ('A' for Active; 'I' for Inactive)
REMARK    1  A    between atoms: C3_4  and  C4_5 
REMARK    2  A    between atoms: C4_5  and  C5_6 
REMARK    3  A    between atoms: C5_6  and  C6_7 
REMARK       I    between atoms: C6_7  and  N2_9 
REMARK    4  A    between atoms: N2_9  and  C7_11 
REMARK    5  A    between atoms: C7_11  and  C8_12 
REMARK    6  A    between atoms: C8_12  and  C9_13 
REMARK    7  A    between atoms: C9_13  and  C10_14 
REMARK    8  A    between atoms: C10_14  and  C11_15 
REMARK    9  A    between atoms: C11_15  and  N3_16 
REMARK       I    between atoms: N3_16  and  C12_18 
REMARK       I    between atoms: C12_18  and  N4_20 
REMARK   10  A    between atoms: N4_20  and  C13_22 
REMARK   11  A    between atoms: C13_22  and  C14_23 
REMARK   12  A    between atoms: C14_23  and  N5_24 
ROOT
HETATM    1  N1  UNL     1      41.668  21.594  37.412  1.00  0.00    -0.191 NA
HETATM    2  C1  UNL     1      40.719  20.978  37.675  1.00  0.00     0.103 C 
HETATM    3  C2  UNL     1      39.518  20.242  38.006  1.00  0.00     0.092 A 
HETATM    4  C3  UNL     1      39.585  19.140  38.828  1.00  0.00    -0.032 A 
HETATM    5  C19 UNL     1      38.378  18.505  39.115  1.00  0.00     0.031 A 
HETATM    6  C20 UNL     1      37.174  18.934  38.617  1.00  0.00     0.053 A 
HETATM    7 BR1  UNL     1      35.537  18.025  39.038  1.00  0.00    -0.048 Br
HETATM    8  C21 UNL     1      37.126  20.034  37.795  1.00  0.00     0.173 A 
HETATM    9  F1  UNL     1      35.913  20.434  37.316  1.00  0.00    -0.201 F 
HETATM   10  C22 UNL     1      38.293  20.679  37.497  1.00  0.00     0.177 A 
HETATM   11  F2  UNL     1      38.277  21.761  36.695  1.00  0.00    -0.201 F 
ENDROOT
BRANCH   4  12
HETATM   12  C4  UNL     1      40.847  18.658  39.397  1.00  0.00     0.049 C 
BRANCH  12  13
HETATM   13  C5  UNL     1      41.030  17.193  39.349  1.00  0.00     0.107 C 
BRANCH  13  14
HETATM   14  C6  UNL     1      42.132  16.707  38.513  1.00  0.00     0.217 C 
HETATM   15  O1  UNL     1      42.810  15.681  38.713  1.00  0.00    -0.274 OA
HETATM   16  N2  UNL     1      42.464  17.487  37.358  1.00  0.00    -0.361 N 
ATOM     17  H2  UNL     1      41.934  18.333  37.149  1.00  0.00     0.162 HD
BRANCH  16  18
HETATM   18  C7  UNL     1      43.525  17.091  36.499  1.00  0.00     0.122 C 
BRANCH  18  19
HETATM   19  C8  UNL     1      44.178  18.219  35.755  1.00  0.00     0.020 C 
BRANCH  19  20
HETATM   20  C9  UNL     1      45.252  17.664  34.842  1.00  0.00     0.003 C 
BRANCH  20  21
HETATM   21  C10 UNL     1      46.462  18.535  34.736  1.00  0.00     0.020 C 
BRANCH  21  22
HETATM   22  C11 UNL     1      46.159  19.864  35.353  1.00  0.00     0.124 C 
BRANCH  22  23
HETATM   23  N3  UNL     1      46.610  20.907  34.430  1.00  0.00    -0.343 N 
HETATM   24  C12 UNL     1      45.679  21.659  33.663  1.00  0.00     0.316 C 
HETATM   25  O2  UNL     1      44.424  21.432  33.777  1.00  0.00    -0.247 OA
HETATM   26  N4  UNL     1      46.143  22.652  32.782  1.00  0.00    -0.341 N 
ATOM     27  H4  UNL     1      47.144  22.831  32.694  1.00  0.00     0.164 HD
ATOM     28  H3  UNL     1      47.607  21.096  34.336  1.00  0.00     0.164 HD
BRANCH  26  29
HETATM   29  C13 UNL     1      45.203  23.416  32.005  1.00  0.00     0.154 C 
BRANCH  29  30
HETATM   30  C14 UNL     1      45.902  24.295  30.992  1.00  0.00     0.292 C 
BRANCH  30  31
HETATM   31  N5  UNL     1      45.116  25.419  30.587  1.00  0.00     0.090 N 
HETATM   32  C15 UNL     1      43.696  25.207  30.681  1.00  0.00     0.272 C 
HETATM   33  C16 UNL     1      43.165  24.947  29.304  1.00  0.00     0.032 C 
HETATM   34  C17 UNL     1      44.356  25.019  28.379  1.00  0.00     0.032 C 
HETATM   35  C18 UNL     1      45.422  25.693  29.204  1.00  0.00     0.272 C 
ENDBRANCH  30  31
ENDBRANCH  29  30
ENDBRANCH  26  29
ENDBRANCH  22  23
ENDBRANCH  21  22
ENDBRANCH  20  21
ENDBRANCH  19  20
ENDBRANCH  18  19
ENDBRANCH  16  18
ENDBRANCH  13  14
ENDBRANCH  12  13
ENDBRANCH   4  12
TORSDOF 12
ENDMDL
MODEL 4
REMARK VINA RESULT: -6.568031643      6.173      9.406
REMARK  12 active torsions:
REMARK  status: ('A' for Active; 'I' for Inactive)
REMARK    1  A    between atoms: C3_4  and  C4_5 
REMARK    2  A    between atoms: C4_5  and  C5_6 
REMARK    3  A    between atoms: C5_6  and  C6_7 
REMARK       I    between atoms: C6_7  and  N2_9 
REMARK    4  A    between atoms: N2_9  and  C7_11 
REMARK    5  A    between atoms: C7_11  and  C8_12 
REMARK    6  A    between atoms: C8_12  and  C9_13 
REMARK    7  A    between atoms: C9_13  and  C10_14 
REMARK    8  A    between atoms: C10_14  and  C11_15 
REMARK    9  A    between atoms: C11_15  and  N3_16 
REMARK       I    between atoms: N3_16  and  C12_18 
REMARK       I    between atoms: C12_18  and  N4_20 
REMARK   10  A    between atoms: N4_20  and  C13_22 
REMARK   11  A    between atoms: C13_22  and  C14_23 
REMARK   12  A    between atoms: C14_23  and  N5_24 
ROOT
HETATM    1  N1  UNL     1      43.625  23.431  35.418  1.00  0.00    -0.191 NA
HETATM    2  C1  UNL     1      42.706  22.728  35.517  1.00  0.00     0.103 C 
HETATM    3  C2  UNL     1      41.560  21.860  35.675  1.00  0.00     0.092 A 
HETATM    4  C3  UNL     1      41.506  20.654  35.013  1.00  0.00    -0.032 A 
HETATM    5  C19 UNL     1      40.377  19.869  35.242  1.00  0.00     0.031 A 
HETATM    6  C20 UNL     1      39.359  20.255  36.077  1.00  0.00     0.053 A 
HETATM    7 BR1  UNL     1      37.822  19.141  36.360  1.00  0.00    -0.048 Br
HETATM    8  C21 UNL     1      39.428  21.463  36.729  1.00  0.00     0.173 A 
HETATM    9  F1  UNL     1      38.399  21.816  37.552  1.00  0.00    -0.201 F 
HETATM   10  C22 UNL     1      40.524  22.254  36.525  1.00  0.00     0.177 A 
HETATM   11  F2  UNL     1      40.619  23.442  37.151  1.00  0.00    -0.201 F 
ENDROOT
BRANCH   4  12
HETATM   12  C4  UNL     1      42.579  20.195  34.125  1.00  0.00     0.049 C 
BRANCH  12  13
HETATM   13  C5  UNL     1      43.048  18.818  34.381  1.00  0.00     0.107 C 
BRANCH  13  14
HETATM   14  C6  UNL     1      44.358  18.692  35.026  1.00  0.00     0.217 C 
HETATM   15  O1  UNL     1      44.637  17.947  35.986  1.00  0.00    -0.274 OA
HETATM   16  N2  UNL     1      45.419  19.502  34.506  1.00  0.00    -0.361 N 
ATOM     17  H2  UNL     1      45.242  20.124  33.718  1.00  0.00     0.162 HD
BRANCH  16  18
HETATM   18  C7  UNL     1      46.719  19.446  35.080  1.00  0.00     0.122 C 
BRANCH  18  19
HETATM   19  C8  UNL     1      47.772  18.870  34.180  1.00  0.00     0.020 C 
BRANCH  19  20
HETATM   20  C9  UNL     1      48.029  17.428  34.567  1.00  0.00     0.003 C 
BRANCH  20  21
HETATM   21  C10 UNL     1      47.309  16.437  33.709  1.00  0.00     0.020 C 
BRANCH  21  22
HETATM   22  C11 UNL     1      47.088  15.184  34.496  1.00  0.00     0.124 C 
BRANCH  22  23
HETATM   23  N3  UNL     1      46.617  15.561  35.829  1.00  0.00    -0.343 N 
HETATM   24  C12 UNL     1      45.437  14.992  36.379  1.00  0.00     0.316 C 
HETATM   25  O2  UNL     1      44.769  14.130  35.707  1.00  0.00    -0.247 OA
HETATM   26  N4  UNL     1      45.008  15.377  37.661  1.00  0.00    -0.341 N 
ATOM     27  H4  UNL     1      45.542  16.063  38.194  1.00  0.00     0.164 HD
ATOM     28  H3  UNL     1      47.145  16.244  36.373  1.00  0.00     0.164 HD
BRANCH  26  29
HETATM   29  C13 UNL     1      43.813  14.801  38.220  1.00  0.00     0.154 C 
BRANCH  29  30
HETATM   30  C14 UNL     1      42.613  15.697  38.012  1.00  0.00     0.292 C 
BRANCH  30  31
HETATM   31  N5  UNL     1      41.752  15.756  39.153  1.00  0.00     0.090 N 
HETATM   32  C15 UNL     1      40.432  15.231  38.922  1.00  0.00     0.272 C 
HETATM   33  C16 UNL     1      39.489  16.383  38.748  1.00  0.00     0.032 C 
HETATM   34  C17 UNL     1      40.326  17.631  38.893  1.00  0.00     0.032 C 
HETATM   35  C18 UNL     1      41.606  17.144  39.521  1.00  0.00     0.272 C 
ENDBRANCH  30  31
ENDBRANCH  29  30
ENDBRANCH  26  29
ENDBRANCH  22  23
ENDBRANCH  21  22
ENDBRANCH  20  21
ENDBRANCH  19  20
ENDBRANCH  18  19
ENDBRANCH  16  18
ENDBRANCH  13  14
ENDBRANCH  12  13
ENDBRANCH   4  12
TORSDOF 12
ENDMDL
MODEL 5
REMARK VINA RESULT: -6.515571199      6.370      9.906
REMARK  12 active torsions:
REMARK  status: ('A' for Active; 'I' for Inactive)
REMARK    1  A    between atoms: C3_4  and  C4_5 
REMARK    2  A    between atoms: C4_5  and  C5_6 
REMARK    3  A    between atoms: C5_6  and  C6_7 
REMARK       I    between atoms: C6_7  and  N2_9 
REMARK    4  A    between atoms: N2_9  and  C7_11 
REMARK    5  A    between atoms: C7_11  and  C8_12 
REMARK    6  A    between atoms: C8_12  and  C9_13 
REMARK    7  A    between atoms: C9_13  and  C10_14 
REMARK    8  A    between atoms: C10_14  and  C11_15 
REMARK    9  A    between atoms: C11_15  and  N3_16 
REMARK       I    between atoms: N3_16  and  C12_18 
REMARK       I    between atoms: C12_18  and  N4_20 
REMARK   10  A    between atoms: N4_20  and  C13_22 
REMARK   11  A    between atoms: C13_22  and  C14_23 
REMARK   12  A    between atoms: C14_23  and  N5_24 
ROOT
HETATM    1  N1  UNL     1      43.731  18.324  34.956  1.00  0.00    -0.191 NA
HETATM    2  C1  UNL     1      43.085  19.218  35.317  1.00  0.00     0.103 C 
HETATM    3  C2  UNL     1      42.251  20.319  35.749  1.00  0.00     0.092 A 
HETATM    4  C3  UNL     1      42.757  21.598  35.789  1.00  0.00    -0.032 A 
HETATM    5  C19 UNL     1      41.878  22.602  36.193  1.00  0.00     0.031 A 
HETATM    6  C20 UNL     1      40.574  22.355  36.540  1.00  0.00     0.053 A 
HETATM    7 BR1  UNL     1      39.401  23.769  37.094  1.00  0.00    -0.048 Br
HETATM    8  C21 UNL     1      40.086  21.071  36.497  1.00  0.00     0.173 A 
HETATM    9  F1  UNL     1      38.785  20.859  36.849  1.00  0.00    -0.201 F 
HETATM   10  C22 UNL     1      40.924  20.066  36.103  1.00  0.00     0.177 A 
HETATM   11  F2  UNL     1      40.473  18.798  36.051  1.00  0.00    -0.201 F 
ENDROOT
BRANCH   4  12
HETATM   12  C4  UNL     1      44.138  21.911  35.410  1.00  0.00     0.049 C 
BRANCH  12  13
HETATM   13  C5  UNL     1      44.311  22.362  34.014  1.00  0.00     0.107 C 
BRANCH  13  14
HETATM   14  C6  UNL     1      45.428  21.766  33.276  1.00  0.00     0.217 C 
HETATM   15  O1  UNL     1      46.142  22.340  32.431  1.00  0.00    -0.274 OA
HETATM   16  N2  UNL     1      45.727  20.391  33.550  1.00  0.00    -0.361 N 
ATOM     17  H2  UNL     1      45.174  19.880  34.237  1.00  0.00     0.162 HD
BRANCH  16  18
HETATM   18  C7  UNL     1      46.790  19.734  32.871  1.00  0.00     0.122 C 
BRANCH  18  19
HETATM   19  C8  UNL     1      46.598  18.256  32.699  1.00  0.00     0.020 C 
BRANCH  19  20
HETATM   20  C9  UNL     1      47.285  17.524  33.834  1.00  0.00     0.003 C 
BRANCH  20  21
HETATM   21  C10 UNL     1      47.269  16.037  33.689  1.00  0.00     0.020 C 
BRANCH  21  22
HETATM   22  C11 UNL     1      47.116  15.418  35.042  1.00  0.00     0.124 C 
BRANCH  22  23
HETATM   23  N3  UNL     1      46.066  16.143  35.758  1.00  0.00    -0.343 N 
HETATM   24  C12 UNL     1      45.054  15.451  36.476  1.00  0.00     0.316 C 
HETATM   25  O2  UNL     1      45.055  14.170  36.508  1.00  0.00    -0.247 OA
HETATM   26  N4  UNL     1      44.056  16.175  37.150  1.00  0.00    -0.341 N 
ATOM     27  H4  UNL     1      44.058  17.195  37.123  1.00  0.00     0.164 HD
ATOM     28  H3  UNL     1      46.059  17.163  35.740  1.00  0.00     0.164 HD
BRANCH  26  29
HETATM   29  C13 UNL     1      43.031  15.476  37.879  1.00  0.00     0.154 C 
BRANCH  29  30
HETATM   30  C14 UNL     1      41.680  16.136  37.712  1.00  0.00     0.292 C 
BRANCH  30  31
HETATM   31  N5  UNL     1      40.976  16.292  38.947  1.00  0.00     0.090 N 
HETATM   32  C15 UNL     1      39.601  16.691  38.793  1.00  0.00     0.272 C 
HETATM   33  C16 UNL     1      39.497  18.154  39.100  1.00  0.00     0.032 C 
HETATM   34  C17 UNL     1      40.894  18.606  39.450  1.00  0.00     0.032 C 
HETATM   35  C18 UNL     1      41.642  17.324  39.705  1.00  0.00     0.272 C 
ENDBRANCH  30  31
ENDBRANCH  29  30
ENDBRANCH  26  29
ENDBRANCH  22  23
ENDBRANCH  21  22
ENDBRANCH  20  21
ENDBRANCH  19  20
ENDBRANCH  18  19
ENDBRANCH  16  18
ENDBRANCH  13  14
ENDBRANCH  12  13
ENDBRANCH   4  12
TORSDOF 12
ENDMDL
