MODEL 1
REMARK VINA RESULT: -7.003551892      0.000      0.000
REMARK  12 active torsions:
REMARK  status: ('A' for Active; 'I' for Inactive)
REMARK    1  A    between atoms: C2_2  and  C3_3 
REMARK    2  A    between atoms: C3_3  and  C4_4 
REMARK       I    between atoms: C4_4  and  N1_6 
REMARK    3  A    between atoms: N1_6  and  C5_7 
REMARK    4  A    between atoms: C5_7  and  C6_8 
REMARK    5  A    between atoms: C6_8  and  C7_9 
REMARK    6  A    between atoms: C7_9  and  C8_10 
REMARK    7  A    between atoms: C8_10  and  N2_11 
REMARK       I    between atoms: N2_11  and  C9_13 
REMARK    8  A    between atoms: C9_13  and  C10_15 
REMARK       I    between atoms: N3_17  and  C12_18 
REMARK       I    between atoms: C12_18  and  N6_23 
REMARK    9  A    between atoms: N6_23  and  C14_25 
REMARK   10  A    between atoms: C14_25  and  C15_26 
REMARK   11  A    between atoms: C15_26  and  C16_27 
REMARK   12  A    between atoms: C16_27  and  C17_28 
ROOT
HETATM    1  C10 UNL     1      41.916  20.644  35.524  1.00  0.00     0.212 A 
HETATM    2  C11 UNL     1      40.797  20.771  34.607  1.00  0.00     0.177 A 
HETATM    3  N3  UNL     1      40.807  21.510  35.874  1.00  0.00    -0.200 N 
HETATM    4  C12 UNL     1      40.165  22.406  36.776  1.00  0.00     0.686 C 
HETATM    5  N4  UNL     1      40.446  23.621  36.977  1.00  0.00    -0.126 N 
ATOM      6  H4  UNL     1      41.213  24.046  36.456  1.00  0.00     0.197 HD
HETATM    7  C13 UNL     1      39.736  24.397  37.895  1.00  0.00     0.196 C 
HETATM    8  N5  UNL     1      39.143  25.058  38.637  1.00  0.00    -0.171 NA
HETATM    9  N6  UNL     1      39.073  21.817  37.518  1.00  0.00    -0.226 N 
ATOM     10  H6  UNL     1      38.122  22.176  37.433  1.00  0.00     0.177 HD
ENDROOT
BRANCH   9  11
HETATM   11  C14 UNL     1      39.379  20.701  38.384  1.00  0.00     0.138 C 
BRANCH  11  12
HETATM   12  C15 UNL     1      38.635  19.481  37.916  1.00  0.00     0.025 C 
BRANCH  12  13
HETATM   13  C16 UNL     1      38.408  18.562  39.073  1.00  0.00     0.042 C 
BRANCH  13  14
HETATM   14  C17 UNL     1      38.931  17.181  38.784  1.00  0.00    -0.033 A 
HETATM   15  C18 UNL     1      38.145  16.184  38.246  1.00  0.00     0.032 A 
HETATM   16  C19 UNL     1      38.625  14.922  37.971  1.00  0.00     0.036 A 
HETATM   17 CL1  UNL     1      37.601  13.678  37.289  1.00  0.00    -0.084 Cl
HETATM   18  C20 UNL     1      39.942  14.596  38.230  1.00  0.00     0.049 A 
HETATM   19  C21 UNL     1      40.748  15.577  38.767  1.00  0.00     0.058 A 
HETATM   20 CL2  UNL     1      42.429  15.213  39.108  1.00  0.00    -0.082 Cl
HETATM   21  C22 UNL     1      40.246  16.854  39.042  1.00  0.00     0.062 A 
HETATM   22 CL3  UNL     1      41.293  18.086  39.740  1.00  0.00    -0.082 Cl
ENDBRANCH  13  14
ENDBRANCH  12  13
ENDBRANCH  11  12
ENDBRANCH   9  11
BRANCH   1  23
HETATM   23  C9  UNL     1      43.197  21.352  35.215  1.00  0.00     0.242 C 
HETATM   24  N2  UNL     1      43.734  21.358  33.920  1.00  0.00    -0.359 N 
ATOM     25  H2  UNL     1      43.217  20.891  33.175  1.00  0.00     0.162 HD
HETATM   26  O2  UNL     1      43.818  21.960  36.141  1.00  0.00    -0.271 OA
BRANCH  24  27
HETATM   27  C8  UNL     1      44.981  21.992  33.600  1.00  0.00     0.122 C 
BRANCH  27  28
HETATM   28  C7  UNL     1      46.049  20.945  33.472  1.00  0.00     0.022 C 
BRANCH  28  29
HETATM   29  C6  UNL     1      46.653  20.468  34.743  1.00  0.00     0.035 C 
BRANCH  29  30
HETATM   30  C5  UNL     1      46.246  19.026  35.060  1.00  0.00     0.221 C 
BRANCH  30  31
HETATM   31  N1  UNL     1      47.332  18.180  34.848  1.00  0.00    -0.415 NA
HETATM   32  C4  UNL     1      48.355  17.383  34.648  1.00  0.00     0.286 C 
HETATM   33  O1  UNL     1      48.867  16.465  35.390  1.00  0.00    -0.258 OA
BRANCH  32  34
HETATM   34  C3  UNL     1      49.141  17.505  33.315  1.00  0.00     0.118 C 
BRANCH  34  35
HETATM   35  C2  UNL     1      49.481  18.934  33.093  1.00  0.00     0.006 C 
HETATM   36  C1  UNL     1      49.058  19.299  31.679  1.00  0.00     0.005 C 
ENDBRANCH  34  35
ENDBRANCH  32  34
ENDBRANCH  30  31
ENDBRANCH  29  30
ENDBRANCH  28  29
ENDBRANCH  27  28
ENDBRANCH  24  27
ENDBRANCH   1  23
TORSDOF 12
ENDMDL
MODEL 2
REMARK VINA RESULT: -6.867452786      5.239      9.740
REMARK  12 active torsions:
REMARK  status: ('A' for Active; 'I' for Inactive)
REMARK    1  A    between atoms: C2_2  and  C3_3 
REMARK    2  A    between atoms: C3_3  and  C4_4 
REMARK       I    between atoms: C4_4  and  N1_6 
REMARK    3  A    between atoms: N1_6  and  C5_7 
REMARK    4  A    between atoms: C5_7  and  C6_8 
REMARK    5  A    between atoms: C6_8  and  C7_9 
REMARK    6  A    between atoms: C7_9  and  C8_10 
REMARK    7  A    between atoms: C8_10  and  N2_11 
REMARK       I    between atoms: N2_11  and  C9_13 
REMARK    8  A    between atoms: C9_13  and  C10_15 
REMARK       I    between atoms: N3_17  and  C12_18 
REMARK       I    between atoms: C12_18  and  N6_23 
REMARK    9  A    between atoms: N6_23  and  C14_25 
REMARK   10  A    between atoms: C14_25  and  C15_26 
REMARK   11  A    between atoms: C15_26  and  C16_27 
REMARK   12  A    between atoms: C16_27  and  C17_28 
ROOT
HETATM    1  C10 UNL     1      46.694  18.805  33.686  1.00  0.00     0.212 A 
HETATM    2  C11 UNL     1      47.719  19.498  34.446  1.00  0.00     0.177 A 
HETATM    3  N3  UNL     1      46.395  20.102  34.260  1.00  0.00    -0.200 N 
HETATM    4  C12 UNL     1      45.503  21.190  34.481  1.00  0.00     0.686 C 
HETATM    5  N4  UNL     1      44.535  21.233  35.292  1.00  0.00    -0.126 N 
ATOM      6  H4  UNL     1      44.338  20.419  35.873  1.00  0.00     0.197 HD
HETATM    7  C13 UNL     1      43.729  22.366  35.415  1.00  0.00     0.196 C 
HETATM    8  N5  UNL     1      43.066  23.306  35.541  1.00  0.00    -0.171 NA
HETATM    9  N6  UNL     1      45.775  22.353  33.667  1.00  0.00    -0.226 N 
ATOM     10  H6  UNL     1      46.013  23.250  34.089  1.00  0.00     0.177 HD
ENDROOT
BRANCH   9  11
HETATM   11  C14 UNL     1      45.697  22.198  32.231  1.00  0.00     0.138 C 
BRANCH  11  12
HETATM   12  C15 UNL     1      44.299  22.498  31.767  1.00  0.00     0.025 C 
BRANCH  12  13
HETATM   13  C16 UNL     1      44.104  23.979  31.701  1.00  0.00     0.042 C 
BRANCH  13  14
HETATM   14  C17 UNL     1      43.552  24.397  30.365  1.00  0.00    -0.033 A 
HETATM   15  C18 UNL     1      42.279  24.067  29.947  1.00  0.00     0.032 A 
HETATM   16  C19 UNL     1      41.769  24.459  28.730  1.00  0.00     0.036 A 
HETATM   17 CL1  UNL     1      40.150  24.021  28.228  1.00  0.00    -0.084 Cl
HETATM   18  C20 UNL     1      42.527  25.214  27.856  1.00  0.00     0.049 A 
HETATM   19  C21 UNL     1      43.802  25.558  28.252  1.00  0.00     0.058 A 
HETATM   20 CL2  UNL     1      44.802  26.521  27.180  1.00  0.00    -0.082 Cl
HETATM   21  C22 UNL     1      44.307  25.152  29.492  1.00  0.00     0.062 A 
HETATM   22 CL3  UNL     1      45.944  25.594  29.969  1.00  0.00    -0.082 Cl
ENDBRANCH  13  14
ENDBRANCH  12  13
ENDBRANCH  11  12
ENDBRANCH   9  11
BRANCH   1  23
HETATM   23  C9  UNL     1      45.971  17.655  34.314  1.00  0.00     0.242 C 
HETATM   24  N2  UNL     1      45.399  17.762  35.589  1.00  0.00    -0.359 N 
ATOM     25  H2  UNL     1      45.457  18.656  36.077  1.00  0.00     0.162 HD
HETATM   26  O2  UNL     1      45.873  16.556  33.686  1.00  0.00    -0.271 OA
BRANCH  24  27
HETATM   27  C8  UNL     1      44.735  16.666  36.237  1.00  0.00     0.122 C 
BRANCH  27  28
HETATM   28  C7  UNL     1      43.261  16.753  35.967  1.00  0.00     0.022 C 
BRANCH  28  29
HETATM   29  C6  UNL     1      42.493  17.695  36.823  1.00  0.00     0.035 C 
BRANCH  29  30
HETATM   30  C5  UNL     1      42.024  18.922  36.038  1.00  0.00     0.221 C 
BRANCH  30  31
HETATM   31  N1  UNL     1      41.441  19.838  36.913  1.00  0.00    -0.415 NA
HETATM   32  C4  UNL     1      40.893  20.699  37.736  1.00  0.00     0.286 C 
HETATM   33  O1  UNL     1      41.218  21.909  38.032  1.00  0.00    -0.258 OA
BRANCH  32  34
HETATM   34  C3  UNL     1      39.633  20.265  38.533  1.00  0.00     0.118 C 
BRANCH  34  35
HETATM   35  C2  UNL     1      39.971  19.061  39.334  1.00  0.00     0.006 C 
HETATM   36  C1  UNL     1      38.979  17.966  38.970  1.00  0.00     0.005 C 
ENDBRANCH  34  35
ENDBRANCH  32  34
ENDBRANCH  30  31
ENDBRANCH  29  30
ENDBRANCH  28  29
ENDBRANCH  27  28
ENDBRANCH  24  27
ENDBRANCH   1  23
TORSDOF 12
ENDMDL
MODEL 3
REMARK VINA RESULT: -6.866673411      1.803      2.605
REMARK  12 active torsions:
REMARK  status: ('A' for Active; 'I' for Inactive)
REMARK    1  A    between atoms: C2_2  and  C3_3 
REMARK    2  A    between atoms: C3_3  and  C4_4 
REMARK       I    between atoms: C4_4  and  N1_6 
REMARK    3  A    between atoms: N1_6  and  C5_7 
REMARK    4  A    between atoms: C5_7  and  C6_8 
REMARK    5  A    between atoms: C6_8  and  C7_9 
REMARK    6  A    between atoms: C7_9  and  C8_10 
REMARK    7  A    between atoms: C8_10  and  N2_11 
REMARK       I    between atoms: N2_11  and  C9_13 
REMARK    8  A    between atoms: C9_13  and  C10_15 
REMARK       I    between atoms: N3_17  and  C12_18 
REMARK       I    between atoms: C12_18  and  N6_23 
REMARK    9  A    between atoms: N6_23  and  C14_25 
REMARK   10  A    between atoms: C14_25  and  C15_26 
REMARK   11  A    between atoms: C15_26  and  C16_27 
REMARK   12  A    between atoms: C16_27  and  C17_28 
ROOT
HETATM    1  C10 UNL     1      41.829  20.706  35.505  1.00  0.00     0.212 A 
HETATM    2  C11 UNL     1      40.739  20.897  34.565  1.00  0.00     0.177 A 
HETATM    3  N3  UNL     1      40.745  21.605  35.850  1.00  0.00    -0.200 N 
HETATM    4  C12 UNL     1      40.113  22.502  36.757  1.00  0.00     0.686 C 
HETATM    5  N4  UNL     1      40.434  23.701  36.995  1.00  0.00    -0.126 N 
ATOM      6  H4  UNL     1      41.229  24.109  36.503  1.00  0.00     0.197 HD
HETATM    7  C13 UNL     1      39.730  24.481  37.914  1.00  0.00     0.196 C 
HETATM    8  N5  UNL     1      39.143  25.145  38.658  1.00  0.00    -0.171 NA
HETATM    9  N6  UNL     1      38.981  21.937  37.458  1.00  0.00    -0.226 N 
ATOM     10  H6  UNL     1      38.047  22.334  37.358  1.00  0.00     0.177 HD
ENDROOT
BRANCH   9  11
HETATM   11  C14 UNL     1      39.223  20.790  38.303  1.00  0.00     0.138 C 
BRANCH  11  12
HETATM   12  C15 UNL     1      38.037  19.868  38.254  1.00  0.00     0.025 C 
BRANCH  12  13
HETATM   13  C16 UNL     1      38.429  18.524  38.777  1.00  0.00     0.042 C 
BRANCH  13  14
HETATM   14  C17 UNL     1      37.228  17.751  39.251  1.00  0.00    -0.033 A 
HETATM   15  C18 UNL     1      36.252  18.306  40.052  1.00  0.00     0.032 A 
HETATM   16  C19 UNL     1      35.147  17.602  40.478  1.00  0.00     0.036 A 
HETATM   17 CL1  UNL     1      33.928  18.335  41.497  1.00  0.00    -0.084 Cl
HETATM   18  C20 UNL     1      34.967  16.282  40.112  1.00  0.00     0.049 A 
HETATM   19  C21 UNL     1      35.928  15.706  39.310  1.00  0.00     0.058 A 
HETATM   20 CL2  UNL     1      35.741  14.034  38.815  1.00  0.00    -0.082 Cl
HETATM   21  C22 UNL     1      37.046  16.433  38.886  1.00  0.00     0.062 A 
HETATM   22 CL3  UNL     1      38.266  15.670  37.872  1.00  0.00    -0.082 Cl
ENDBRANCH  13  14
ENDBRANCH  12  13
ENDBRANCH  11  12
ENDBRANCH   9  11
BRANCH   1  23
HETATM   23  C9  UNL     1      43.143  21.372  35.246  1.00  0.00     0.242 C 
HETATM   24  N2  UNL     1      43.690  21.429  33.957  1.00  0.00    -0.359 N 
ATOM     25  H2  UNL     1      43.159  21.031  33.183  1.00  0.00     0.162 HD
HETATM   26  O2  UNL     1      43.783  21.896  36.209  1.00  0.00    -0.271 OA
BRANCH  24  27
HETATM   27  C8  UNL     1      44.967  22.024  33.680  1.00  0.00     0.122 C 
BRANCH  27  28
HETATM   28  C7  UNL     1      45.994  20.940  33.528  1.00  0.00     0.022 C 
BRANCH  28  29
HETATM   29  C6  UNL     1      46.635  20.465  34.781  1.00  0.00     0.035 C 
BRANCH  29  30
HETATM   30  C5  UNL     1      46.224  19.029  35.120  1.00  0.00     0.221 C 
BRANCH  30  31
HETATM   31  N1  UNL     1      47.297  18.172  34.886  1.00  0.00    -0.415 NA
HETATM   32  C4  UNL     1      48.308  17.365  34.665  1.00  0.00     0.286 C 
HETATM   33  O1  UNL     1      48.824  16.439  35.394  1.00  0.00    -0.258 OA
BRANCH  32  34
HETATM   34  C3  UNL     1      49.071  17.484  33.318  1.00  0.00     0.118 C 
BRANCH  34  35
HETATM   35  C2  UNL     1      49.539  18.884  33.159  1.00  0.00     0.006 C 
HETATM   36  C1  UNL     1      49.044  19.390  31.813  1.00  0.00     0.005 C 
ENDBRANCH  34  35
ENDBRANCH  32  34
ENDBRANCH  30  31
ENDBRANCH  29  30
ENDBRANCH  28  29
ENDBRANCH  27  28
ENDBRANCH  24  27
ENDBRANCH   1  23
TORSDOF 12
ENDMDL
MODEL 4
REMARK VINA RESULT: -6.844238836      1.283      2.056
REMARK  12 active torsions:
REMARK  status: ('A' for Active; 'I' for Inactive)
REMARK    1  A    between atoms: C2_2  and  C3_3 
REMARK    2  A    between atoms: C3_3  and  C4_4 
REMARK       I    between atoms: C4_4  and  N1_6 
REMARK    3  A    between atoms: N1_6  and  C5_7 
REMARK    4  A    between atoms: C5_7  and  C6_8 
REMARK    5  A    between atoms: C6_8  and  C7_9 
REMARK    6  A    between atoms: C7_9  and  C8_10 
REMARK    7  A    between atoms: C8_10  and  N2_11 
REMARK       I    between atoms: N2_11  and  C9_13 
REMARK    8  A    between atoms: C9_13  and  C10_15 
REMARK       I    between atoms: N3_17  and  C12_18 
REMARK       I    between atoms: C12_18  and  N6_23 
REMARK    9  A    between atoms: N6_23  and  C14_25 
REMARK   10  A    between atoms: C14_25  and  C15_26 
REMARK   11  A    between atoms: C15_26  and  C16_27 
REMARK   12  A    between atoms: C16_27  and  C17_28 
ROOT
HETATM    1  C10 UNL     1      41.986  20.363  35.752  1.00  0.00     0.212 A 
HETATM    2  C11 UNL     1      41.001  20.512  34.696  1.00  0.00     0.177 A 
HETATM    3  N3  UNL     1      40.941  21.357  35.893  1.00  0.00    -0.200 N 
HETATM    4  C12 UNL     1      40.295  22.386  36.635  1.00  0.00     0.686 C 
HETATM    5  N4  UNL     1      40.676  23.583  36.775  1.00  0.00    -0.126 N 
ATOM      6  H4  UNL     1      41.538  23.886  36.322  1.00  0.00     0.197 HD
HETATM    7  C13 UNL     1      39.948  24.501  37.534  1.00  0.00     0.196 C 
HETATM    8  N5  UNL     1      39.345  25.279  38.142  1.00  0.00    -0.171 NA
HETATM    9  N6  UNL     1      39.068  21.972  37.278  1.00  0.00    -0.226 N 
ATOM     10  H6  UNL     1      38.176  22.409  37.048  1.00  0.00     0.177 HD
ENDROOT
BRANCH   9  11
HETATM   11  C14 UNL     1      39.153  20.914  38.260  1.00  0.00     0.138 C 
BRANCH  11  12
HETATM   12  C15 UNL     1      38.435  19.695  37.750  1.00  0.00     0.025 C 
BRANCH  12  13
HETATM   13  C16 UNL     1      38.110  18.793  38.897  1.00  0.00     0.042 C 
BRANCH  13  14
HETATM   14  C17 UNL     1      38.724  17.432  38.714  1.00  0.00    -0.033 A 
HETATM   15  C18 UNL     1      38.046  16.380  38.136  1.00  0.00     0.032 A 
HETATM   16  C19 UNL     1      38.611  15.136  37.957  1.00  0.00     0.036 A 
HETATM   17 CL1  UNL     1      37.722  13.820  37.222  1.00  0.00    -0.084 Cl
HETATM   18  C20 UNL     1      39.909  14.886  38.359  1.00  0.00     0.049 A 
HETATM   19  C21 UNL     1      40.608  15.923  38.939  1.00  0.00     0.058 A 
HETATM   20 CL2  UNL     1      42.261  15.656  39.460  1.00  0.00    -0.082 Cl
HETATM   21  C22 UNL     1      40.020  17.181  39.114  1.00  0.00     0.062 A 
HETATM   22 CL3  UNL     1      40.931  18.486  39.868  1.00  0.00    -0.082 Cl
ENDBRANCH  13  14
ENDBRANCH  12  13
ENDBRANCH  11  12
ENDBRANCH   9  11
BRANCH   1  23
HETATM   23  C9  UNL     1      43.362  20.917  35.552  1.00  0.00     0.242 C 
HETATM   24  N2  UNL     1      44.299  20.265  34.739  1.00  0.00    -0.359 N 
ATOM     25  H2  UNL     1      44.018  19.412  34.256  1.00  0.00     0.162 HD
HETATM   26  O2  UNL     1      43.694  21.997  36.130  1.00  0.00    -0.271 OA
BRANCH  24  27
HETATM   27  C8  UNL     1      45.639  20.747  34.559  1.00  0.00     0.122 C 
BRANCH  27  28
HETATM   28  C7  UNL     1      46.576  19.928  35.398  1.00  0.00     0.022 C 
BRANCH  28  29
HETATM   29  C6  UNL     1      47.715  19.298  34.681  1.00  0.00     0.035 C 
BRANCH  29  30
HETATM   30  C5  UNL     1      47.240  18.263  33.657  1.00  0.00     0.221 C 
BRANCH  30  31
HETATM   31  N1  UNL     1      47.088  17.027  34.282  1.00  0.00    -0.415 NA
HETATM   32  C4  UNL     1      46.945  15.863  34.870  1.00  0.00     0.286 C 
HETATM   33  O1  UNL     1      47.722  14.839  34.916  1.00  0.00    -0.258 OA
BRANCH  32  34
HETATM   34  C3  UNL     1      45.640  15.591  35.667  1.00  0.00     0.118 C 
BRANCH  34  35
HETATM   35  C2  UNL     1      44.621  16.593  35.264  1.00  0.00     0.006 C 
HETATM   36  C1  UNL     1      43.928  17.085  36.526  1.00  0.00     0.005 C 
ENDBRANCH  34  35
ENDBRANCH  32  34
ENDBRANCH  30  31
ENDBRANCH  29  30
ENDBRANCH  28  29
ENDBRANCH  27  28
ENDBRANCH  24  27
ENDBRANCH   1  23
TORSDOF 12
ENDMDL
MODEL 5
REMARK VINA RESULT: -6.816705377      1.437      2.773
REMARK  12 active torsions:
REMARK  status: ('A' for Active; 'I' for Inactive)
REMARK    1  A    between atoms: C2_2  and  C3_3 
REMARK    2  A    between atoms: C3_3  and  C4_4 
REMARK       I    between atoms: C4_4  and  N1_6 
REMARK    3  A    between atoms: N1_6  and  C5_7 
REMARK    4  A    between atoms: C5_7  and  C6_8 
REMARK    5  A    between atoms: C6_8  and  C7_9 
REMARK    6  A    between atoms: C7_9  and  C8_10 
REMARK    7  A    between atoms: C8_10  and  N2_11 
REMARK       I    between atoms: N2_11  and  C9_13 
REMARK    8  A    between atoms: C9_13  and  C10_15 
REMARK       I    between atoms: N3_17  and  C12_18 
REMARK       I    between atoms: C12_18  and  N6_23 
REMARK    9  A    between atoms: N6_23  and  C14_25 
REMARK   10  A    between atoms: C14_25  and  C15_26 
REMARK   11  A    between atoms: C15_26  and  C16_27 
REMARK   12  A    between atoms: C16_27  and  C17_28 
ROOT
HETATM    1  C10 UNL     1      41.988  20.425  35.708  1.00  0.00     0.212 A 
HETATM    2  C11 UNL     1      41.024  20.622  34.640  1.00  0.00     0.177 A 
HETATM    3  N3  UNL     1      40.948  21.424  35.866  1.00  0.00    -0.200 N 
HETATM    4  C12 UNL     1      40.296  22.431  36.632  1.00  0.00     0.686 C 
HETATM    5  N4  UNL     1      40.684  23.618  36.823  1.00  0.00    -0.126 N 
ATOM      6  H4  UNL     1      41.557  23.929  36.398  1.00  0.00     0.197 HD
HETATM    7  C13 UNL     1      39.949  24.515  37.601  1.00  0.00     0.196 C 
HETATM    8  N5  UNL     1      39.341  25.275  38.226  1.00  0.00    -0.171 NA
HETATM    9  N6  UNL     1      39.054  22.004  37.237  1.00  0.00    -0.226 N 
ATOM     10  H6  UNL     1      38.170  22.457  37.005  1.00  0.00     0.177 HD
ENDROOT
BRANCH   9  11
HETATM   11  C14 UNL     1      39.111  20.910  38.181  1.00  0.00     0.138 C 
BRANCH  11  12
HETATM   12  C15 UNL     1      38.356  19.732  37.632  1.00  0.00     0.025 C 
BRANCH  12  13
HETATM   13  C16 UNL     1      37.859  18.890  38.763  1.00  0.00     0.042 C 
BRANCH  13  14
HETATM   14  C17 UNL     1      38.532  17.544  38.779  1.00  0.00    -0.033 A 
HETATM   15  C18 UNL     1      39.861  17.379  39.109  1.00  0.00     0.032 A 
HETATM   16  C19 UNL     1      40.477  16.147  39.134  1.00  0.00     0.036 A 
HETATM   17 CL1  UNL     1      42.166  15.971  39.555  1.00  0.00    -0.084 Cl
HETATM   18  C20 UNL     1      39.772  15.000  38.822  1.00  0.00     0.049 A 
HETATM   19  C21 UNL     1      38.442  15.139  38.490  1.00  0.00     0.058 A 
HETATM   20 CL2  UNL     1      37.504  13.712  38.091  1.00  0.00    -0.082 Cl
HETATM   21  C22 UNL     1      37.831  16.398  38.468  1.00  0.00     0.062 A 
HETATM   22 CL3  UNL     1      36.133  16.550  38.028  1.00  0.00    -0.082 Cl
ENDBRANCH  13  14
ENDBRANCH  12  13
ENDBRANCH  11  12
ENDBRANCH   9  11
BRANCH   1  23
HETATM   23  C9  UNL     1      43.371  20.974  35.555  1.00  0.00     0.242 C 
HETATM   24  N2  UNL     1      44.331  20.323  34.767  1.00  0.00    -0.359 N 
ATOM     25  H2  UNL     1      44.060  19.475  34.269  1.00  0.00     0.162 HD
HETATM   26  O2  UNL     1      43.690  22.049  36.150  1.00  0.00    -0.271 OA
BRANCH  24  27
HETATM   27  C8  UNL     1      45.678  20.800  34.632  1.00  0.00     0.122 C 
BRANCH  27  28
HETATM   28  C7  UNL     1      46.598  19.909  35.414  1.00  0.00     0.022 C 
BRANCH  28  29
HETATM   29  C6  UNL     1      47.733  19.318  34.660  1.00  0.00     0.035 C 
BRANCH  29  30
HETATM   30  C5  UNL     1      47.258  18.284  33.635  1.00  0.00     0.221 C 
BRANCH  30  31
HETATM   31  N1  UNL     1      47.086  17.052  34.264  1.00  0.00    -0.415 NA
HETATM   32  C4  UNL     1      46.924  15.892  34.855  1.00  0.00     0.286 C 
HETATM   33  O1  UNL     1      47.687  14.857  34.905  1.00  0.00    -0.258 OA
BRANCH  32  34
HETATM   34  C3  UNL     1      45.615  15.642  35.651  1.00  0.00     0.118 C 
BRANCH  34  35
HETATM   35  C2  UNL     1      44.607  16.651  35.235  1.00  0.00     0.006 C 
HETATM   36  C1  UNL     1      43.825  17.064  36.472  1.00  0.00     0.005 C 
ENDBRANCH  34  35
ENDBRANCH  32  34
ENDBRANCH  30  31
ENDBRANCH  29  30
ENDBRANCH  28  29
ENDBRANCH  27  28
ENDBRANCH  24  27
ENDBRANCH   1  23
TORSDOF 12
ENDMDL
