MODEL 1
REMARK VINA RESULT: -7.022840174      0.000      0.000
REMARK  9 active torsions:
REMARK  status: ('A' for Active; 'I' for Inactive)
REMARK    1  A    between atoms: C2_2  and  O1_3 
REMARK    2  A    between atoms: C2_2  and  C3_6 
REMARK    3  A    between atoms: C4_10  and  C5_11 
REMARK    4  A    between atoms: C5_11  and  C6_12 
REMARK    5  A    between atoms: C6_12  and  C7_13 
REMARK    6  A    between atoms: C16_29  and  C17_30 
REMARK    7  A    between atoms: C17_30  and  C18_31 
REMARK    8  A    between atoms: C18_31  and  C19_32 
REMARK    9  A    between atoms: C19_32  and  C20_33 
ROOT
HETATM    1  C3  UNL     1      42.109  20.942  36.063  1.00  0.00     0.288 C 
HETATM    2  N1  UNL     1      41.869  21.695  37.295  1.00  0.00    -0.048 N 
ATOM      3  H11 UNL     1      42.557  22.440  37.406  1.00  0.00     0.279 HD
ATOM      4  H12 UNL     1      42.098  21.134  38.115  1.00  0.00     0.279 HD
HETATM    5  C4  UNL     1      40.536  22.210  37.381  1.00  0.00     0.279 C 
HETATM    6  C8  UNL     1      39.500  21.139  37.621  1.00  0.00     0.256 C 
HETATM    7  O3  UNL     1      38.388  21.591  37.976  1.00  0.00    -0.271 OA
HETATM    8  N3  UNL     1      39.645  19.740  37.494  1.00  0.00    -0.304 N 
HETATM    9  C9  UNL     1      40.811  19.052  37.066  1.00  0.00     0.059 A 
HETATM   10  C10 UNL     1      41.970  19.534  36.434  1.00  0.00     0.009 A 
HETATM   11  C11 UNL     1      42.998  18.681  36.141  1.00  0.00     0.054 A 
HETATM   12  C12 UNL     1      42.887  17.338  36.470  1.00  0.00     0.117 A 
HETATM   13  F2  UNL     1      43.918  16.486  36.173  1.00  0.00    -0.206 F 
HETATM   14  C13 UNL     1      41.748  16.856  37.090  1.00  0.00     0.057 A 
HETATM   15  C14 UNL     1      40.716  17.721  37.384  1.00  0.00     0.045 A 
HETATM   16  C15 UNL     1      39.373  17.478  38.043  1.00  0.00     0.294 C 
HETATM   17  F3  UNL     1      39.700  17.382  39.407  1.00  0.00    -0.198 F 
HETATM   18  F4  UNL     1      38.928  16.325  37.533  1.00  0.00    -0.198 F 
HETATM   19  C16 UNL     1      38.648  18.729  37.789  1.00  0.00     0.174 C 
ENDROOT
BRANCH   1  20
HETATM   20  C2  UNL     1      43.270  21.391  35.302  1.00  0.00     0.232 C 
HETATM   21  C1  UNL     1      43.051  21.328  33.807  1.00  0.00     0.087 C 
HETATM   22  F1  UNL     1      44.503  20.927  35.703  1.00  0.00    -0.210 F 
BRANCH  20  23
HETATM   23  O1  UNL     1      43.355  22.802  35.551  1.00  0.00    -0.360 OA
ATOM     24  H1  UNL     1      43.086  22.871  36.459  1.00  0.00     0.213 HD
ENDBRANCH  20  23
ENDBRANCH   1  20
BRANCH   5  25
HETATM   25  C5  UNL     1      40.337  23.343  38.314  1.00  0.00     0.052 C 
BRANCH  25  26
HETATM   26  C6  UNL     1      40.227  24.669  37.612  1.00  0.00     0.102 C 
BRANCH  26  27
HETATM   27  C7  UNL     1      40.855  25.704  38.471  1.00  0.00     0.231 C 
HETATM   28  N2  UNL     1      40.064  26.628  39.195  1.00  0.00    -0.062 NA
HETATM   29  O2  UNL     1      42.097  25.774  38.570  1.00  0.00    -0.277 OA
ENDBRANCH  26  27
ENDBRANCH  25  26
ENDBRANCH   5  25
BRANCH  19  30
HETATM   30  C17 UNL     1      37.547  18.747  36.777  1.00  0.00     0.059 C 
BRANCH  30  31
HETATM   31  C18 UNL     1      36.200  18.673  37.288  1.00  0.00    -0.024 C 
BRANCH  31  32
HETATM   32  C19 UNL     1      35.634  17.940  38.181  1.00  0.00     0.008 C 
BRANCH  32  33
HETATM   33  C20 UNL     1      35.145  18.223  39.508  1.00  0.00     0.084 C 
HETATM   34 CL1  UNL     1      36.162  18.002  40.894  1.00  0.00    -0.097 Cl
ENDBRANCH  32  33
ENDBRANCH  31  32
ENDBRANCH  30  31
ENDBRANCH  19  30
TORSDOF 9
ENDMDL
MODEL 2
REMARK VINA RESULT: -6.824329632      3.411      5.551
REMARK  9 active torsions:
REMARK  status: ('A' for Active; 'I' for Inactive)
REMARK    1  A    between atoms: C2_2  and  O1_3 
REMARK    2  A    between atoms: C2_2  and  C3_6 
REMARK    3  A    between atoms: C4_10  and  C5_11 
REMARK    4  A    between atoms: C5_11  and  C6_12 
REMARK    5  A    between atoms: C6_12  and  C7_13 
REMARK    6  A    between atoms: C16_29  and  C17_30 
REMARK    7  A    between atoms: C17_30  and  C18_31 
REMARK    8  A    between atoms: C18_31  and  C19_32 
REMARK    9  A    between atoms: C19_32  and  C20_33 
ROOT
HETATM    1  C3  UNL     1      42.977  17.432  34.910  1.00  0.00     0.288 C 
HETATM    2  N1  UNL     1      44.077  18.311  35.307  1.00  0.00    -0.048 N 
ATOM      3  H11 UNL     1      44.938  18.061  34.819  1.00  0.00     0.279 HD
ATOM      4  H12 UNL     1      44.369  18.120  36.265  1.00  0.00     0.279 HD
HETATM    5  C4  UNL     1      43.772  19.699  35.130  1.00  0.00     0.279 C 
HETATM    6  C8  UNL     1      42.762  20.215  36.126  1.00  0.00     0.256 C 
HETATM    7  O3  UNL     1      42.697  21.465  36.168  1.00  0.00    -0.271 OA
HETATM    8  N3  UNL     1      41.917  19.471  36.979  1.00  0.00    -0.304 N 
HETATM    9  C9  UNL     1      41.822  18.056  37.041  1.00  0.00     0.059 A 
HETATM   10  C10 UNL     1      42.297  17.074  36.154  1.00  0.00     0.009 A 
HETATM   11  C11 UNL     1      42.117  15.748  36.439  1.00  0.00     0.054 A 
HETATM   12  C12 UNL     1      41.463  15.381  37.605  1.00  0.00     0.117 A 
HETATM   13  F2  UNL     1      41.285  14.053  37.886  1.00  0.00    -0.206 F 
HETATM   14  C13 UNL     1      40.992  16.343  38.481  1.00  0.00     0.057 A 
HETATM   15  C14 UNL     1      41.176  17.677  38.190  1.00  0.00     0.045 A 
HETATM   16  C15 UNL     1      40.770  18.924  38.947  1.00  0.00     0.294 C 
HETATM   17  F3  UNL     1      41.729  19.002  39.973  1.00  0.00    -0.198 F 
HETATM   18  F4  UNL     1      39.538  18.679  39.406  1.00  0.00    -0.198 F 
HETATM   19  C16 UNL     1      40.997  19.995  37.969  1.00  0.00     0.174 C 
ENDROOT
BRANCH   1  20
HETATM   20  C2  UNL     1      43.352  16.396  33.953  1.00  0.00     0.232 C 
HETATM   21  C1  UNL     1      42.203  15.977  33.063  1.00  0.00     0.087 C 
HETATM   22  F1  UNL     1      44.101  15.342  34.427  1.00  0.00    -0.210 F 
BRANCH  20  23
HETATM   23  O1  UNL     1      44.244  17.044  33.034  1.00  0.00    -0.360 OA
ATOM     24  H1  UNL     1      44.851  17.491  33.612  1.00  0.00     0.213 HD
ENDBRANCH  20  23
ENDBRANCH   1  20
BRANCH   5  25
HETATM   25  C5  UNL     1      44.933  20.614  35.047  1.00  0.00     0.052 C 
BRANCH  25  26
HETATM   26  C6  UNL     1      45.645  20.538  33.724  1.00  0.00     0.102 C 
BRANCH  26  27
HETATM   27  C7  UNL     1      46.825  19.651  33.881  1.00  0.00     0.231 C 
HETATM   28  N2  UNL     1      48.097  20.180  34.206  1.00  0.00    -0.062 NA
HETATM   29  O2  UNL     1      46.712  18.418  33.729  1.00  0.00    -0.277 OA
ENDBRANCH  26  27
ENDBRANCH  25  26
ENDBRANCH   5  25
BRANCH  19  30
HETATM   30  C17 UNL     1      39.823  20.656  37.318  1.00  0.00     0.059 C 
BRANCH  30  31
HETATM   31  C18 UNL     1      39.558  22.021  37.700  1.00  0.00    -0.024 C 
BRANCH  31  32
HETATM   32  C19 UNL     1      40.314  23.009  38.025  1.00  0.00     0.008 C 
BRANCH  32  33
HETATM   33  C20 UNL     1      40.391  24.372  37.559  1.00  0.00     0.084 C 
HETATM   34 CL1  UNL     1      40.464  25.690  38.682  1.00  0.00    -0.097 Cl
ENDBRANCH  32  33
ENDBRANCH  31  32
ENDBRANCH  30  31
ENDBRANCH  19  30
TORSDOF 9
ENDMDL
MODEL 3
REMARK VINA RESULT: -6.753733471      2.724      3.741
REMARK  9 active torsions:
REMARK  status: ('A' for Active; 'I' for Inactive)
REMARK    1  A    between atoms: C2_2  and  O1_3 
REMARK    2  A    between atoms: C2_2  and  C3_6 
REMARK    3  A    between atoms: C4_10  and  C5_11 
REMARK    4  A    between atoms: C5_11  and  C6_12 
REMARK    5  A    between atoms: C6_12  and  C7_13 
REMARK    6  A    between atoms: C16_29  and  C17_30 
REMARK    7  A    between atoms: C17_30  and  C18_31 
REMARK    8  A    between atoms: C18_31  and  C19_32 
REMARK    9  A    between atoms: C19_32  and  C20_33 
ROOT
HETATM    1  C3  UNL     1      43.787  18.771  34.771  1.00  0.00     0.288 C 
HETATM    2  N1  UNL     1      44.146  20.094  35.281  1.00  0.00    -0.048 N 
ATOM      3  H11 UNL     1      44.991  20.443  34.827  1.00  0.00     0.279 HD
ATOM      4  H12 UNL     1      44.485  20.036  36.241  1.00  0.00     0.279 HD
HETATM    5  C4  UNL     1      43.077  21.041  35.172  1.00  0.00     0.279 C 
HETATM    6  C8  UNL     1      41.949  20.777  36.138  1.00  0.00     0.256 C 
HETATM    7  O3  UNL     1      41.154  21.737  36.252  1.00  0.00    -0.271 OA
HETATM    8  N3  UNL     1      41.704  19.611  36.897  1.00  0.00    -0.304 N 
HETATM    9  C9  UNL     1      42.468  18.414  36.867  1.00  0.00     0.059 A 
HETATM   10  C10 UNL     1      43.441  17.980  35.951  1.00  0.00     0.009 A 
HETATM   11  C11 UNL     1      44.082  16.787  36.144  1.00  0.00     0.054 A 
HETATM   12  C12 UNL     1      43.763  16.010  37.249  1.00  0.00     0.117 A 
HETATM   13  F2  UNL     1      44.407  14.816  37.438  1.00  0.00    -0.206 F 
HETATM   14  C13 UNL     1      42.805  16.431  38.154  1.00  0.00     0.057 A 
HETATM   15  C14 UNL     1      42.163  17.634  37.954  1.00  0.00     0.045 A 
HETATM   16  C15 UNL     1      41.088  18.333  38.761  1.00  0.00     0.294 C 
HETATM   17  F3  UNL     1      41.804  18.878  39.841  1.00  0.00    -0.198 F 
HETATM   18  F4  UNL     1      40.239  17.370  39.135  1.00  0.00    -0.198 F 
HETATM   19  C16 UNL     1      40.644  19.405  37.864  1.00  0.00     0.174 C 
ENDROOT
BRANCH   1  20
HETATM   20  C2  UNL     1      44.713  18.240  33.776  1.00  0.00     0.232 C 
HETATM   21  C1  UNL     1      44.079  17.196  32.885  1.00  0.00     0.087 C 
HETATM   22  F1  UNL     1      45.979  17.910  34.206  1.00  0.00    -0.210 F 
BRANCH  20  23
HETATM   23  O1  UNL     1      44.948  19.328  32.870  1.00  0.00    -0.360 OA
ATOM     24  H1  UNL     1      44.639  20.080  33.361  1.00  0.00     0.213 HD
ENDBRANCH  20  23
ENDBRANCH   1  20
BRANCH   5  25
HETATM   25  C5  UNL     1      43.469  22.469  35.208  1.00  0.00     0.052 C 
BRANCH  25  26
HETATM   26  C6  UNL     1      44.956  22.667  35.304  1.00  0.00     0.102 C 
BRANCH  26  27
HETATM   27  C7  UNL     1      45.513  22.687  33.928  1.00  0.00     0.231 C 
HETATM   28  N2  UNL     1      46.536  21.789  33.542  1.00  0.00    -0.062 NA
HETATM   29  O2  UNL     1      45.083  23.501  33.085  1.00  0.00    -0.277 OA
ENDBRANCH  26  27
ENDBRANCH  25  26
ENDBRANCH   5  25
BRANCH  19  30
HETATM   30  C17 UNL     1      39.313  19.294  37.189  1.00  0.00     0.059 C 
BRANCH  30  31
HETATM   31  C18 UNL     1      38.161  19.682  37.966  1.00  0.00    -0.024 C 
BRANCH  31  32
HETATM   32  C19 UNL     1      37.200  19.022  38.508  1.00  0.00     0.008 C 
BRANCH  32  33
HETATM   33  C20 UNL     1      37.110  18.252  39.724  1.00  0.00     0.084 C 
HETATM   34 CL1  UNL     1      35.650  18.236  40.658  1.00  0.00    -0.097 Cl
ENDBRANCH  32  33
ENDBRANCH  31  32
ENDBRANCH  30  31
ENDBRANCH  19  30
TORSDOF 9
ENDMDL
MODEL 4
REMARK VINA RESULT: -6.733103843      1.461      1.709
REMARK  9 active torsions:
REMARK  status: ('A' for Active; 'I' for Inactive)
REMARK    1  A    between atoms: C2_2  and  O1_3 
REMARK    2  A    between atoms: C2_2  and  C3_6 
REMARK    3  A    between atoms: C4_10  and  C5_11 
REMARK    4  A    between atoms: C5_11  and  C6_12 
REMARK    5  A    between atoms: C6_12  and  C7_13 
REMARK    6  A    between atoms: C16_29  and  C17_30 
REMARK    7  A    between atoms: C17_30  and  C18_31 
REMARK    8  A    between atoms: C18_31  and  C19_32 
REMARK    9  A    between atoms: C19_32  and  C20_33 
ROOT
HETATM    1  C3  UNL     1      42.801  21.447  35.539  1.00  0.00     0.288 C 
HETATM    2  N1  UNL     1      42.214  21.840  36.820  1.00  0.00    -0.048 N 
ATOM      3  H11 UNL     1      42.745  22.600  37.246  1.00  0.00     0.279 HD
ATOM      4  H12 UNL     1      42.362  21.118  37.526  1.00  0.00     0.279 HD
HETATM    5  C4  UNL     1      40.826  22.178  36.716  1.00  0.00     0.279 C 
HETATM    6  C8  UNL     1      39.940  20.981  36.473  1.00  0.00     0.256 C 
HETATM    7  O3  UNL     1      38.725  21.214  36.659  1.00  0.00    -0.271 OA
HETATM    8  N3  UNL     1      40.320  19.680  36.074  1.00  0.00    -0.304 N 
HETATM    9  C9  UNL     1      41.638  19.244  35.777  1.00  0.00     0.059 A 
HETATM   10  C10 UNL     1      42.810  19.985  35.546  1.00  0.00     0.009 A 
HETATM   11  C11 UNL     1      43.994  19.341  35.310  1.00  0.00     0.054 A 
HETATM   12  C12 UNL     1      44.028  17.955  35.298  1.00  0.00     0.117 A 
HETATM   13  F2  UNL     1      45.215  17.314  35.060  1.00  0.00    -0.206 F 
HETATM   14  C13 UNL     1      42.878  17.219  35.523  1.00  0.00     0.057 A 
HETATM   15  C14 UNL     1      41.688  17.873  35.762  1.00  0.00     0.045 A 
HETATM   16  C15 UNL     1      40.296  17.338  36.030  1.00  0.00     0.294 C 
HETATM   17  F3  UNL     1      40.363  16.938  37.376  1.00  0.00    -0.198 F 
HETATM   18  F4  UNL     1      40.141  16.309  35.190  1.00  0.00    -0.198 F 
HETATM   19  C16 UNL     1      39.452  18.531  35.904  1.00  0.00     0.174 C 
ENDROOT
BRANCH   1  20
HETATM   20  C2  UNL     1      44.006  22.188  35.178  1.00  0.00     0.232 C 
HETATM   21  C1  UNL     1      44.135  22.404  33.687  1.00  0.00     0.087 C 
HETATM   22  F1  UNL     1      45.181  21.814  35.790  1.00  0.00    -0.210 F 
BRANCH  20  23
HETATM   23  O1  UNL     1      43.786  23.517  35.673  1.00  0.00    -0.360 OA
ATOM     24  H1  UNL     1      43.617  23.371  36.596  1.00  0.00     0.213 HD
ENDBRANCH  20  23
ENDBRANCH   1  20
BRANCH   5  25
HETATM   25  C5  UNL     1      40.279  23.016  37.808  1.00  0.00     0.052 C 
BRANCH  25  26
HETATM   26  C6  UNL     1      40.331  24.487  37.501  1.00  0.00     0.102 C 
BRANCH  26  27
HETATM   27  C7  UNL     1      40.665  25.212  38.752  1.00  0.00     0.231 C 
HETATM   28  N2  UNL     1      40.293  26.566  38.931  1.00  0.00    -0.062 NA
HETATM   29  O2  UNL     1      41.281  24.635  39.671  1.00  0.00    -0.277 OA
ENDBRANCH  26  27
ENDBRANCH  25  26
ENDBRANCH   5  25
BRANCH  19  30
HETATM   30  C17 UNL     1      38.578  18.689  34.700  1.00  0.00     0.059 C 
BRANCH  30  31
HETATM   31  C18 UNL     1      37.157  18.559  34.912  1.00  0.00    -0.024 C 
BRANCH  31  32
HETATM   32  C19 UNL     1      36.446  18.206  35.924  1.00  0.00     0.008 C 
BRANCH  32  33
HETATM   33  C20 UNL     1      36.047  18.899  37.124  1.00  0.00     0.084 C 
HETATM   34 CL1  UNL     1      37.052  18.875  38.537  1.00  0.00    -0.097 Cl
ENDBRANCH  32  33
ENDBRANCH  31  32
ENDBRANCH  30  31
ENDBRANCH  19  30
TORSDOF 9
ENDMDL
MODEL 5
REMARK VINA RESULT: -6.731575675      3.474      5.473
REMARK  9 active torsions:
REMARK  status: ('A' for Active; 'I' for Inactive)
REMARK    1  A    between atoms: C2_2  and  O1_3 
REMARK    2  A    between atoms: C2_2  and  C3_6 
REMARK    3  A    between atoms: C4_10  and  C5_11 
REMARK    4  A    between atoms: C5_11  and  C6_12 
REMARK    5  A    between atoms: C6_12  and  C7_13 
REMARK    6  A    between atoms: C16_29  and  C17_30 
REMARK    7  A    between atoms: C17_30  and  C18_31 
REMARK    8  A    between atoms: C18_31  and  C19_32 
REMARK    9  A    between atoms: C19_32  and  C20_33 
ROOT
HETATM    1  C3  UNL     1      44.541  17.438  34.976  1.00  0.00     0.288 C 
HETATM    2  N1  UNL     1      45.203  18.694  35.328  1.00  0.00    -0.048 N 
ATOM      3  H11 UNL     1      46.178  18.689  35.027  1.00  0.00     0.279 HD
ATOM      4  H12 UNL     1      45.342  18.764  36.336  1.00  0.00     0.279 HD
HETATM    5  C4  UNL     1      44.517  19.845  34.824  1.00  0.00     0.279 C 
HETATM    6  C8  UNL     1      43.217  20.121  35.539  1.00  0.00     0.256 C 
HETATM    7  O3  UNL     1      42.754  21.261  35.308  1.00  0.00    -0.271 OA
HETATM    8  N3  UNL     1      42.498  19.267  36.404  1.00  0.00    -0.304 N 
HETATM    9  C9  UNL     1      42.844  17.934  36.747  1.00  0.00     0.059 A 
HETATM   10  C10 UNL     1      43.773  17.058  36.161  1.00  0.00     0.009 A 
HETATM   11  C11 UNL     1      43.969  15.811  36.690  1.00  0.00     0.054 A 
HETATM   12  C12 UNL     1      43.244  15.420  37.806  1.00  0.00     0.117 A 
HETATM   13  F2  UNL     1      43.442  14.171  38.331  1.00  0.00    -0.206 F 
HETATM   14  C13 UNL     1      42.327  16.278  38.387  1.00  0.00     0.057 A 
HETATM   15  C14 UNL     1      42.134  17.532  37.850  1.00  0.00     0.045 A 
HETATM   16  C15 UNL     1      41.211  18.659  38.265  1.00  0.00     0.294 C 
HETATM   17  F3  UNL     1      41.869  19.219  39.374  1.00  0.00    -0.198 F 
HETATM   18  F4  UNL     1      40.054  18.073  38.590  1.00  0.00    -0.198 F 
HETATM   19  C16 UNL     1      41.280  19.581  37.125  1.00  0.00     0.174 C 
ENDROOT
BRANCH   1  20
HETATM   20  C2  UNL     1      45.409  16.465  34.319  1.00  0.00     0.232 C 
HETATM   21  C1  UNL     1      44.698  15.684  33.237  1.00  0.00     0.087 C 
HETATM   22  F1  UNL     1      46.212  15.692  35.127  1.00  0.00    -0.210 F 
BRANCH  20  23
HETATM   23  O1  UNL     1      46.351  17.251  33.575  1.00  0.00    -0.360 OA
ATOM     24  H1  UNL     1      47.187  16.905  33.865  1.00  0.00     0.213 HD
ENDBRANCH  20  23
ENDBRANCH   1  20
BRANCH   5  25
HETATM   25  C5  UNL     1      45.322  21.083  34.712  1.00  0.00     0.052 C 
BRANCH  25  26
HETATM   26  C6  UNL     1      45.711  21.404  33.295  1.00  0.00     0.102 C 
BRANCH  26  27
HETATM   27  C7  UNL     1      46.943  20.644  32.967  1.00  0.00     0.231 C 
HETATM   28  N2  UNL     1      47.741  20.074  33.988  1.00  0.00    -0.062 NA
HETATM   29  O2  UNL     1      47.295  20.494  31.780  1.00  0.00    -0.277 OA
ENDBRANCH  26  27
ENDBRANCH  25  26
ENDBRANCH   5  25
BRANCH  19  30
HETATM   30  C17 UNL     1      40.114  19.686  36.194  1.00  0.00     0.059 C 
BRANCH  30  31
HETATM   31  C18 UNL     1      39.284  20.859  36.328  1.00  0.00    -0.024 C 
BRANCH  31  32
HETATM   32  C19 UNL     1      39.121  21.721  37.268  1.00  0.00     0.008 C 
BRANCH  32  33
HETATM   33  C20 UNL     1      39.998  22.708  37.848  1.00  0.00     0.084 C 
HETATM   34 CL1  UNL     1      40.214  24.254  37.096  1.00  0.00    -0.097 Cl
ENDBRANCH  32  33
ENDBRANCH  31  32
ENDBRANCH  30  31
ENDBRANCH  19  30
TORSDOF 9
ENDMDL
