MODEL 1
REMARK VINA RESULT: -6.611553106      0.000      0.000
REMARK  8 active torsions:
REMARK  status: ('A' for Active; 'I' for Inactive)
REMARK    1  A    between atoms: C1_2  and  C2_4 
REMARK    2  A    between atoms: C2_4  and  C3_5 
REMARK    3  A    between atoms: C3_5  and  C4_6 
REMARK       I    between atoms: C4_6  and  N2_8 
REMARK    4  A    between atoms: N2_8  and  C5_10 
REMARK    5  A    between atoms: C5_10  and  C6_11 
REMARK    6  A    between atoms: C13_21  and  C14_22 
REMARK    7  A    between atoms: C13_21  and  C15_25 
REMARK    8  A    between atoms: C14_22  and  O3_23 
ROOT
HETATM    1  C3  UNL     1      39.101  16.260  38.243  1.00  0.00     0.051 C 
HETATM    2  C12 UNL     1      38.348  16.377  36.973  1.00  0.00     0.034 C 
HETATM    3  C13 UNL     1      36.874  16.364  37.225  1.00  0.00     0.016 C 
HETATM    4  C16 UNL     1      36.738  16.685  38.659  1.00  0.00    -0.027 C 
HETATM    5  C17 UNL     1      36.579  18.191  38.810  1.00  0.00     0.016 C 
HETATM    6  C18 UNL     1      36.171  18.547  40.238  1.00  0.00     0.080 C 
HETATM    7  C19 UNL     1      34.719  18.171  40.426  1.00  0.00     0.243 C 
HETATM    8  F5  UNL     1      34.416  17.815  41.709  1.00  0.00    -0.206 F 
HETATM    9  F6  UNL     1      33.971  19.279  40.055  1.00  0.00    -0.206 F 
HETATM   10  C20 UNL     1      34.379  17.061  39.463  1.00  0.00     0.080 C 
HETATM   11  C21 UNL     1      35.525  16.082  39.298  1.00  0.00     0.016 C 
HETATM   12  C22 UNL     1      38.020  16.200  39.290  1.00  0.00     0.030 C 
ENDROOT
BRANCH   1  13
HETATM   13  C2  UNL     1      39.978  15.005  38.290  1.00  0.00     0.118 C 
BRANCH  13  14
HETATM   14  C1  UNL     1      39.340  13.900  39.005  1.00  0.00     0.232 C 
HETATM   15  N1  UNL     1      39.584  13.610  40.384  1.00  0.00    -0.062 NA
HETATM   16  O1  UNL     1      38.528  13.134  38.436  1.00  0.00    -0.277 OA
ENDBRANCH  13  14
ENDBRANCH   1  13
BRANCH   1  17
HETATM   17  C4  UNL     1      40.022  17.413  38.469  1.00  0.00     0.230 C 
HETATM   18  O2  UNL     1      40.314  17.857  39.601  1.00  0.00    -0.272 OA
HETATM   19  N2  UNL     1      40.650  18.110  37.372  1.00  0.00    -0.335 N 
ATOM     20  H2  UNL     1      40.463  17.812  36.415  1.00  0.00     0.168 HD
BRANCH  19  21
HETATM   21  C5  UNL     1      41.514  19.192  37.605  1.00  0.00     0.108 C 
BRANCH  21  22
HETATM   22  C6  UNL     1      40.998  20.537  37.452  1.00  0.00     0.057 A 
HETATM   23  C7  UNL     1      41.828  21.431  36.726  1.00  0.00     0.134 A 
HETATM   24  F1  UNL     1      43.006  20.992  36.237  1.00  0.00    -0.205 F 
HETATM   25  C8  UNL     1      41.487  22.727  36.496  1.00  0.00     0.085 A 
HETATM   26  C9  UNL     1      40.295  23.235  36.970  1.00  0.00     0.122 A 
HETATM   27  F2  UNL     1      39.974  24.530  36.730  1.00  0.00    -0.206 F 
HETATM   28  C10 UNL     1      39.481  22.404  37.668  1.00  0.00     0.085 A 
HETATM   29  C11 UNL     1      39.840  21.078  37.897  1.00  0.00     0.134 A 
HETATM   30  F3  UNL     1      38.927  20.376  38.607  1.00  0.00    -0.205 F 
ENDBRANCH  21  22
ENDBRANCH  19  21
ENDBRANCH   1  17
BRANCH   3  31
HETATM   31  C14 UNL     1      36.220  15.090  36.755  1.00  0.00     0.176 C 
BRANCH  31  32
HETATM   32  O3  UNL     1      37.040  14.158  36.203  1.00  0.00    -0.400 OA
ATOM     33  H3  UNL     1      37.664  14.471  35.560  1.00  0.00     0.209 HD
ENDBRANCH  31  32
ENDBRANCH   3  31
BRANCH   3  34
HETATM   34  C15 UNL     1      36.220  17.440  36.331  1.00  0.00     0.234 C 
HETATM   35  F4  UNL     1      37.299  18.002  35.631  1.00  0.00    -0.255 F 
ENDBRANCH   3  34
TORSDOF 8
ENDMDL
MODEL 2
REMARK VINA RESULT: -6.567474204      5.482      9.350
REMARK  8 active torsions:
REMARK  status: ('A' for Active; 'I' for Inactive)
REMARK    1  A    between atoms: C1_2  and  C2_4 
REMARK    2  A    between atoms: C2_4  and  C3_5 
REMARK    3  A    between atoms: C3_5  and  C4_6 
REMARK       I    between atoms: C4_6  and  N2_8 
REMARK    4  A    between atoms: N2_8  and  C5_10 
REMARK    5  A    between atoms: C5_10  and  C6_11 
REMARK    6  A    between atoms: C13_21  and  C14_22 
REMARK    7  A    between atoms: C13_21  and  C15_25 
REMARK    8  A    between atoms: C14_22  and  O3_23 
ROOT
HETATM    1  C3  UNL     1      45.170  21.758  33.960  1.00  0.00     0.051 C 
HETATM    2  C12 UNL     1      45.435  22.668  32.822  1.00  0.00     0.034 C 
HETATM    3  C13 UNL     1      45.041  22.030  31.529  1.00  0.00     0.016 C 
HETATM    4  C16 UNL     1      44.138  20.928  31.915  1.00  0.00    -0.027 C 
HETATM    5  C17 UNL     1      42.706  21.443  31.902  1.00  0.00     0.016 C 
HETATM    6  C18 UNL     1      41.718  20.286  32.034  1.00  0.00     0.080 C 
HETATM    7  C19 UNL     1      41.678  19.542  30.719  1.00  0.00     0.243 C 
HETATM    8  F5  UNL     1      41.404  18.213  30.859  1.00  0.00    -0.206 F 
HETATM    9  F6  UNL     1      40.693  20.147  29.951  1.00  0.00    -0.206 F 
HETATM   10  C20 UNL     1      42.990  19.751  30.005  1.00  0.00     0.080 C 
HETATM   11  C21 UNL     1      44.162  19.770  30.967  1.00  0.00     0.016 C 
HETATM   12  C22 UNL     1      44.571  20.540  33.308  1.00  0.00     0.030 C 
ENDROOT
BRANCH   1  13
HETATM   13  C2  UNL     1      46.445  21.396  34.728  1.00  0.00     0.118 C 
BRANCH  13  14
HETATM   14  C1  UNL     1      47.050  20.150  34.257  1.00  0.00     0.232 C 
HETATM   15  N1  UNL     1      46.906  18.899  34.936  1.00  0.00    -0.062 NA
HETATM   16  O1  UNL     1      47.739  20.112  33.211  1.00  0.00    -0.277 OA
ENDBRANCH  13  14
ENDBRANCH   1  13
BRANCH   1  17
HETATM   17  C4  UNL     1      44.241  22.356  34.966  1.00  0.00     0.230 C 
HETATM   18  O2  UNL     1      44.411  23.479  35.486  1.00  0.00    -0.272 OA
HETATM   19  N2  UNL     1      43.059  21.659  35.414  1.00  0.00    -0.335 N 
ATOM     20  H2  UNL     1      42.847  20.735  35.039  1.00  0.00     0.168 HD
BRANCH  19  21
HETATM   21  C5  UNL     1      42.197  22.237  36.360  1.00  0.00     0.108 C 
BRANCH  21  22
HETATM   22  C6  UNL     1      41.140  21.424  36.924  1.00  0.00     0.057 A 
HETATM   23  C7  UNL     1      39.892  22.079  37.099  1.00  0.00     0.134 A 
HETATM   24  F1  UNL     1      39.768  23.373  36.741  1.00  0.00    -0.205 F 
HETATM   25  C8  UNL     1      38.801  21.454  37.616  1.00  0.00     0.085 A 
HETATM   26  C9  UNL     1      38.865  20.130  38.000  1.00  0.00     0.122 A 
HETATM   27  F2  UNL     1      37.765  19.526  38.514  1.00  0.00    -0.206 F 
HETATM   28  C10 UNL     1      40.045  19.478  37.846  1.00  0.00     0.085 A 
HETATM   29  C11 UNL     1      41.156  20.128  37.315  1.00  0.00     0.134 A 
HETATM   30  F3  UNL     1      42.258  19.348  37.223  1.00  0.00    -0.205 F 
ENDBRANCH  21  22
ENDBRANCH  19  21
ENDBRANCH   1  17
BRANCH   3  31
HETATM   31  C14 UNL     1      46.231  21.659  30.683  1.00  0.00     0.176 C 
BRANCH  31  32
HETATM   32  O3  UNL     1      47.442  22.099  31.116  1.00  0.00    -0.400 OA
ATOM     33  H3  UNL     1      47.435  22.850  31.697  1.00  0.00     0.209 HD
ENDBRANCH  31  32
ENDBRANCH   3  31
BRANCH   3  34
HETATM   34  C15 UNL     1      44.319  23.089  30.666  1.00  0.00     0.234 C 
HETATM   35  F4  UNL     1      44.457  24.277  31.401  1.00  0.00    -0.255 F 
ENDBRANCH   3  34
TORSDOF 8
ENDMDL
MODEL 3
REMARK VINA RESULT: -6.484073776      4.090      6.039
REMARK  8 active torsions:
REMARK  status: ('A' for Active; 'I' for Inactive)
REMARK    1  A    between atoms: C1_2  and  C2_4 
REMARK    2  A    between atoms: C2_4  and  C3_5 
REMARK    3  A    between atoms: C3_5  and  C4_6 
REMARK       I    between atoms: C4_6  and  N2_8 
REMARK    4  A    between atoms: N2_8  and  C5_10 
REMARK    5  A    between atoms: C5_10  and  C6_11 
REMARK    6  A    between atoms: C13_21  and  C14_22 
REMARK    7  A    between atoms: C13_21  and  C15_25 
REMARK    8  A    between atoms: C14_22  and  O3_23 
ROOT
HETATM    1  C3  UNL     1      39.605  20.367  36.372  1.00  0.00     0.051 C 
HETATM    2  C12 UNL     1      40.468  19.290  36.908  1.00  0.00     0.034 C 
HETATM    3  C13 UNL     1      39.808  18.606  38.063  1.00  0.00     0.016 C 
HETATM    4  C16 UNL     1      38.382  18.965  37.944  1.00  0.00    -0.027 C 
HETATM    5  C17 UNL     1      37.675  17.895  37.125  1.00  0.00     0.016 C 
HETATM    6  C18 UNL     1      36.160  18.076  37.196  1.00  0.00     0.080 C 
HETATM    7  C19 UNL     1      35.691  17.629  38.561  1.00  0.00     0.243 C 
HETATM    8  F5  UNL     1      34.585  18.300  38.997  1.00  0.00    -0.206 F 
HETATM    9  F6  UNL     1      35.410  16.274  38.460  1.00  0.00    -0.206 F 
HETATM   10  C20 UNL     1      36.832  17.776  39.537  1.00  0.00     0.080 C 
HETATM   11  C21 UNL     1      37.662  19.014  39.256  1.00  0.00     0.016 C 
HETATM   12  C22 UNL     1      38.373  20.297  37.234  1.00  0.00     0.030 C 
ENDROOT
BRANCH   1  13
HETATM   13  C2  UNL     1      40.264  21.747  36.470  1.00  0.00     0.118 C 
BRANCH  13  14
HETATM   14  C1  UNL     1      41.699  21.667  36.741  1.00  0.00     0.232 C 
HETATM   15  N1  UNL     1      42.687  21.533  35.715  1.00  0.00    -0.062 NA
HETATM   16  O1  UNL     1      42.148  21.713  37.910  1.00  0.00    -0.277 OA
ENDBRANCH  13  14
ENDBRANCH   1  13
BRANCH   1  17
HETATM   17  C4  UNL     1      39.277  20.171  34.928  1.00  0.00     0.230 C 
HETATM   18  O2  UNL     1      40.135  20.124  34.021  1.00  0.00    -0.272 OA
HETATM   19  N2  UNL     1      37.915  20.019  34.473  1.00  0.00    -0.335 N 
ATOM     20  H2  UNL     1      37.153  20.046  35.150  1.00  0.00     0.168 HD
BRANCH  19  21
HETATM   21  C5  UNL     1      37.626  19.835  33.112  1.00  0.00     0.108 C 
BRANCH  21  22
HETATM   22  C6  UNL     1      36.962  20.902  32.393  1.00  0.00     0.057 A 
HETATM   23  C7  UNL     1      35.645  21.205  32.828  1.00  0.00     0.134 A 
HETATM   24  F1  UNL     1      35.108  20.506  33.849  1.00  0.00    -0.205 F 
HETATM   25  C8  UNL     1      34.888  22.179  32.256  1.00  0.00     0.085 A 
HETATM   26  C9  UNL     1      35.381  22.928  31.207  1.00  0.00     0.122 A 
HETATM   27  F2  UNL     1      34.610  23.894  30.651  1.00  0.00    -0.206 F 
HETATM   28  C10 UNL     1      36.637  22.661  30.769  1.00  0.00     0.085 A 
HETATM   29  C11 UNL     1      37.404  21.661  31.363  1.00  0.00     0.134 A 
HETATM   30  F3  UNL     1      38.633  21.514  30.818  1.00  0.00    -0.205 F 
ENDBRANCH  21  22
ENDBRANCH  19  21
ENDBRANCH   1  17
BRANCH   3  31
HETATM   31  C14 UNL     1      40.474  18.921  39.377  1.00  0.00     0.176 C 
BRANCH  31  32
HETATM   32  O3  UNL     1      41.777  19.304  39.318  1.00  0.00    -0.400 OA
ATOM     33  H3  UNL     1      41.948  20.163  38.951  1.00  0.00     0.209 HD
ENDBRANCH  31  32
ENDBRANCH   3  31
BRANCH   3  34
HETATM   34  C15 UNL     1      40.032  17.084  37.917  1.00  0.00     0.234 C 
HETATM   35  F4  UNL     1      39.959  16.602  39.233  1.00  0.00    -0.255 F 
ENDBRANCH   3  34
TORSDOF 8
ENDMDL
MODEL 4
REMARK VINA RESULT: -6.472946542      5.221      8.755
REMARK  8 active torsions:
REMARK  status: ('A' for Active; 'I' for Inactive)
REMARK    1  A    between atoms: C1_2  and  C2_4 
REMARK    2  A    between atoms: C2_4  and  C3_5 
REMARK    3  A    between atoms: C3_5  and  C4_6 
REMARK       I    between atoms: C4_6  and  N2_8 
REMARK    4  A    between atoms: N2_8  and  C5_10 
REMARK    5  A    between atoms: C5_10  and  C6_11 
REMARK    6  A    between atoms: C13_21  and  C14_22 
REMARK    7  A    between atoms: C13_21  and  C15_25 
REMARK    8  A    between atoms: C14_22  and  O3_23 
ROOT
HETATM    1  C3  UNL     1      45.417  20.676  34.232  1.00  0.00     0.051 C 
HETATM    2  C12 UNL     1      44.613  20.255  33.061  1.00  0.00     0.034 C 
HETATM    3  C13 UNL     1      44.703  18.776  32.858  1.00  0.00     0.016 C 
HETATM    4  C16 UNL     1      45.191  18.251  34.148  1.00  0.00    -0.027 C 
HETATM    5  C17 UNL     1      43.992  17.889  35.013  1.00  0.00     0.016 C 
HETATM    6  C18 UNL     1      44.435  17.099  36.242  1.00  0.00     0.080 C 
HETATM    7  C19 UNL     1      44.799  15.699  35.804  1.00  0.00     0.243 C 
HETATM    8  F5  UNL     1      45.771  15.129  36.574  1.00  0.00    -0.206 F 
HETATM    9  F6  UNL     1      43.637  14.946  35.878  1.00  0.00    -0.206 F 
HETATM   10  C20 UNL     1      45.212  15.739  34.354  1.00  0.00     0.080 C 
HETATM   11  C21 UNL     1      45.995  16.995  34.021  1.00  0.00     0.016 C 
HETATM   12  C22 UNL     1      45.984  19.382  34.755  1.00  0.00     0.030 C 
ENDROOT
BRANCH   1  13
HETATM   13  C2  UNL     1      46.536  21.651  33.853  1.00  0.00     0.118 C 
BRANCH  13  14
HETATM   14  C1  UNL     1      46.207  22.454  32.675  1.00  0.00     0.232 C 
HETATM   15  N1  UNL     1      45.271  23.536  32.697  1.00  0.00    -0.062 NA
HETATM   16  O1  UNL     1      46.739  22.232  31.563  1.00  0.00    -0.277 OA
ENDBRANCH  13  14
ENDBRANCH   1  13
BRANCH   1  17
HETATM   17  C4  UNL     1      44.596  21.373  35.267  1.00  0.00     0.230 C 
HETATM   18  O2  UNL     1      45.083  22.014  36.223  1.00  0.00    -0.272 OA
HETATM   19  N2  UNL     1      43.153  21.353  35.231  1.00  0.00    -0.335 N 
ATOM     20  H2  UNL     1      42.676  20.851  34.483  1.00  0.00     0.168 HD
BRANCH  19  21
HETATM   21  C5  UNL     1      42.399  22.015  36.213  1.00  0.00     0.108 C 
BRANCH  21  22
HETATM   22  C6  UNL     1      41.296  21.311  36.833  1.00  0.00     0.057 A 
HETATM   23  C7  UNL     1      40.095  22.056  36.971  1.00  0.00     0.134 A 
HETATM   24  F1  UNL     1      40.052  23.330  36.531  1.00  0.00    -0.205 F 
HETATM   25  C8  UNL     1      38.970  21.539  37.532  1.00  0.00     0.085 A 
HETATM   26  C9  UNL     1      38.951  20.240  38.001  1.00  0.00     0.122 A 
HETATM   27  F2  UNL     1      37.819  19.744  38.557  1.00  0.00    -0.206 F 
HETATM   28  C10 UNL     1      40.084  19.504  37.884  1.00  0.00     0.085 A 
HETATM   29  C11 UNL     1      41.231  20.045  37.306  1.00  0.00     0.134 A 
HETATM   30  F3  UNL     1      42.278  19.189  37.260  1.00  0.00    -0.205 F 
ENDBRANCH  21  22
ENDBRANCH  19  21
ENDBRANCH   1  17
BRANCH   3  31
HETATM   31  C14 UNL     1      45.506  18.410  31.636  1.00  0.00     0.176 C 
BRANCH  31  32
HETATM   32  O3  UNL     1      46.584  19.191  31.364  1.00  0.00    -0.400 OA
ATOM     33  H3  UNL     1      46.405  20.097  31.145  1.00  0.00     0.209 HD
ENDBRANCH  31  32
ENDBRANCH   3  31
BRANCH   3  34
HETATM   34  C15 UNL     1      43.293  18.247  32.518  1.00  0.00     0.234 C 
HETATM   35  F4  UNL     1      42.492  19.399  32.504  1.00  0.00    -0.255 F 
ENDBRANCH   3  34
TORSDOF 8
ENDMDL
MODEL 5
REMARK VINA RESULT: -6.419096239      3.188      7.343
REMARK  8 active torsions:
REMARK  status: ('A' for Active; 'I' for Inactive)
REMARK    1  A    between atoms: C1_2  and  C2_4 
REMARK    2  A    between atoms: C2_4  and  C3_5 
REMARK    3  A    between atoms: C3_5  and  C4_6 
REMARK       I    between atoms: C4_6  and  N2_8 
REMARK    4  A    between atoms: N2_8  and  C5_10 
REMARK    5  A    between atoms: C5_10  and  C6_11 
REMARK    6  A    between atoms: C13_21  and  C14_22 
REMARK    7  A    between atoms: C13_21  and  C15_25 
REMARK    8  A    between atoms: C14_22  and  O3_23 
ROOT
HETATM    1  C3  UNL     1      39.509  20.020  37.427  1.00  0.00     0.051 C 
HETATM    2  C12 UNL     1      39.961  19.870  36.025  1.00  0.00     0.034 C 
HETATM    3  C13 UNL     1      41.106  18.912  35.936  1.00  0.00     0.016 C 
HETATM    4  C16 UNL     1      41.059  18.154  37.200  1.00  0.00    -0.027 C 
HETATM    5  C17 UNL     1      40.218  16.903  36.990  1.00  0.00     0.016 C 
HETATM    6  C18 UNL     1      40.355  15.956  38.179  1.00  0.00     0.080 C 
HETATM    7  C19 UNL     1      41.715  15.299  38.111  1.00  0.00     0.243 C 
HETATM    8  F5  UNL     1      42.223  14.985  39.338  1.00  0.00    -0.206 F 
HETATM    9  F6  UNL     1      41.561  14.147  37.355  1.00  0.00    -0.206 F 
HETATM   10  C20 UNL     1      42.652  16.206  37.354  1.00  0.00     0.080 C 
HETATM   11  C21 UNL     1      42.398  17.670  37.663  1.00  0.00     0.016 C 
HETATM   12  C22 UNL     1      40.413  19.090  38.192  1.00  0.00     0.030 C 
ENDROOT
BRANCH   1  13
HETATM   13  C2  UNL     1      39.646  21.459  37.935  1.00  0.00     0.118 C 
BRANCH  13  14
HETATM   14  C1  UNL     1      40.947  22.046  37.614  1.00  0.00     0.232 C 
HETATM   15  N1  UNL     1      41.111  23.161  36.733  1.00  0.00    -0.062 NA
HETATM   16  O1  UNL     1      42.008  21.594  38.104  1.00  0.00    -0.277 OA
ENDBRANCH  13  14
ENDBRANCH   1  13
BRANCH   1  17
HETATM   17  C4  UNL     1      38.071  19.657  37.606  1.00  0.00     0.230 C 
HETATM   18  O2  UNL     1      37.154  20.065  36.861  1.00  0.00    -0.272 OA
HETATM   19  N2  UNL     1      37.634  18.792  38.676  1.00  0.00    -0.335 N 
ATOM     20  H2  UNL     1      38.319  18.416  39.330  1.00  0.00     0.168 HD
BRANCH  19  21
HETATM   21  C5  UNL     1      36.277  18.463  38.828  1.00  0.00     0.108 C 
BRANCH  21  22
HETATM   22  C6  UNL     1      35.906  17.501  39.844  1.00  0.00     0.057 A 
HETATM   23  C7  UNL     1      35.030  17.983  40.852  1.00  0.00     0.134 A 
HETATM   24  F1  UNL     1      34.609  19.264  40.806  1.00  0.00    -0.205 F 
HETATM   25  C8  UNL     1      34.589  17.205  41.876  1.00  0.00     0.085 A 
HETATM   26  C9  UNL     1      34.985  15.886  41.978  1.00  0.00     0.122 A 
HETATM   27  F2  UNL     1      34.534  15.128  43.006  1.00  0.00    -0.206 F 
HETATM   28  C10 UNL     1      35.822  15.397  41.029  1.00  0.00     0.085 A 
HETATM   29  C11 UNL     1      36.267  16.204  39.984  1.00  0.00     0.134 A 
HETATM   30  F3  UNL     1      37.095  15.575  39.119  1.00  0.00    -0.205 F 
ENDBRANCH  21  22
ENDBRANCH  19  21
ENDBRANCH   1  17
BRANCH   3  31
HETATM   31  C14 UNL     1      42.408  19.599  35.611  1.00  0.00     0.176 C 
BRANCH  31  32
HETATM   32  O3  UNL     1      42.317  20.824  35.029  1.00  0.00    -0.400 OA
ATOM     33  H3  UNL     1      43.034  21.075  34.460  1.00  0.00     0.209 HD
ENDBRANCH  31  32
ENDBRANCH   3  31
BRANCH   3  34
HETATM   34  C15 UNL     1      40.881  18.000  34.710  1.00  0.00     0.234 C 
HETATM   35  F4  UNL     1      42.179  17.661  34.296  1.00  0.00    -0.255 F 
ENDBRANCH   3  34
TORSDOF 8
ENDMDL
