MODEL 1
REMARK VINA RESULT: -7.213046379      0.000      0.000
REMARK  7 active torsions:
REMARK  status: ('A' for Active; 'I' for Inactive)
REMARK    1  A    between atoms: C6_13  and  C7_14 
REMARK    2  A    between atoms: C7_14  and  C8_15 
REMARK    3  A    between atoms: C8_15  and  C9_16 
REMARK       I    between atoms: C9_16  and  N2_18 
REMARK    4  A    between atoms: N2_18  and  C10_20 
REMARK    5  A    between atoms: C10_20  and  C11_21 
REMARK    6  A    between atoms: C11_21  and  N3_22 
REMARK       I    between atoms: N3_22  and  C12_24 
REMARK    7  A    between atoms: C12_24  and  C13_26 
ROOT
HETATM    1  C9  UNL     1      36.807  18.452  38.727  1.00  0.00     0.217 C 
HETATM    2  O2  UNL     1      37.804  17.926  38.177  1.00  0.00    -0.274 OA
HETATM    3  N2  UNL     1      35.922  19.212  37.930  1.00  0.00    -0.360 N 
ATOM      4  H2  UNL     1      35.113  19.635  38.387  1.00  0.00     0.162 HD
ENDROOT
BRANCH   1   5
HETATM    5  C8  UNL     1      36.620  18.242  40.179  1.00  0.00     0.107 C 
BRANCH   5   6
HETATM    6  C7  UNL     1      35.280  18.544  40.702  1.00  0.00     0.053 C 
BRANCH   6   7
HETATM    7  C6  UNL     1      34.396  17.486  41.133  1.00  0.00     0.015 A 
HETATM    8  C1  UNL     1      33.128  17.351  40.375  1.00  0.00     0.089 A 
HETATM    9  N1  UNL     1      32.858  18.185  39.421  1.00  0.00    -0.395 N 
HETATM   10  C2  UNL     1      32.160  16.305  40.662  1.00  0.00     0.240 A 
ATOM     11  H12 UNL     1      31.986  18.091  38.900  1.00  0.00     0.156 HD
ATOM     12  H11 UNL     1      33.537  18.918  39.219  1.00  0.00     0.156 HD
HETATM   13  O1  UNL     1      31.081  16.177  40.029  1.00  0.00    -0.282 OA
HETATM   14  C3  UNL     1      32.501  15.388  41.741  1.00  0.00     0.210 A 
HETATM   15  F1  UNL     1      31.626  14.381  42.055  1.00  0.00    -0.198 F 
HETATM   16  C4  UNL     1      33.631  15.565  42.366  1.00  0.00     0.198 A 
HETATM   17  F2  UNL     1      33.937  14.699  43.374  1.00  0.00    -0.199 F 
HETATM   18  C5  UNL     1      34.614  16.619  42.085  1.00  0.00     0.166 A 
HETATM   19  F3  UNL     1      35.742  16.681  42.883  1.00  0.00    -0.202 F 
ENDBRANCH   6   7
ENDBRANCH   5   6
ENDBRANCH   1   5
BRANCH   3  20
HETATM   20  C10 UNL     1      36.085  19.430  36.523  1.00  0.00     0.142 C 
BRANCH  20  21
HETATM   21  C11 UNL     1      36.393  20.846  36.163  1.00  0.00     0.142 C 
BRANCH  21  22
HETATM   22  N3  UNL     1      37.808  20.971  35.726  1.00  0.00    -0.355 N 
HETATM   23  C12 UNL     1      38.812  21.249  36.666  1.00  0.00     0.255 C 
HETATM   24  O3  UNL     1      38.412  21.367  37.890  1.00  0.00    -0.268 OA
ATOM     25  H3  UNL     1      38.049  20.856  34.742  1.00  0.00     0.162 HD
BRANCH  23  26
HETATM   26  C13 UNL     1      40.215  21.409  36.429  1.00  0.00     0.075 A 
HETATM   27  C14 UNL     1      40.935  22.574  36.487  1.00  0.00     0.053 A 
HETATM   28 CL1  UNL     1      40.164  24.058  37.010  1.00  0.00    -0.083 Cl
HETATM   29  C15 UNL     1      42.302  22.619  36.179  1.00  0.00     0.048 A 
HETATM   30  C16 UNL     1      42.986  21.510  35.810  1.00  0.00     0.037 A 
HETATM   31 CL2  UNL     1      44.684  21.557  35.425  1.00  0.00    -0.084 Cl
HETATM   32  C17 UNL     1      42.290  20.329  35.745  1.00  0.00     0.048 A 
HETATM   33  C18 UNL     1      40.951  20.279  36.045  1.00  0.00     0.053 A 
HETATM   34 CL3  UNL     1      40.088  18.752  35.949  1.00  0.00    -0.083 Cl
ENDBRANCH  23  26
ENDBRANCH  21  22
ENDBRANCH  20  21
ENDBRANCH   3  20
TORSDOF 7
ENDMDL
MODEL 2
REMARK VINA RESULT: -7.192539151      4.734      9.185
REMARK  7 active torsions:
REMARK  status: ('A' for Active; 'I' for Inactive)
REMARK    1  A    between atoms: C6_13  and  C7_14 
REMARK    2  A    between atoms: C7_14  and  C8_15 
REMARK    3  A    between atoms: C8_15  and  C9_16 
REMARK       I    between atoms: C9_16  and  N2_18 
REMARK    4  A    between atoms: N2_18  and  C10_20 
REMARK    5  A    between atoms: C10_20  and  C11_21 
REMARK    6  A    between atoms: C11_21  and  N3_22 
REMARK       I    between atoms: N3_22  and  C12_24 
REMARK    7  A    between atoms: C12_24  and  C13_26 
ROOT
HETATM    1  C9  UNL     1      38.218  15.489  38.782  1.00  0.00     0.217 C 
HETATM    2  O2  UNL     1      37.090  15.492  38.232  1.00  0.00    -0.274 OA
HETATM    3  N2  UNL     1      38.492  14.496  39.749  1.00  0.00    -0.360 N 
ATOM      4  H2  UNL     1      39.412  14.502  40.189  1.00  0.00     0.162 HD
ENDROOT
BRANCH   1   5
HETATM    5  C8  UNL     1      39.191  16.528  38.382  1.00  0.00     0.107 C 
BRANCH   5   6
HETATM    6  C7  UNL     1      39.148  17.777  39.154  1.00  0.00     0.053 C 
BRANCH   6   7
HETATM    7  C6  UNL     1      39.222  19.061  38.495  1.00  0.00     0.015 A 
HETATM    8  C1  UNL     1      40.528  19.761  38.582  1.00  0.00     0.089 A 
HETATM    9  N1  UNL     1      41.497  19.230  39.258  1.00  0.00    -0.395 N 
HETATM   10  C2  UNL     1      40.767  21.037  37.931  1.00  0.00     0.240 A 
ATOM     11  H12 UNL     1      42.393  19.712  39.317  1.00  0.00     0.156 HD
ATOM     12  H11 UNL     1      41.329  18.334  39.715  1.00  0.00     0.156 HD
HETATM   13  O1  UNL     1      41.867  21.644  37.995  1.00  0.00    -0.282 OA
HETATM   14  C3  UNL     1      39.653  21.601  37.181  1.00  0.00     0.210 A 
HETATM   15  F1  UNL     1      39.823  22.802  36.545  1.00  0.00    -0.198 F 
HETATM   16  C4  UNL     1      38.535  20.933  37.147  1.00  0.00     0.198 A 
HETATM   17  F2  UNL     1      37.499  21.471  36.441  1.00  0.00    -0.199 F 
HETATM   18  C5  UNL     1      38.281  19.644  37.802  1.00  0.00     0.166 A 
HETATM   19  F3  UNL     1      37.013  19.101  37.695  1.00  0.00    -0.202 F 
ENDBRANCH   6   7
ENDBRANCH   5   6
ENDBRANCH   1   5
BRANCH   3  20
HETATM   20  C10 UNL     1      37.563  13.482  40.154  1.00  0.00     0.142 C 
BRANCH  20  21
HETATM   21  C11 UNL     1      36.621  13.919  41.226  1.00  0.00     0.142 C 
BRANCH  21  22
HETATM   22  N3  UNL     1      35.489  14.681  40.639  1.00  0.00    -0.355 N 
HETATM   23  C12 UNL     1      34.861  15.692  41.383  1.00  0.00     0.255 C 
HETATM   24  O3  UNL     1      35.345  15.897  42.565  1.00  0.00    -0.268 OA
ATOM     25  H3  UNL     1      35.167  14.469  39.696  1.00  0.00     0.162 HD
BRANCH  23  26
HETATM   26  C13 UNL     1      33.761  16.519  40.986  1.00  0.00     0.075 A 
HETATM   27  C14 UNL     1      32.429  16.203  41.041  1.00  0.00     0.053 A 
HETATM   28 CL1  UNL     1      31.913  14.693  41.766  1.00  0.00    -0.083 Cl
HETATM   29  C15 UNL     1      31.438  17.076  40.570  1.00  0.00     0.048 A 
HETATM   30  C16 UNL     1      31.746  18.282  40.036  1.00  0.00     0.037 A 
HETATM   31 CL2  UNL     1      30.522  19.372  39.447  1.00  0.00    -0.084 Cl
HETATM   32  C17 UNL     1      33.073  18.625  39.970  1.00  0.00     0.048 A 
HETATM   33  C18 UNL     1      34.048  17.774  40.430  1.00  0.00     0.053 A 
HETATM   34 CL3  UNL     1      35.739  18.241  40.328  1.00  0.00    -0.083 Cl
ENDBRANCH  23  26
ENDBRANCH  21  22
ENDBRANCH  20  21
ENDBRANCH   3  20
TORSDOF 7
ENDMDL
MODEL 3
REMARK VINA RESULT: -7.127130052      4.728      9.073
REMARK  7 active torsions:
REMARK  status: ('A' for Active; 'I' for Inactive)
REMARK    1  A    between atoms: C6_13  and  C7_14 
REMARK    2  A    between atoms: C7_14  and  C8_15 
REMARK    3  A    between atoms: C8_15  and  C9_16 
REMARK       I    between atoms: C9_16  and  N2_18 
REMARK    4  A    between atoms: N2_18  and  C10_20 
REMARK    5  A    between atoms: C10_20  and  C11_21 
REMARK    6  A    between atoms: C11_21  and  N3_22 
REMARK       I    between atoms: N3_22  and  C12_24 
REMARK    7  A    between atoms: C12_24  and  C13_26 
ROOT
HETATM    1  C9  UNL     1      39.183  15.302  38.992  1.00  0.00     0.217 C 
HETATM    2  O2  UNL     1      40.182  14.561  39.150  1.00  0.00    -0.274 OA
HETATM    3  N2  UNL     1      37.938  14.870  39.499  1.00  0.00    -0.360 N 
ATOM      4  H2  UNL     1      37.131  15.482  39.367  1.00  0.00     0.162 HD
ENDROOT
BRANCH   1   5
HETATM    5  C8  UNL     1      39.374  16.586  38.283  1.00  0.00     0.107 C 
BRANCH   5   6
HETATM    6  C7  UNL     1      39.111  17.798  39.071  1.00  0.00     0.053 C 
BRANCH   6   7
HETATM    7  C6  UNL     1      39.187  19.108  38.466  1.00  0.00     0.015 A 
HETATM    8  C1  UNL     1      40.504  19.786  38.547  1.00  0.00     0.089 A 
HETATM    9  N1  UNL     1      41.483  19.214  39.173  1.00  0.00    -0.395 N 
HETATM   10  C2  UNL     1      40.745  21.087  37.946  1.00  0.00     0.240 A 
ATOM     11  H12 UNL     1      42.388  19.680  39.229  1.00  0.00     0.156 HD
ATOM     12  H11 UNL     1      41.314  18.301  39.595  1.00  0.00     0.156 HD
HETATM   13  O1  UNL     1      41.855  21.675  38.005  1.00  0.00    -0.282 OA
HETATM   14  C3  UNL     1      39.619  21.697  37.251  1.00  0.00     0.210 A 
HETATM   15  F1  UNL     1      39.790  22.922  36.663  1.00  0.00    -0.198 F 
HETATM   16  C4  UNL     1      38.491  21.046  37.219  1.00  0.00     0.198 A 
HETATM   17  F2  UNL     1      37.445  21.628  36.565  1.00  0.00    -0.199 F 
HETATM   18  C5  UNL     1      38.236  19.733  37.825  1.00  0.00     0.166 A 
HETATM   19  F3  UNL     1      36.958  19.212  37.728  1.00  0.00    -0.202 F 
ENDBRANCH   6   7
ENDBRANCH   5   6
ENDBRANCH   1   5
BRANCH   3  20
HETATM   20  C10 UNL     1      37.730  13.631  40.188  1.00  0.00     0.142 C 
BRANCH  20  21
HETATM   21  C11 UNL     1      36.345  13.460  40.720  1.00  0.00     0.142 C 
BRANCH  21  22
HETATM   22  N3  UNL     1      35.432  14.463  40.112  1.00  0.00    -0.355 N 
HETATM   23  C12 UNL     1      34.730  15.361  40.930  1.00  0.00     0.255 C 
HETATM   24  O3  UNL     1      34.950  15.249  42.200  1.00  0.00    -0.268 OA
ATOM     25  H3  UNL     1      35.315  14.497  39.100  1.00  0.00     0.162 HD
BRANCH  23  26
HETATM   26  C13 UNL     1      33.810  16.381  40.525  1.00  0.00     0.075 A 
HETATM   27  C14 UNL     1      34.078  17.714  40.350  1.00  0.00     0.053 A 
HETATM   28 CL1  UNL     1      35.720  18.307  40.504  1.00  0.00    -0.083 Cl
HETATM   29  C15 UNL     1      33.079  18.634  40.003  1.00  0.00     0.048 A 
HETATM   30  C16 UNL     1      31.792  18.253  39.820  1.00  0.00     0.037 A 
HETATM   31 CL2  UNL     1      30.544  19.389  39.390  1.00  0.00    -0.084 Cl
HETATM   32  C17 UNL     1      31.495  16.923  39.987  1.00  0.00     0.048 A 
HETATM   33  C18 UNL     1      32.470  16.018  40.327  1.00  0.00     0.053 A 
HETATM   34 CL3  UNL     1      32.057  14.323  40.538  1.00  0.00    -0.083 Cl
ENDBRANCH  23  26
ENDBRANCH  21  22
ENDBRANCH  20  21
ENDBRANCH   3  20
TORSDOF 7
ENDMDL
MODEL 4
REMARK VINA RESULT: -7.097278713      5.898     10.756
REMARK  7 active torsions:
REMARK  status: ('A' for Active; 'I' for Inactive)
REMARK    1  A    between atoms: C6_13  and  C7_14 
REMARK    2  A    between atoms: C7_14  and  C8_15 
REMARK    3  A    between atoms: C8_15  and  C9_16 
REMARK       I    between atoms: C9_16  and  N2_18 
REMARK    4  A    between atoms: N2_18  and  C10_20 
REMARK    5  A    between atoms: C10_20  and  C11_21 
REMARK    6  A    between atoms: C11_21  and  N3_22 
REMARK       I    between atoms: N3_22  and  C12_24 
REMARK    7  A    between atoms: C12_24  and  C13_26 
ROOT
HETATM    1  C9  UNL     1      42.440  22.194  36.390  1.00  0.00     0.217 C 
HETATM    2  O2  UNL     1      42.563  21.135  37.052  1.00  0.00    -0.274 OA
HETATM    3  N2  UNL     1      41.428  23.106  36.762  1.00  0.00    -0.360 N 
ATOM      4  H2  UNL     1      41.337  23.965  36.219  1.00  0.00     0.162 HD
ENDROOT
BRANCH   1   5
HETATM    5  C8  UNL     1      43.366  22.420  35.259  1.00  0.00     0.107 C 
BRANCH   5   6
HETATM    6  C7  UNL     1      44.690  21.795  35.381  1.00  0.00     0.053 C 
BRANCH   6   7
HETATM    7  C6  UNL     1      45.117  20.772  34.454  1.00  0.00     0.015 A 
HETATM    8  C1  UNL     1      46.118  21.190  33.441  1.00  0.00     0.089 A 
HETATM    9  N1  UNL     1      46.519  22.421  33.405  1.00  0.00    -0.395 N 
HETATM   10  C2  UNL     1      46.674  20.261  32.472  1.00  0.00     0.240 A 
ATOM     11  H12 UNL     1      47.207  22.707  32.709  1.00  0.00     0.156 HD
ATOM     12  H11 UNL     1      46.129  23.073  34.086  1.00  0.00     0.156 HD
HETATM   13  O1  UNL     1      47.523  20.599  31.608  1.00  0.00    -0.282 OA
HETATM   14  C3  UNL     1      46.197  18.887  32.545  1.00  0.00     0.210 A 
HETATM   15  F1  UNL     1      46.688  17.967  31.657  1.00  0.00    -0.198 F 
HETATM   16  C4  UNL     1      45.317  18.590  33.459  1.00  0.00     0.198 A 
HETATM   17  F2  UNL     1      44.878  17.299  33.516  1.00  0.00    -0.199 F 
HETATM   18  C5  UNL     1      44.747  19.520  34.441  1.00  0.00     0.166 A 
HETATM   19  F3  UNL     1      43.786  19.035  35.311  1.00  0.00    -0.202 F 
ENDBRANCH   6   7
ENDBRANCH   5   6
ENDBRANCH   1   5
BRANCH   3  20
HETATM   20  C10 UNL     1      40.519  22.906  37.853  1.00  0.00     0.142 C 
BRANCH  20  21
HETATM   21  C11 UNL     1      39.348  22.046  37.512  1.00  0.00     0.142 C 
BRANCH  21  22
HETATM   22  N3  UNL     1      39.434  20.748  38.231  1.00  0.00    -0.355 N 
HETATM   23  C12 UNL     1      39.317  19.543  37.523  1.00  0.00     0.255 C 
HETATM   24  O3  UNL     1      39.147  19.660  36.246  1.00  0.00    -0.268 OA
ATOM     25  H3  UNL     1      39.577  20.734  39.240  1.00  0.00     0.162 HD
BRANCH  23  26
HETATM   26  C13 UNL     1      39.368  18.210  38.045  1.00  0.00     0.075 A 
HETATM   27  C14 UNL     1      40.474  17.409  38.160  1.00  0.00     0.053 A 
HETATM   28 CL1  UNL     1      42.059  18.039  37.759  1.00  0.00    -0.083 Cl
HETATM   29  C15 UNL     1      40.393  16.093  38.638  1.00  0.00     0.048 A 
HETATM   30  C16 UNL     1      39.214  15.543  39.012  1.00  0.00     0.037 A 
HETATM   31 CL2  UNL     1      39.104  13.909  39.605  1.00  0.00    -0.084 Cl
HETATM   32  C17 UNL     1      38.089  16.323  38.909  1.00  0.00     0.048 A 
HETATM   33  C18 UNL     1      38.162  17.612  38.442  1.00  0.00     0.053 A 
HETATM   34 CL3  UNL     1      36.704  18.584  38.317  1.00  0.00    -0.083 Cl
ENDBRANCH  23  26
ENDBRANCH  21  22
ENDBRANCH  20  21
ENDBRANCH   3  20
TORSDOF 7
ENDMDL
MODEL 5
REMARK VINA RESULT: -7.081600851      5.004      9.447
REMARK  7 active torsions:
REMARK  status: ('A' for Active; 'I' for Inactive)
REMARK    1  A    between atoms: C6_13  and  C7_14 
REMARK    2  A    between atoms: C7_14  and  C8_15 
REMARK    3  A    between atoms: C8_15  and  C9_16 
REMARK       I    between atoms: C9_16  and  N2_18 
REMARK    4  A    between atoms: N2_18  and  C10_20 
REMARK    5  A    between atoms: C10_20  and  C11_21 
REMARK    6  A    between atoms: C11_21  and  N3_22 
REMARK       I    between atoms: N3_22  and  C12_24 
REMARK    7  A    between atoms: C12_24  and  C13_26 
ROOT
HETATM    1  C9  UNL     1      38.691  15.419  38.753  1.00  0.00     0.217 C 
HETATM    2  O2  UNL     1      37.487  15.504  38.411  1.00  0.00    -0.274 OA
HETATM    3  N2  UNL     1      39.151  14.199  39.296  1.00  0.00    -0.360 N 
ATOM      4  H2  UNL     1      40.133  14.139  39.570  1.00  0.00     0.162 HD
ENDROOT
BRANCH   1   5
HETATM    5  C8  UNL     1      39.554  16.605  38.566  1.00  0.00     0.107 C 
BRANCH   5   6
HETATM    6  C7  UNL     1      39.137  17.819  39.282  1.00  0.00     0.053 C 
BRANCH   6   7
HETATM    7  C6  UNL     1      39.180  19.112  38.639  1.00  0.00     0.015 A 
HETATM    8  C1  UNL     1      40.497  19.794  38.636  1.00  0.00     0.089 A 
HETATM    9  N1  UNL     1      41.508  19.240  39.228  1.00  0.00    -0.395 N 
HETATM   10  C2  UNL     1      40.705  21.077  37.988  1.00  0.00     0.240 A 
ATOM     11  H12 UNL     1      42.413  19.708  39.225  1.00  0.00     0.156 HD
ATOM     12  H11 UNL     1      41.362  18.338  39.682  1.00  0.00     0.156 HD
HETATM   13  O1  UNL     1      41.815  21.668  37.976  1.00  0.00    -0.282 OA
HETATM   14  C3  UNL     1      39.545  21.667  37.335  1.00  0.00     0.210 A 
HETATM   15  F1  UNL     1      39.682  22.877  36.706  1.00  0.00    -0.198 F 
HETATM   16  C4  UNL     1      38.417  21.014  37.376  1.00  0.00     0.198 A 
HETATM   17  F2  UNL     1      37.339  21.578  36.760  1.00  0.00    -0.199 F 
HETATM   18  C5  UNL     1      38.196  19.718  38.029  1.00  0.00     0.166 A 
HETATM   19  F3  UNL     1      36.916  19.194  38.011  1.00  0.00    -0.202 F 
ENDBRANCH   6   7
ENDBRANCH   5   6
ENDBRANCH   1   5
BRANCH   3  20
HETATM   20  C10 UNL     1      38.333  13.038  39.488  1.00  0.00     0.142 C 
BRANCH  20  21
HETATM   21  C11 UNL     1      37.586  13.033  40.780  1.00  0.00     0.142 C 
BRANCH  21  22
HETATM   22  N3  UNL     1      36.304  13.770  40.639  1.00  0.00    -0.355 N 
HETATM   23  C12 UNL     1      35.815  14.541  41.705  1.00  0.00     0.255 C 
HETATM   24  O3  UNL     1      36.554  14.558  42.766  1.00  0.00    -0.268 OA
ATOM     25  H3  UNL     1      35.778  13.716  39.767  1.00  0.00     0.162 HD
BRANCH  23  26
HETATM   26  C13 UNL     1      34.605  15.307  41.751  1.00  0.00     0.075 A 
HETATM   27  C14 UNL     1      34.459  16.638  41.461  1.00  0.00     0.053 A 
HETATM   28 CL1  UNL     1      35.818  17.558  40.848  1.00  0.00    -0.083 Cl
HETATM   29  C15 UNL     1      33.229  17.297  41.596  1.00  0.00     0.048 A 
HETATM   30  C16 UNL     1      32.117  16.651  42.020  1.00  0.00     0.037 A 
HETATM   31 CL2  UNL     1      30.585  17.462  42.192  1.00  0.00    -0.084 Cl
HETATM   32  C17 UNL     1      32.234  15.316  42.316  1.00  0.00     0.048 A 
HETATM   33  C18 UNL     1      33.436  14.665  42.186  1.00  0.00     0.053 A 
HETATM   34 CL3  UNL     1      33.555  12.956  42.577  1.00  0.00    -0.083 Cl
ENDBRANCH  23  26
ENDBRANCH  21  22
ENDBRANCH  20  21
ENDBRANCH   3  20
TORSDOF 7
ENDMDL
