MODEL 1
REMARK VINA RESULT: -7.412910464      0.000      0.000
REMARK  9 active torsions:
REMARK  status: ('A' for Active; 'I' for Inactive)
REMARK    1  A    between atoms: C2_2  and  C3_3 
REMARK    2  A    between atoms: C3_3  and  C4_4 
REMARK    3  A    between atoms: C3_3  and  N1_6 
REMARK    4  A    between atoms: C7_11  and  N3_12 
REMARK    5  A    between atoms: N3_12  and  C8_14 
REMARK    6  A    between atoms: C8_14  and  C9_15 
REMARK    7  A    between atoms: C9_15  and  C10_16 
REMARK    8  A    between atoms: C13_21  and  N5_22 
REMARK       I    between atoms: N5_22  and  C14_24 
REMARK    9  A    between atoms: C14_24  and  C15_26 
ROOT
HETATM    1  N1  UNL     1      39.698  21.447  37.856  1.00  0.00    -0.221 N 
ATOM      2  H1  UNL     1      40.112  20.927  38.629  1.00  0.00     0.178 HD
HETATM    3  C6  UNL     1      38.622  20.904  37.562  1.00  0.00     0.707 A 
HETATM    4  N2  UNL     1      38.274  19.797  38.309  1.00  0.00    -0.022 N 
ATOM      5  H2  UNL     1      38.905  19.488  39.049  1.00  0.00     0.203 HD
HETATM    6  C7  UNL     1      37.146  19.113  38.105  1.00  0.00     0.707 A 
HETATM    7  N4  UNL     1      36.325  19.533  37.127  1.00  0.00    -0.021 N 
ATOM      8  H4  UNL     1      35.457  19.026  36.952  1.00  0.00     0.203 HD
HETATM    9  C13 UNL     1      36.623  20.604  36.376  1.00  0.00     0.714 A 
HETATM   10  N6  UNL     1      37.779  21.292  36.597  1.00  0.00    -0.021 N 
ATOM     11  H6  UNL     1      38.001  22.107  36.025  1.00  0.00     0.203 HD
ENDROOT
BRANCH   9  12
HETATM   12  N5  UNL     1      35.814  21.003  35.427  1.00  0.00    -0.154 N 
HETATM   13  C14 UNL     1      35.766  20.406  34.164  1.00  0.00     0.276 C 
HETATM   14  O1  UNL     1      35.234  19.281  34.025  1.00  0.00    -0.267 OA
ATOM     15  H5  UNL     1      35.188  21.786  35.618  1.00  0.00     0.187 HD
BRANCH  13  16
HETATM   16  C15 UNL     1      36.320  21.053  32.985  1.00  0.00     0.116 A 
HETATM   17  C16 UNL     1      35.712  22.133  32.389  1.00  0.00     0.176 A 
HETATM   18  F1  UNL     1      34.543  22.596  32.945  1.00  0.00    -0.202 F 
HETATM   19  C17 UNL     1      36.188  22.787  31.273  1.00  0.00     0.197 A 
HETATM   20  F2  UNL     1      35.510  23.845  30.762  1.00  0.00    -0.199 F 
HETATM   21  C18 UNL     1      37.361  22.319  30.717  1.00  0.00     0.199 A 
HETATM   22  F3  UNL     1      37.824  22.966  29.621  1.00  0.00    -0.199 F 
HETATM   23  C19 UNL     1      38.008  21.236  31.283  1.00  0.00     0.197 A 
HETATM   24  F4  UNL     1      39.171  20.810  30.692  1.00  0.00    -0.199 F 
HETATM   25  C20 UNL     1      37.506  20.604  32.398  1.00  0.00     0.176 A 
HETATM   26  F5  UNL     1      38.165  19.565  32.907  1.00  0.00    -0.202 F 
ENDBRANCH  13  16
ENDBRANCH   9  12
BRANCH   6  27
HETATM   27  N3  UNL     1      36.851  18.067  38.835  1.00  0.00    -0.225 N 
ATOM     28  H3  UNL     1      37.002  17.120  38.485  1.00  0.00     0.177 HD
BRANCH  27  29
HETATM   29  C8  UNL     1      36.309  18.296  40.137  1.00  0.00     0.138 C 
BRANCH  29  30
HETATM   30  C9  UNL     1      34.803  18.095  40.099  1.00  0.00     0.024 C 
BRANCH  30  31
HETATM   31  C10 UNL     1      34.363  17.940  41.557  1.00  0.00    -0.021 C 
HETATM   32  C11 UNL     1      35.439  17.170  42.281  1.00  0.00     0.009 C 
HETATM   33  C12 UNL     1      33.062  17.170  41.553  1.00  0.00     0.009 C 
ENDBRANCH  30  31
ENDBRANCH  29  30
ENDBRANCH  27  29
ENDBRANCH   6  27
BRANCH   1  34
HETATM   34  C3  UNL     1      40.547  22.483  37.539  1.00  0.00     0.098 C 
BRANCH  34  35
HETATM   35  C2  UNL     1      39.939  23.842  37.442  1.00  0.00     0.021 C 
HETATM   36  C1  UNL     1      40.314  24.717  38.638  1.00  0.00     0.007 C 
ENDBRANCH  34  35
BRANCH  34  37
HETATM   37  C4  UNL     1      41.457  22.196  36.338  1.00  0.00     0.021 C 
HETATM   38  C5  UNL     1      42.180  20.891  36.510  1.00  0.00     0.007 C 
ENDBRANCH  34  37
ENDBRANCH   1  34
TORSDOF 9
ENDMDL
MODEL 2
REMARK VINA RESULT: -7.408408687      0.104      1.877
REMARK  9 active torsions:
REMARK  status: ('A' for Active; 'I' for Inactive)
REMARK    1  A    between atoms: C2_2  and  C3_3 
REMARK    2  A    between atoms: C3_3  and  C4_4 
REMARK    3  A    between atoms: C3_3  and  N1_6 
REMARK    4  A    between atoms: C7_11  and  N3_12 
REMARK    5  A    between atoms: N3_12  and  C8_14 
REMARK    6  A    between atoms: C8_14  and  C9_15 
REMARK    7  A    between atoms: C9_15  and  C10_16 
REMARK    8  A    between atoms: C13_21  and  N5_22 
REMARK       I    between atoms: N5_22  and  C14_24 
REMARK    9  A    between atoms: C14_24  and  C15_26 
ROOT
HETATM    1  N1  UNL     1      39.759  21.464  37.783  1.00  0.00    -0.221 N 
ATOM      2  H1  UNL     1      40.176  20.947  38.557  1.00  0.00     0.178 HD
HETATM    3  C6  UNL     1      38.680  20.923  37.500  1.00  0.00     0.707 A 
HETATM    4  N2  UNL     1      38.331  19.822  38.256  1.00  0.00    -0.022 N 
ATOM      5  H2  UNL     1      38.966  19.516  38.993  1.00  0.00     0.203 HD
HETATM    6  C7  UNL     1      37.199  19.142  38.064  1.00  0.00     0.707 A 
HETATM    7  N4  UNL     1      36.373  19.560  37.088  1.00  0.00    -0.021 N 
ATOM      8  H4  UNL     1      35.502  19.056  36.922  1.00  0.00     0.203 HD
HETATM    9  C13 UNL     1      36.671  20.624  36.329  1.00  0.00     0.714 A 
HETATM   10  N6  UNL     1      37.831  21.309  36.538  1.00  0.00    -0.021 N 
ATOM     11  H6  UNL     1      38.054  22.119  35.958  1.00  0.00     0.203 HD
ENDROOT
BRANCH   9  12
HETATM   12  N5  UNL     1      35.857  21.020  35.382  1.00  0.00    -0.154 N 
HETATM   13  C14 UNL     1      35.798  20.416  34.123  1.00  0.00     0.276 C 
HETATM   14  O1  UNL     1      35.260  19.293  33.995  1.00  0.00    -0.267 OA
ATOM     15  H5  UNL     1      35.237  21.808  35.572  1.00  0.00     0.187 HD
BRANCH  13  16
HETATM   16  C15 UNL     1      36.348  21.053  32.936  1.00  0.00     0.116 A 
HETATM   17  C16 UNL     1      37.510  20.618  32.345  1.00  0.00     0.176 A 
HETATM   18  F1  UNL     1      38.154  19.544  32.912  1.00  0.00    -0.202 F 
HETATM   19  C17 UNL     1      38.078  21.178  31.221  1.00  0.00     0.197 A 
HETATM   20  F2  UNL     1      39.231  20.671  30.716  1.00  0.00    -0.199 F 
HETATM   21  C18 UNL     1      37.430  22.255  30.654  1.00  0.00     0.199 A 
HETATM   22  F3  UNL     1      37.994  22.802  29.550  1.00  0.00    -0.199 F 
HETATM   23  C19 UNL     1      36.258  22.728  31.214  1.00  0.00     0.197 A 
HETATM   24  F4  UNL     1      35.651  23.801  30.611  1.00  0.00    -0.199 F 
HETATM   25  C20 UNL     1      35.715  22.146  32.338  1.00  0.00     0.176 A 
HETATM   26  F5  UNL     1      34.584  22.636  32.841  1.00  0.00    -0.202 F 
ENDBRANCH  13  16
ENDBRANCH   9  12
BRANCH   6  27
HETATM   27  N3  UNL     1      36.904  18.102  38.802  1.00  0.00    -0.225 N 
ATOM     28  H3  UNL     1      37.061  17.152  38.462  1.00  0.00     0.177 HD
BRANCH  27  29
HETATM   29  C8  UNL     1      36.354  18.341  40.099  1.00  0.00     0.138 C 
BRANCH  29  30
HETATM   30  C9  UNL     1      34.855  18.091  40.066  1.00  0.00     0.024 C 
BRANCH  30  31
HETATM   31  C10 UNL     1      34.414  17.989  41.529  1.00  0.00    -0.021 C 
HETATM   32  C11 UNL     1      35.464  17.199  42.269  1.00  0.00     0.009 C 
HETATM   33  C12 UNL     1      33.087  17.267  41.546  1.00  0.00     0.009 C 
ENDBRANCH  30  31
ENDBRANCH  29  30
ENDBRANCH  27  29
ENDBRANCH   6  27
BRANCH   1  34
HETATM   34  C3  UNL     1      40.611  22.493  37.454  1.00  0.00     0.098 C 
BRANCH  34  35
HETATM   35  C2  UNL     1      40.019  23.862  37.406  1.00  0.00     0.021 C 
HETATM   36  C1  UNL     1      40.404  24.688  38.632  1.00  0.00     0.007 C 
ENDBRANCH  34  35
BRANCH  34  37
HETATM   37  C4  UNL     1      41.471  22.217  36.214  1.00  0.00     0.021 C 
HETATM   38  C5  UNL     1      42.195  20.908  36.342  1.00  0.00     0.007 C 
ENDBRANCH  34  37
ENDBRANCH   1  34
TORSDOF 9
ENDMDL
MODEL 3
REMARK VINA RESULT: -7.371084092      4.535      6.474
REMARK  9 active torsions:
REMARK  status: ('A' for Active; 'I' for Inactive)
REMARK    1  A    between atoms: C2_2  and  C3_3 
REMARK    2  A    between atoms: C3_3  and  C4_4 
REMARK    3  A    between atoms: C3_3  and  N1_6 
REMARK    4  A    between atoms: C7_11  and  N3_12 
REMARK    5  A    between atoms: N3_12  and  C8_14 
REMARK    6  A    between atoms: C8_14  and  C9_15 
REMARK    7  A    between atoms: C9_15  and  C10_16 
REMARK    8  A    between atoms: C13_21  and  N5_22 
REMARK       I    between atoms: N5_22  and  C14_24 
REMARK    9  A    between atoms: C14_24  and  C15_26 
ROOT
HETATM    1  N1  UNL     1      39.198  21.974  37.724  1.00  0.00    -0.221 N 
ATOM      2  H1  UNL     1      38.339  22.484  37.515  1.00  0.00     0.178 HD
HETATM    3  C6  UNL     1      38.896  20.793  37.952  1.00  0.00     0.707 A 
HETATM    4  N2  UNL     1      37.555  20.479  37.872  1.00  0.00    -0.022 N 
ATOM      5  H2  UNL     1      36.893  21.219  37.635  1.00  0.00     0.203 HD
HETATM    6  C7  UNL     1      37.086  19.250  38.091  1.00  0.00     0.707 A 
HETATM    7  N4  UNL     1      37.970  18.286  38.402  1.00  0.00    -0.021 N 
ATOM      8  H4  UNL     1      37.636  17.337  38.574  1.00  0.00     0.203 HD
HETATM    9  C13 UNL     1      39.283  18.545  38.491  1.00  0.00     0.714 A 
HETATM   10  N6  UNL     1      39.747  19.807  38.264  1.00  0.00    -0.021 N 
ATOM     11  H6  UNL     1      40.746  20.000  38.331  1.00  0.00     0.203 HD
ENDROOT
BRANCH   9  12
HETATM   12  N5  UNL     1      40.134  17.597  38.794  1.00  0.00    -0.154 N 
HETATM   13  C14 UNL     1      41.519  17.754  38.695  1.00  0.00     0.276 C 
HETATM   14  O1  UNL     1      42.130  18.451  39.537  1.00  0.00    -0.267 OA
ATOM     15  H5  UNL     1      39.769  16.701  39.118  1.00  0.00     0.187 HD
BRANCH  13  16
HETATM   16  C15 UNL     1      42.292  17.128  37.634  1.00  0.00     0.116 A 
HETATM   17  C16 UNL     1      43.124  16.059  37.867  1.00  0.00     0.176 A 
HETATM   18  F1  UNL     1      43.210  15.584  39.155  1.00  0.00    -0.202 F 
HETATM   19  C17 UNL     1      43.879  15.424  36.905  1.00  0.00     0.197 A 
HETATM   20  F2  UNL     1      44.670  14.375  37.242  1.00  0.00    -0.199 F 
HETATM   21  C18 UNL     1      43.791  15.903  35.614  1.00  0.00     0.199 A 
HETATM   22  F3  UNL     1      44.536  15.275  34.672  1.00  0.00    -0.199 F 
HETATM   23  C19 UNL     1      42.967  16.976  35.331  1.00  0.00     0.197 A 
HETATM   24  F4  UNL     1      42.914  17.413  34.031  1.00  0.00    -0.199 F 
HETATM   25  C20 UNL     1      42.224  17.589  36.316  1.00  0.00     0.176 A 
HETATM   26  F5  UNL     1      41.445  18.619  35.995  1.00  0.00    -0.202 F 
ENDBRANCH  13  16
ENDBRANCH   9  12
BRANCH   6  27
HETATM   27  N3  UNL     1      35.805  18.991  38.006  1.00  0.00    -0.225 N 
ATOM     28  H3  UNL     1      35.216  19.465  37.321  1.00  0.00     0.177 HD
BRANCH  27  29
HETATM   29  C8  UNL     1      35.261  18.023  38.905  1.00  0.00     0.138 C 
BRANCH  29  30
HETATM   30  C9  UNL     1      34.130  18.654  39.701  1.00  0.00     0.024 C 
BRANCH  30  31
HETATM   31  C10 UNL     1      34.354  18.232  41.156  1.00  0.00    -0.021 C 
HETATM   32  C11 UNL     1      35.718  17.595  41.242  1.00  0.00     0.009 C 
HETATM   33  C12 UNL     1      33.273  17.236  41.504  1.00  0.00     0.009 C 
ENDBRANCH  30  31
ENDBRANCH  29  30
ENDBRANCH  27  29
ENDBRANCH   6  27
BRANCH   1  34
HETATM   34  C3  UNL     1      40.247  22.862  37.645  1.00  0.00     0.098 C 
BRANCH  34  35
HETATM   35  C2  UNL     1      39.928  24.298  37.898  1.00  0.00     0.021 C 
HETATM   36  C1  UNL     1      40.661  24.832  39.129  1.00  0.00     0.007 C 
ENDBRANCH  34  35
BRANCH  34  37
HETATM   37  C4  UNL     1      41.106  22.699  36.384  1.00  0.00     0.021 C 
HETATM   38  C5  UNL     1      42.195  21.690  36.603  1.00  0.00     0.007 C 
ENDBRANCH  34  37
ENDBRANCH   1  34
TORSDOF 9
ENDMDL
MODEL 4
REMARK VINA RESULT: -7.357986779      4.557      6.294
REMARK  9 active torsions:
REMARK  status: ('A' for Active; 'I' for Inactive)
REMARK    1  A    between atoms: C2_2  and  C3_3 
REMARK    2  A    between atoms: C3_3  and  C4_4 
REMARK    3  A    between atoms: C3_3  and  N1_6 
REMARK    4  A    between atoms: C7_11  and  N3_12 
REMARK    5  A    between atoms: N3_12  and  C8_14 
REMARK    6  A    between atoms: C8_14  and  C9_15 
REMARK    7  A    between atoms: C9_15  and  C10_16 
REMARK    8  A    between atoms: C13_21  and  N5_22 
REMARK       I    between atoms: N5_22  and  C14_24 
REMARK    9  A    between atoms: C14_24  and  C15_26 
ROOT
HETATM    1  N1  UNL     1      39.239  21.996  37.713  1.00  0.00    -0.221 N 
ATOM      2  H1  UNL     1      38.377  22.495  37.492  1.00  0.00     0.178 HD
HETATM    3  C6  UNL     1      38.946  20.815  37.950  1.00  0.00     0.707 A 
HETATM    4  N2  UNL     1      37.608  20.487  37.862  1.00  0.00    -0.022 N 
ATOM      5  H2  UNL     1      36.942  21.218  37.612  1.00  0.00     0.203 HD
HETATM    6  C7  UNL     1      37.149  19.255  38.090  1.00  0.00     0.707 A 
HETATM    7  N4  UNL     1      38.040  18.303  38.418  1.00  0.00    -0.021 N 
ATOM      8  H4  UNL     1      37.712  17.353  38.597  1.00  0.00     0.203 HD
HETATM    9  C13 UNL     1      39.349  18.576  38.515  1.00  0.00     0.714 A 
HETATM   10  N6  UNL     1      39.803  19.839  38.279  1.00  0.00    -0.021 N 
ATOM     11  H6  UNL     1      40.800  20.042  38.353  1.00  0.00     0.203 HD
ENDROOT
BRANCH   9  12
HETATM   12  N5  UNL     1      40.207  17.638  38.835  1.00  0.00    -0.154 N 
HETATM   13  C14 UNL     1      41.589  17.793  38.707  1.00  0.00     0.276 C 
HETATM   14  O1  UNL     1      42.214  18.518  39.514  1.00  0.00    -0.267 OA
ATOM     15  H5  UNL     1      39.848  16.754  39.195  1.00  0.00     0.187 HD
BRANCH  13  16
HETATM   16  C15 UNL     1      42.344  17.132  37.653  1.00  0.00     0.116 A 
HETATM   17  C16 UNL     1      42.312  17.565  36.349  1.00  0.00     0.176 A 
HETATM   18  F1  UNL     1      41.534  18.660  36.057  1.00  0.00    -0.202 F 
HETATM   19  C17 UNL     1      43.005  16.983  35.309  1.00  0.00     0.197 A 
HETATM   20  F2  UNL     1      42.903  17.490  34.054  1.00  0.00    -0.199 F 
HETATM   21  C18 UNL     1      43.784  15.884  35.605  1.00  0.00     0.199 A 
HETATM   22  F3  UNL     1      44.462  15.316  34.578  1.00  0.00    -0.199 F 
HETATM   23  C19 UNL     1      43.848  15.413  36.903  1.00  0.00     0.197 A 
HETATM   24  F4  UNL     1      44.639  14.318  37.144  1.00  0.00    -0.199 F 
HETATM   25  C20 UNL     1      43.144  16.018  37.920  1.00  0.00     0.176 A 
HETATM   26  F5  UNL     1      43.237  15.527  39.154  1.00  0.00    -0.202 F 
ENDBRANCH  13  16
ENDBRANCH   9  12
BRANCH   6  27
HETATM   27  N3  UNL     1      35.871  18.984  37.997  1.00  0.00    -0.225 N 
ATOM     28  H3  UNL     1      35.279  19.458  37.314  1.00  0.00     0.177 HD
BRANCH  27  29
HETATM   29  C8  UNL     1      35.334  18.002  38.884  1.00  0.00     0.138 C 
BRANCH  29  30
HETATM   30  C9  UNL     1      34.145  18.590  39.628  1.00  0.00     0.024 C 
BRANCH  30  31
HETATM   31  C10 UNL     1      34.370  18.259  41.106  1.00  0.00    -0.021 C 
HETATM   32  C11 UNL     1      35.735  17.632  41.233  1.00  0.00     0.009 C 
HETATM   33  C12 UNL     1      33.291  17.282  41.514  1.00  0.00     0.009 C 
ENDBRANCH  30  31
ENDBRANCH  29  30
ENDBRANCH  27  29
ENDBRANCH   6  27
BRANCH   1  34
HETATM   34  C3  UNL     1      40.279  22.893  37.633  1.00  0.00     0.098 C 
BRANCH  34  35
HETATM   35  C2  UNL     1      39.949  24.326  37.888  1.00  0.00     0.021 C 
HETATM   36  C1  UNL     1      40.638  24.850  39.147  1.00  0.00     0.007 C 
ENDBRANCH  34  35
BRANCH  34  37
HETATM   37  C4  UNL     1      41.139  22.738  36.372  1.00  0.00     0.021 C 
HETATM   38  C5  UNL     1      42.237  21.738  36.589  1.00  0.00     0.007 C 
ENDBRANCH  34  37
ENDBRANCH   1  34
TORSDOF 9
ENDMDL
MODEL 5
REMARK VINA RESULT: -7.268424093      5.773     10.202
REMARK  9 active torsions:
REMARK  status: ('A' for Active; 'I' for Inactive)
REMARK    1  A    between atoms: C2_2  and  C3_3 
REMARK    2  A    between atoms: C3_3  and  C4_4 
REMARK    3  A    between atoms: C3_3  and  N1_6 
REMARK    4  A    between atoms: C7_11  and  N3_12 
REMARK    5  A    between atoms: N3_12  and  C8_14 
REMARK    6  A    between atoms: C8_14  and  C9_15 
REMARK    7  A    between atoms: C9_15  and  C10_16 
REMARK    8  A    between atoms: C13_21  and  N5_22 
REMARK       I    between atoms: N5_22  and  C14_24 
REMARK    9  A    between atoms: C14_24  and  C15_26 
ROOT
HETATM    1  N1  UNL     1      42.124  22.805  36.204  1.00  0.00    -0.221 N 
ATOM      2  H1  UNL     1      42.316  23.804  36.124  1.00  0.00     0.178 HD
HETATM    3  C6  UNL     1      43.010  22.195  35.587  1.00  0.00     0.707 A 
HETATM    4  N2  UNL     1      43.979  22.971  34.983  1.00  0.00    -0.022 N 
ATOM      5  H2  UNL     1      43.917  23.986  35.071  1.00  0.00     0.203 HD
HETATM    6  C7  UNL     1      44.992  22.451  34.287  1.00  0.00     0.707 A 
HETATM    7  N4  UNL     1      45.059  21.113  34.181  1.00  0.00    -0.021 N 
ATOM      8  H4  UNL     1      45.825  20.691  33.654  1.00  0.00     0.203 HD
HETATM    9  C13 UNL     1      44.141  20.320  34.752  1.00  0.00     0.714 A 
HETATM   10  N6  UNL     1      43.112  20.866  35.459  1.00  0.00    -0.021 N 
ATOM     11  H6  UNL     1      42.416  20.259  35.893  1.00  0.00     0.203 HD
ENDROOT
BRANCH   9  12
HETATM   12  N5  UNL     1      44.219  19.017  34.641  1.00  0.00    -0.154 N 
HETATM   13  C14 UNL     1      43.138  18.164  34.881  1.00  0.00     0.276 C 
HETATM   14  O1  UNL     1      42.203  18.092  34.050  1.00  0.00    -0.267 OA
ATOM     15  H5  UNL     1      45.110  18.605  34.366  1.00  0.00     0.187 HD
BRANCH  13  16
HETATM   16  C15 UNL     1      43.055  17.344  36.079  1.00  0.00     0.116 A 
HETATM   17  C16 UNL     1      43.907  16.289  36.304  1.00  0.00     0.176 A 
HETATM   18  F1  UNL     1      44.860  16.021  35.349  1.00  0.00    -0.202 F 
HETATM   19  C17 UNL     1      43.879  15.477  37.418  1.00  0.00     0.197 A 
HETATM   20  F2  UNL     1      44.767  14.460  37.542  1.00  0.00    -0.199 F 
HETATM   21  C18 UNL     1      42.921  15.748  38.373  1.00  0.00     0.199 A 
HETATM   22  F3  UNL     1      42.897  14.947  39.465  1.00  0.00    -0.199 F 
HETATM   23  C19 UNL     1      42.042  16.799  38.190  1.00  0.00     0.197 A 
HETATM   24  F4  UNL     1      41.109  17.027  39.171  1.00  0.00    -0.199 F 
HETATM   25  C20 UNL     1      42.097  17.592  37.066  1.00  0.00     0.176 A 
HETATM   26  F5  UNL     1      41.229  18.594  36.935  1.00  0.00    -0.202 F 
ENDBRANCH  13  16
ENDBRANCH   9  12
BRANCH   6  27
HETATM   27  N3  UNL     1      45.891  23.221  33.727  1.00  0.00    -0.225 N 
ATOM     28  H3  UNL     1      46.456  23.863  34.284  1.00  0.00     0.177 HD
BRANCH  27  29
HETATM   29  C8  UNL     1      46.053  23.132  32.311  1.00  0.00     0.138 C 
BRANCH  29  30
HETATM   30  C9  UNL     1      44.822  23.704  31.626  1.00  0.00     0.024 C 
BRANCH  30  31
HETATM   31  C10 UNL     1      45.246  25.066  31.068  1.00  0.00    -0.021 C 
HETATM   32  C11 UNL     1      44.433  25.326  29.826  1.00  0.00     0.009 C 
HETATM   33  C12 UNL     1      46.718  24.974  30.737  1.00  0.00     0.009 C 
ENDBRANCH  30  31
ENDBRANCH  29  30
ENDBRANCH  27  29
ENDBRANCH   6  27
BRANCH   1  34
HETATM   34  C3  UNL     1      40.980  22.653  36.954  1.00  0.00     0.098 C 
BRANCH  34  35
HETATM   35  C2  UNL     1      40.045  21.567  36.536  1.00  0.00     0.021 C 
HETATM   36  C1  UNL     1      38.819  21.496  37.446  1.00  0.00     0.007 C 
ENDBRANCH  34  35
BRANCH  34  37
HETATM   37  C4  UNL     1      40.227  23.964  37.213  1.00  0.00     0.021 C 
HETATM   38  C5  UNL     1      40.531  24.497  38.583  1.00  0.00     0.007 C 
ENDBRANCH  34  37
ENDBRANCH   1  34
TORSDOF 9
ENDMDL
