MODEL 1
REMARK VINA RESULT: -7.917899438      0.000      0.000
REMARK  7 active torsions:
REMARK  status: ('A' for Active; 'I' for Inactive)
REMARK    1  A    between atoms: C1_4  and  C2_6 
REMARK    2  A    between atoms: C4_10  and  N4_11 
REMARK    3  A    between atoms: N4_11  and  C5_13 
REMARK    4  A    between atoms: C5_13  and  C6_14 
REMARK    5  A    between atoms: C9_17  and  C10_18 
REMARK    6  A    between atoms: C10_18  and  C11_19 
REMARK    7  A    between atoms: C11_19  and  C12_20 
ROOT
HETATM    1  C6  UNL     1      39.515  20.234  37.782  1.00  0.00    -0.025 A 
HETATM    2  C7  UNL     1      39.969  19.101  38.417  1.00  0.00     0.012 A 
HETATM    3  C8  UNL     1      39.078  18.221  38.994  1.00  0.00     0.025 A 
HETATM    4  C9  UNL     1      37.705  18.450  38.954  1.00  0.00     0.009 A 
HETATM    5  N5  UNL     1      37.292  19.566  38.327  1.00  0.00    -0.369 N 
ATOM      6  H5  UNL     1      36.292  19.760  38.282  1.00  0.00     0.165 HD
HETATM    7  C18 UNL     1      38.155  20.444  37.752  1.00  0.00     0.096 A 
ENDROOT
BRANCH   1   8
HETATM    8  C5  UNL     1      40.507  21.179  37.159  1.00  0.00     0.161 C 
BRANCH   8   9
HETATM    9  N4  UNL     1      41.725  20.489  36.869  1.00  0.00    -0.369 N 
ATOM     10  H4  UNL     1      41.859  19.565  37.280  1.00  0.00     0.161 HD
BRANCH   9  11
HETATM   11  C4  UNL     1      42.649  20.955  36.133  1.00  0.00     0.140 A 
HETATM   12  N3  UNL     1      42.900  22.244  35.874  1.00  0.00    -0.349 N 
HETATM   13  C3  UNL     1      43.916  22.614  35.065  1.00  0.00     0.104 A 
ATOM     14  H3  UNL     1      42.311  22.963  36.297  1.00  0.00     0.167 HD
HETATM   15  C2  UNL     1      44.765  21.723  34.449  1.00  0.00     0.023 A 
HETATM   16  C20 UNL     1      44.537  20.395  34.691  1.00  0.00     0.062 A 
HETATM   17  C19 UNL     1      43.486  20.029  35.527  1.00  0.00     0.161 A 
HETATM   18  F5  UNL     1      43.299  18.721  35.739  1.00  0.00    -0.202 F 
BRANCH  15  19
HETATM   19  C1  UNL     1      45.846  22.221  33.580  1.00  0.00     0.121 C 
HETATM   20  N1  UNL     1      47.011  21.710  33.623  1.00  0.00    -0.387 N 
ATOM     21  H12 UNL     1      47.759  22.054  33.021  1.00  0.00     0.157 HD
ATOM     22  H11 UNL     1      47.249  20.943  34.252  1.00  0.00     0.157 HD
HETATM   23  N2  UNL     1      45.513  23.293  32.699  1.00  0.00    -0.082 NA
ENDBRANCH  15  19
ENDBRANCH   9  11
ENDBRANCH   8   9
ENDBRANCH   1   8
BRANCH   4  24
HETATM   24  C10 UNL     1      36.780  17.485  39.584  1.00  0.00     0.062 C 
BRANCH  24  25
HETATM   25  C11 UNL     1      36.401  17.866  40.994  1.00  0.00     0.051 C 
BRANCH  25  26
HETATM   26  C12 UNL     1      35.046  17.294  41.249  1.00  0.00     0.023 A 
HETATM   27  C13 UNL     1      33.909  17.883  40.707  1.00  0.00     0.128 A 
HETATM   28  F1  UNL     1      34.049  18.992  39.940  1.00  0.00    -0.205 F 
HETATM   29  C14 UNL     1      32.665  17.344  40.948  1.00  0.00     0.088 A 
HETATM   30  C15 UNL     1      32.571  16.221  41.731  1.00  0.00     0.161 A 
HETATM   31  F2  UNL     1      31.343  15.686  41.971  1.00  0.00    -0.203 F 
HETATM   32  C16 UNL     1      33.688  15.626  42.275  1.00  0.00     0.194 A 
HETATM   33  F3  UNL     1      33.574  14.518  43.045  1.00  0.00    -0.200 F 
HETATM   34  C17 UNL     1      34.937  16.168  42.032  1.00  0.00     0.167 A 
HETATM   35  F4  UNL     1      36.059  15.588  42.566  1.00  0.00    -0.202 F 
ENDBRANCH  25  26
ENDBRANCH  24  25
ENDBRANCH   4  24
TORSDOF 7
ENDMDL
MODEL 2
REMARK VINA RESULT: -7.909118445      0.508      1.757
REMARK  7 active torsions:
REMARK  status: ('A' for Active; 'I' for Inactive)
REMARK    1  A    between atoms: C1_4  and  C2_6 
REMARK    2  A    between atoms: C4_10  and  N4_11 
REMARK    3  A    between atoms: N4_11  and  C5_13 
REMARK    4  A    between atoms: C5_13  and  C6_14 
REMARK    5  A    between atoms: C9_17  and  C10_18 
REMARK    6  A    between atoms: C10_18  and  C11_19 
REMARK    7  A    between atoms: C11_19  and  C12_20 
ROOT
HETATM    1  C6  UNL     1      39.474  20.146  37.831  1.00  0.00    -0.025 A 
HETATM    2  C7  UNL     1      39.920  19.044  38.525  1.00  0.00     0.012 A 
HETATM    3  C8  UNL     1      39.020  18.165  39.089  1.00  0.00     0.025 A 
HETATM    4  C9  UNL     1      37.647  18.362  38.976  1.00  0.00     0.009 A 
HETATM    5  N5  UNL     1      37.242  19.448  38.292  1.00  0.00    -0.369 N 
ATOM      6  H5  UNL     1      36.242  19.618  38.192  1.00  0.00     0.165 HD
HETATM    7  C18 UNL     1      38.113  20.325  37.729  1.00  0.00     0.096 A 
ENDROOT
BRANCH   1   8
HETATM    8  C5  UNL     1      40.477  21.091  37.224  1.00  0.00     0.161 C 
BRANCH   8   9
HETATM    9  N4  UNL     1      41.654  20.376  36.842  1.00  0.00    -0.369 N 
ATOM     10  H4  UNL     1      41.751  19.411  37.158  1.00  0.00     0.161 HD
BRANCH   9  11
HETATM   11  C4  UNL     1      42.587  20.868  36.134  1.00  0.00     0.140 A 
HETATM   12  N3  UNL     1      42.809  22.165  35.883  1.00  0.00    -0.349 N 
HETATM   13  C3  UNL     1      43.839  22.564  35.106  1.00  0.00     0.104 A 
ATOM     14  H3  UNL     1      42.189  22.866  36.288  1.00  0.00     0.167 HD
HETATM   15  C2  UNL     1      44.731  21.697  34.516  1.00  0.00     0.023 A 
HETATM   16  C20 UNL     1      44.533  20.363  34.751  1.00  0.00     0.062 A 
HETATM   17  C19 UNL     1      43.468  19.967  35.554  1.00  0.00     0.161 A 
HETATM   18  F5  UNL     1      43.311  18.654  35.760  1.00  0.00    -0.202 F 
BRANCH  15  19
HETATM   19  C1  UNL     1      45.823  22.226  33.680  1.00  0.00     0.121 C 
HETATM   20  N1  UNL     1      47.003  21.756  33.768  1.00  0.00    -0.387 N 
ATOM     21  H12 UNL     1      47.759  22.122  33.189  1.00  0.00     0.157 HD
ATOM     22  H11 UNL     1      47.246  21.004  34.412  1.00  0.00     0.157 HD
HETATM   23  N2  UNL     1      45.484  23.279  32.778  1.00  0.00    -0.082 NA
ENDBRANCH  15  19
ENDBRANCH   9  11
ENDBRANCH   8   9
ENDBRANCH   1   8
BRANCH   4  24
HETATM   24  C10 UNL     1      36.712  17.399  39.594  1.00  0.00     0.062 C 
BRANCH  24  25
HETATM   25  C11 UNL     1      36.338  17.765  41.008  1.00  0.00     0.051 C 
BRANCH  25  26
HETATM   26  C12 UNL     1      34.957  17.246  41.241  1.00  0.00     0.023 A 
HETATM   27  C13 UNL     1      34.740  16.124  42.033  1.00  0.00     0.128 A 
HETATM   28  F1  UNL     1      35.808  15.502  42.593  1.00  0.00    -0.205 F 
HETATM   29  C14 UNL     1      33.462  15.658  42.243  1.00  0.00     0.088 A 
HETATM   30  C15 UNL     1      32.413  16.319  41.656  1.00  0.00     0.161 A 
HETATM   31  F2  UNL     1      31.148  15.860  41.860  1.00  0.00    -0.203 F 
HETATM   32  C16 UNL     1      32.611  17.432  40.868  1.00  0.00     0.194 A 
HETATM   33  F3  UNL     1      31.562  18.070  40.298  1.00  0.00    -0.200 F 
HETATM   34  C17 UNL     1      33.896  17.900  40.659  1.00  0.00     0.167 A 
HETATM   35  F4  UNL     1      34.111  19.006  39.879  1.00  0.00    -0.202 F 
ENDBRANCH  25  26
ENDBRANCH  24  25
ENDBRANCH   4  24
TORSDOF 7
ENDMDL
MODEL 3
REMARK VINA RESULT: -7.794242574      1.251      1.571
REMARK  7 active torsions:
REMARK  status: ('A' for Active; 'I' for Inactive)
REMARK    1  A    between atoms: C1_4  and  C2_6 
REMARK    2  A    between atoms: C4_10  and  N4_11 
REMARK    3  A    between atoms: N4_11  and  C5_13 
REMARK    4  A    between atoms: C5_13  and  C6_14 
REMARK    5  A    between atoms: C9_17  and  C10_18 
REMARK    6  A    between atoms: C10_18  and  C11_19 
REMARK    7  A    between atoms: C11_19  and  C12_20 
ROOT
HETATM    1  C6  UNL     1      39.865  19.387  38.209  1.00  0.00    -0.025 A 
HETATM    2  C7  UNL     1      39.634  18.218  38.899  1.00  0.00     0.012 A 
HETATM    3  C8  UNL     1      38.345  17.820  39.183  1.00  0.00     0.025 A 
HETATM    4  C9  UNL     1      37.248  18.581  38.786  1.00  0.00     0.009 A 
HETATM    5  N5  UNL     1      37.506  19.717  38.114  1.00  0.00    -0.369 N 
ATOM      6  H5  UNL     1      36.723  20.295  37.810  1.00  0.00     0.165 HD
HETATM    7  C18 UNL     1      38.769  20.125  37.825  1.00  0.00     0.096 A 
ENDROOT
BRANCH   1   8
HETATM    8  C5  UNL     1      41.282  19.799  37.911  1.00  0.00     0.161 C 
BRANCH   8   9
HETATM    9  N4  UNL     1      41.409  20.148  36.531  1.00  0.00    -0.369 N 
ATOM     10  H4  UNL     1      40.565  20.153  35.959  1.00  0.00     0.161 HD
BRANCH   9  11
HETATM   11  C4  UNL     1      42.509  20.453  35.973  1.00  0.00     0.140 A 
HETATM   12  N3  UNL     1      43.466  19.610  35.563  1.00  0.00    -0.349 N 
HETATM   13  C3  UNL     1      44.599  20.061  34.984  1.00  0.00     0.104 A 
ATOM     14  H3  UNL     1      43.336  18.606  35.691  1.00  0.00     0.167 HD
HETATM   15  C2  UNL     1      44.868  21.393  34.767  1.00  0.00     0.023 A 
HETATM   16  C20 UNL     1      43.911  22.284  35.174  1.00  0.00     0.062 A 
HETATM   17  C19 UNL     1      42.749  21.805  35.769  1.00  0.00     0.161 A 
HETATM   18  F5  UNL     1      41.839  22.708  36.150  1.00  0.00    -0.202 F 
BRANCH  15  19
HETATM   19  C1  UNL     1      46.136  21.791  34.129  1.00  0.00     0.121 C 
HETATM   20  N1  UNL     1      46.192  22.797  33.351  1.00  0.00    -0.387 N 
ATOM     21  H12 UNL     1      47.069  23.073  32.910  1.00  0.00     0.157 HD
ATOM     22  H11 UNL     1      45.375  23.367  33.135  1.00  0.00     0.157 HD
HETATM   23  N2  UNL     1      47.280  20.994  34.432  1.00  0.00    -0.082 NA
ENDBRANCH  15  19
ENDBRANCH   9  11
ENDBRANCH   8   9
ENDBRANCH   1   8
BRANCH   4  24
HETATM   24  C10 UNL     1      35.880  18.123  39.108  1.00  0.00     0.062 C 
BRANCH  24  25
HETATM   25  C11 UNL     1      35.339  18.732  40.378  1.00  0.00     0.051 C 
BRANCH  25  26
HETATM   26  C12 UNL     1      34.378  17.747  40.957  1.00  0.00     0.023 A 
HETATM   27  C13 UNL     1      33.018  17.828  40.679  1.00  0.00     0.128 A 
HETATM   28  F1  UNL     1      32.574  18.823  39.871  1.00  0.00    -0.205 F 
HETATM   29  C14 UNL     1      32.142  16.912  41.217  1.00  0.00     0.088 A 
HETATM   30  C15 UNL     1      32.637  15.923  42.029  1.00  0.00     0.161 A 
HETATM   31  F2  UNL     1      31.775  15.016  42.563  1.00  0.00    -0.203 F 
HETATM   32  C16 UNL     1      33.982  15.829  42.314  1.00  0.00     0.194 A 
HETATM   33  F3  UNL     1      34.450  14.845  43.118  1.00  0.00    -0.200 F 
HETATM   34  C17 UNL     1      34.860  16.750  41.773  1.00  0.00     0.167 A 
HETATM   35  F4  UNL     1      36.201  16.670  42.046  1.00  0.00    -0.202 F 
ENDBRANCH  25  26
ENDBRANCH  24  25
ENDBRANCH   4  24
TORSDOF 7
ENDMDL
MODEL 4
REMARK VINA RESULT: -7.742997850      1.001      1.983
REMARK  7 active torsions:
REMARK  status: ('A' for Active; 'I' for Inactive)
REMARK    1  A    between atoms: C1_4  and  C2_6 
REMARK    2  A    between atoms: C4_10  and  N4_11 
REMARK    3  A    between atoms: N4_11  and  C5_13 
REMARK    4  A    between atoms: C5_13  and  C6_14 
REMARK    5  A    between atoms: C9_17  and  C10_18 
REMARK    6  A    between atoms: C10_18  and  C11_19 
REMARK    7  A    between atoms: C11_19  and  C12_20 
ROOT
HETATM    1  C6  UNL     1      39.636  20.283  36.941  1.00  0.00    -0.025 A 
HETATM    2  C7  UNL     1      40.077  19.184  37.643  1.00  0.00     0.012 A 
HETATM    3  C8  UNL     1      39.246  18.551  38.542  1.00  0.00     0.025 A 
HETATM    4  C9  UNL     1      37.947  19.000  38.767  1.00  0.00     0.009 A 
HETATM    5  N5  UNL     1      37.545  20.076  38.067  1.00  0.00    -0.369 N 
ATOM      6  H5  UNL     1      36.599  20.428  38.211  1.00  0.00     0.165 HD
HETATM    7  C18 UNL     1      38.350  20.712  37.177  1.00  0.00     0.096 A 
ENDROOT
BRANCH   1   8
HETATM    8  C5  UNL     1      40.564  20.955  35.965  1.00  0.00     0.161 C 
BRANCH   8   9
HETATM    9  N4  UNL     1      41.841  21.167  36.569  1.00  0.00    -0.369 N 
ATOM     10  H4  UNL     1      41.885  21.219  37.587  1.00  0.00     0.161 HD
BRANCH   9  11
HETATM   11  C4  UNL     1      42.924  21.293  35.918  1.00  0.00     0.140 A 
HETATM   12  N3  UNL     1      43.495  22.437  35.517  1.00  0.00    -0.349 N 
HETATM   13  C3  UNL     1      44.653  22.439  34.822  1.00  0.00     0.104 A 
ATOM     14  H3  UNL     1      43.046  23.325  35.742  1.00  0.00     0.167 HD
HETATM   15  C2  UNL     1      45.335  21.296  34.472  1.00  0.00     0.023 A 
HETATM   16  C20 UNL     1      44.780  20.108  34.864  1.00  0.00     0.062 A 
HETATM   17  C19 UNL     1      43.586  20.121  35.580  1.00  0.00     0.161 A 
HETATM   18  F5  UNL     1      43.079  18.939  35.946  1.00  0.00    -0.202 F 
BRANCH  15  19
HETATM   19  C1  UNL     1      46.592  21.398  33.709  1.00  0.00     0.121 C 
HETATM   20  N1  UNL     1      46.800  22.369  32.913  1.00  0.00    -0.387 N 
ATOM     21  H12 UNL     1      47.670  22.439  32.385  1.00  0.00     0.157 HD
ATOM     22  H11 UNL     1      46.117  23.111  32.765  1.00  0.00     0.157 HD
HETATM   23  N2  UNL     1      47.549  20.359  33.915  1.00  0.00    -0.082 NA
ENDBRANCH  15  19
ENDBRANCH   9  11
ENDBRANCH   8   9
ENDBRANCH   1   8
BRANCH   4  24
HETATM   24  C10 UNL     1      37.084  18.297  39.739  1.00  0.00     0.062 C 
BRANCH  24  25
HETATM   25  C11 UNL     1      36.003  17.476  39.081  1.00  0.00     0.051 C 
BRANCH  25  26
HETATM   26  C12 UNL     1      35.216  16.836  40.177  1.00  0.00     0.023 A 
HETATM   27  C13 UNL     1      35.664  15.672  40.793  1.00  0.00     0.128 A 
HETATM   28  F1  UNL     1      36.833  15.123  40.380  1.00  0.00    -0.205 F 
HETATM   29  C14 UNL     1      34.931  15.094  41.804  1.00  0.00     0.088 A 
HETATM   30  C15 UNL     1      33.754  15.685  42.188  1.00  0.00     0.161 A 
HETATM   31  F2  UNL     1      33.026  15.116  43.187  1.00  0.00    -0.203 F 
HETATM   32  C16 UNL     1      33.296  16.838  41.588  1.00  0.00     0.194 A 
HETATM   33  F3  UNL     1      32.131  17.406  41.982  1.00  0.00    -0.200 F 
HETATM   34  C17 UNL     1      34.033  17.418  40.573  1.00  0.00     0.167 A 
HETATM   35  F4  UNL     1      33.593  18.565  39.965  1.00  0.00    -0.202 F 
ENDBRANCH  25  26
ENDBRANCH  24  25
ENDBRANCH   4  24
TORSDOF 7
ENDMDL
MODEL 5
REMARK VINA RESULT: -7.726624267      1.695      2.742
REMARK  7 active torsions:
REMARK  status: ('A' for Active; 'I' for Inactive)
REMARK    1  A    between atoms: C1_4  and  C2_6 
REMARK    2  A    between atoms: C4_10  and  N4_11 
REMARK    3  A    between atoms: N4_11  and  C5_13 
REMARK    4  A    between atoms: C5_13  and  C6_14 
REMARK    5  A    between atoms: C9_17  and  C10_18 
REMARK    6  A    between atoms: C10_18  and  C11_19 
REMARK    7  A    between atoms: C11_19  and  C12_20 
ROOT
HETATM    1  C6  UNL     1      38.928  17.877  38.368  1.00  0.00    -0.025 A 
HETATM    2  C7  UNL     1      38.143  16.758  38.525  1.00  0.00     0.012 A 
HETATM    3  C8  UNL     1      36.806  16.882  38.840  1.00  0.00     0.025 A 
HETATM    4  C9  UNL     1      36.215  18.131  39.007  1.00  0.00     0.009 A 
HETATM    5  N5  UNL     1      37.008  19.206  38.847  1.00  0.00    -0.369 N 
ATOM      6  H5  UNL     1      36.602  20.134  38.963  1.00  0.00     0.165 HD
HETATM    7  C18 UNL     1      38.326  19.103  38.537  1.00  0.00     0.096 A 
ENDROOT
BRANCH   1   8
HETATM    8  C5  UNL     1      40.385  17.715  38.024  1.00  0.00     0.161 C 
BRANCH   8   9
HETATM    9  N4  UNL     1      41.091  18.925  38.306  1.00  0.00    -0.369 N 
ATOM     10  H4  UNL     1      41.058  19.286  39.259  1.00  0.00     0.161 HD
BRANCH   9  11
HETATM   11  C4  UNL     1      41.756  19.578  37.443  1.00  0.00     0.140 A 
HETATM   12  N3  UNL     1      42.661  19.089  36.585  1.00  0.00    -0.349 N 
HETATM   13  C3  UNL     1      43.309  19.892  35.713  1.00  0.00     0.104 A 
ATOM     14  H3  UNL     1      42.866  18.089  36.590  1.00  0.00     0.167 HD
HETATM   15  C2  UNL     1      43.103  21.250  35.628  1.00  0.00     0.023 A 
HETATM   16  C20 UNL     1      42.184  21.784  36.491  1.00  0.00     0.062 A 
HETATM   17  C19 UNL     1      41.525  20.945  37.384  1.00  0.00     0.161 A 
HETATM   18  F5  UNL     1      40.633  21.506  38.208  1.00  0.00    -0.202 F 
BRANCH  15  19
HETATM   19  C1  UNL     1      43.859  22.046  34.646  1.00  0.00     0.121 C 
HETATM   20  N1  UNL     1      43.764  21.812  33.398  1.00  0.00    -0.387 N 
ATOM     21  H12 UNL     1      44.288  22.363  32.718  1.00  0.00     0.157 HD
ATOM     22  H11 UNL     1      43.170  21.073  33.024  1.00  0.00     0.157 HD
HETATM   23  N2  UNL     1      44.691  23.081  35.169  1.00  0.00    -0.082 NA
ENDBRANCH  15  19
ENDBRANCH   9  11
ENDBRANCH   8   9
ENDBRANCH   1   8
BRANCH   4  24
HETATM   24  C10 UNL     1      34.779  18.226  39.344  1.00  0.00     0.062 C 
BRANCH  24  25
HETATM   25  C11 UNL     1      34.536  18.583  40.789  1.00  0.00     0.051 C 
BRANCH  25  26
HETATM   26  C12 UNL     1      34.316  17.301  41.522  1.00  0.00     0.023 A 
HETATM   27  C13 UNL     1      35.341  16.714  42.257  1.00  0.00     0.128 A 
HETATM   28  F1  UNL     1      36.550  17.326  42.297  1.00  0.00    -0.205 F 
HETATM   29  C14 UNL     1      35.125  15.533  42.931  1.00  0.00     0.088 A 
HETATM   30  C15 UNL     1      33.885  14.950  42.862  1.00  0.00     0.161 A 
HETATM   31  F2  UNL     1      33.668  13.783  43.527  1.00  0.00    -0.203 F 
HETATM   32  C16 UNL     1      32.859  15.519  42.138  1.00  0.00     0.194 A 
HETATM   33  F3  UNL     1      31.643  14.927  42.083  1.00  0.00    -0.200 F 
HETATM   34  C17 UNL     1      33.077  16.705  41.462  1.00  0.00     0.167 A 
HETATM   35  F4  UNL     1      32.068  17.284  40.738  1.00  0.00    -0.202 F 
ENDBRANCH  25  26
ENDBRANCH  24  25
ENDBRANCH   4  24
TORSDOF 7
ENDMDL
