MODEL 1
REMARK VINA RESULT: -7.624662806      0.000      0.000
REMARK  7 active torsions:
REMARK  status: ('A' for Active; 'I' for Inactive)
REMARK    1  A    between atoms: C3_4  and  C4_5 
REMARK    2  A    between atoms: C4_5  and  C5_6 
REMARK    3  A    between atoms: C12_15  and  C13_16 
REMARK    4  A    between atoms: C13_16  and  O2_17 
REMARK    5  A    between atoms: C13_16  and  N1_19 
REMARK    6  A    between atoms: N1_19  and  C14_21 
REMARK    7  A    between atoms: C14_21  and  C15_22 
ROOT
HETATM    1  O1  UNL     1      37.209  15.397  37.030  1.00  0.00    -0.268 OA
HETATM    2  C1  UNL     1      37.209  16.383  37.786  1.00  0.00     0.246 A 
HETATM    3  C2  UNL     1      36.707  16.362  39.074  1.00  0.00     0.081 A 
HETATM    4  C3  UNL     1      36.743  17.517  39.829  1.00  0.00    -0.046 A 
HETATM    5  C11 UNL     1      37.282  18.666  39.265  1.00  0.00     0.041 A 
HETATM    6  C12 UNL     1      37.761  18.648  38.005  1.00  0.00     0.086 A 
HETATM    7  N2  UNL     1      37.732  17.537  37.264  1.00  0.00    -0.320 N 
ATOM      8  H2  UNL     1      38.099  17.548  36.312  1.00  0.00     0.169 HD
ENDROOT
BRANCH   6   9
HETATM    9  C13 UNL     1      38.368  19.907  37.463  1.00  0.00     0.167 C 
BRANCH   9  10
HETATM   10  O2  UNL     1      38.170  21.041  38.123  1.00  0.00    -0.344 OA
ATOM     11  H2  UNL     1      37.310  21.443  38.084  1.00  0.00     0.219 HD
ENDBRANCH   9  10
BRANCH   9  12
HETATM   12  N1  UNL     1      39.656  19.642  36.923  1.00  0.00    -0.342 N 
ATOM     13  H1  UNL     1      39.794  19.349  35.956  1.00  0.00     0.167 HD
BRANCH  12  14
HETATM   14  C14 UNL     1      40.725  19.813  37.816  1.00  0.00     0.131 C 
BRANCH  14  15
HETATM   15  C15 UNL     1      41.687  18.705  37.683  1.00  0.00     0.135 A 
HETATM   16  O3  UNL     1      42.587  18.441  36.821  1.00  0.00    -0.277 OA
HETATM   17  C16 UNL     1      43.353  17.376  36.824  1.00  0.00     0.273 A 
HETATM   18  F3  UNL     1      44.305  17.147  35.850  1.00  0.00    -0.174 F 
HETATM   19  C17 UNL     1      43.224  16.408  37.821  1.00  0.00     0.221 A 
HETATM   20  F4  UNL     1      43.982  15.277  37.854  1.00  0.00    -0.197 F 
HETATM   21  C18 UNL     1      42.273  16.623  38.801  1.00  0.00     0.201 A 
HETATM   22  F5  UNL     1      42.037  15.748  39.828  1.00  0.00    -0.199 F 
HETATM   23  C19 UNL     1      41.524  17.746  38.733  1.00  0.00     0.193 A 
HETATM   24  F6  UNL     1      40.602  18.047  39.669  1.00  0.00    -0.200 F 
ENDBRANCH  14  15
ENDBRANCH  12  14
ENDBRANCH   9  12
ENDBRANCH   6   9
BRANCH   4  25
HETATM   25  C4  UNL     1      36.233  17.577  41.236  1.00  0.00     0.077 C 
BRANCH  25  26
HETATM   26  C5  UNL     1      34.736  17.415  41.153  1.00  0.00    -0.048 A 
HETATM   27  C6  UNL     1      33.944  18.301  40.441  1.00  0.00     0.049 A 
HETATM   28  C7  UNL     1      32.542  18.191  40.401  1.00  0.00     0.119 A 
HETATM   29  F1  UNL     1      31.853  19.110  39.666  1.00  0.00    -0.206 F 
HETATM   30  C8  UNL     1      31.973  17.164  41.097  1.00  0.00     0.084 A 
HETATM   31  C9  UNL     1      32.727  16.258  41.809  1.00  0.00     0.119 A 
HETATM   32  F2  UNL     1      32.072  15.262  42.472  1.00  0.00    -0.206 F 
HETATM   33  C10 UNL     1      34.106  16.385  41.835  1.00  0.00     0.049 A 
ENDBRANCH  25  26
ENDBRANCH   4  25
TORSDOF 7
ENDMDL
MODEL 2
REMARK VINA RESULT: -7.607596698      0.057      1.509
REMARK  7 active torsions:
REMARK  status: ('A' for Active; 'I' for Inactive)
REMARK    1  A    between atoms: C3_4  and  C4_5 
REMARK    2  A    between atoms: C4_5  and  C5_6 
REMARK    3  A    between atoms: C12_15  and  C13_16 
REMARK    4  A    between atoms: C13_16  and  O2_17 
REMARK    5  A    between atoms: C13_16  and  N1_19 
REMARK    6  A    between atoms: N1_19  and  C14_21 
REMARK    7  A    between atoms: C14_21  and  C15_22 
ROOT
HETATM    1  O1  UNL     1      37.092  15.396  37.019  1.00  0.00    -0.268 OA
HETATM    2  C1  UNL     1      37.131  16.379  37.780  1.00  0.00     0.246 A 
HETATM    3  C2  UNL     1      36.663  16.361  39.080  1.00  0.00     0.081 A 
HETATM    4  C3  UNL     1      36.741  17.512  39.839  1.00  0.00    -0.046 A 
HETATM    5  C11 UNL     1      37.286  18.653  39.266  1.00  0.00     0.041 A 
HETATM    6  C12 UNL     1      37.732  18.632  37.993  1.00  0.00     0.086 A 
HETATM    7  N2  UNL     1      37.662  17.525  37.249  1.00  0.00    -0.320 N 
ATOM      8  H2  UNL     1      38.004  17.533  36.288  1.00  0.00     0.169 HD
ENDROOT
BRANCH   6   9
HETATM    9  C13 UNL     1      38.348  19.881  37.440  1.00  0.00     0.167 C 
BRANCH   9  10
HETATM   10  O2  UNL     1      38.163  21.021  38.093  1.00  0.00    -0.344 OA
ATOM     11  H2  UNL     1      37.495  21.620  37.779  1.00  0.00     0.219 HD
ENDBRANCH   9  10
BRANCH   9  12
HETATM   12  N1  UNL     1      39.632  19.601  36.898  1.00  0.00    -0.342 N 
ATOM     13  H1  UNL     1      39.761  19.274  35.940  1.00  0.00     0.167 HD
BRANCH  12  14
HETATM   14  C14 UNL     1      40.709  19.807  37.772  1.00  0.00     0.131 C 
BRANCH  14  15
HETATM   15  C15 UNL     1      41.682  18.708  37.656  1.00  0.00     0.135 A 
HETATM   16  O3  UNL     1      42.589  18.443  36.800  1.00  0.00    -0.277 OA
HETATM   17  C16 UNL     1      43.366  17.386  36.818  1.00  0.00     0.273 A 
HETATM   18  F3  UNL     1      44.325  17.156  35.851  1.00  0.00    -0.174 F 
HETATM   19  C17 UNL     1      43.242  16.428  37.825  1.00  0.00     0.221 A 
HETATM   20  F4  UNL     1      44.012  15.305  37.874  1.00  0.00    -0.197 F 
HETATM   21  C18 UNL     1      42.285  16.643  38.799  1.00  0.00     0.201 A 
HETATM   22  F5  UNL     1      42.054  15.777  39.834  1.00  0.00    -0.199 F 
HETATM   23  C19 UNL     1      41.525  17.758  38.715  1.00  0.00     0.193 A 
HETATM   24  F6  UNL     1      40.596  18.060  39.644  1.00  0.00    -0.200 F 
ENDBRANCH  14  15
ENDBRANCH  12  14
ENDBRANCH   9  12
ENDBRANCH   6   9
BRANCH   4  25
HETATM   25  C4  UNL     1      36.269  17.575  41.259  1.00  0.00     0.077 C 
BRANCH  25  26
HETATM   26  C5  UNL     1      34.766  17.463  41.213  1.00  0.00    -0.048 A 
HETATM   27  C6  UNL     1      34.089  16.443  41.861  1.00  0.00     0.049 A 
HETATM   28  C7  UNL     1      32.692  16.297  41.779  1.00  0.00     0.119 A 
HETATM   29  F1  UNL     1      32.120  15.263  42.459  1.00  0.00    -0.206 F 
HETATM   30  C8  UNL     1      32.009  17.209  41.029  1.00  0.00     0.084 A 
HETATM   31  C9  UNL     1      32.645  18.242  40.376  1.00  0.00     0.119 A 
HETATM   32  F2  UNL     1      31.880  19.107  39.652  1.00  0.00    -0.206 F 
HETATM   33  C10 UNL     1      34.021  18.367  40.470  1.00  0.00     0.049 A 
ENDBRANCH  25  26
ENDBRANCH   4  25
TORSDOF 7
ENDMDL
MODEL 3
REMARK VINA RESULT: -7.566200997      1.111      1.858
REMARK  7 active torsions:
REMARK  status: ('A' for Active; 'I' for Inactive)
REMARK    1  A    between atoms: C3_4  and  C4_5 
REMARK    2  A    between atoms: C4_5  and  C5_6 
REMARK    3  A    between atoms: C12_15  and  C13_16 
REMARK    4  A    between atoms: C13_16  and  O2_17 
REMARK    5  A    between atoms: C13_16  and  N1_19 
REMARK    6  A    between atoms: N1_19  and  C14_21 
REMARK    7  A    between atoms: C14_21  and  C15_22 
ROOT
HETATM    1  O1  UNL     1      36.701  15.277  37.207  1.00  0.00    -0.268 OA
HETATM    2  C1  UNL     1      36.811  16.195  38.038  1.00  0.00     0.246 A 
HETATM    3  C2  UNL     1      36.216  16.176  39.285  1.00  0.00     0.081 A 
HETATM    4  C3  UNL     1      36.391  17.253  40.130  1.00  0.00    -0.046 A 
HETATM    5  C11 UNL     1      37.160  18.324  39.696  1.00  0.00     0.041 A 
HETATM    6  C12 UNL     1      37.725  18.306  38.471  1.00  0.00     0.086 A 
HETATM    7  N2  UNL     1      37.564  17.271  37.644  1.00  0.00    -0.320 N 
ATOM      8  H2  UNL     1      37.999  17.280  36.722  1.00  0.00     0.169 HD
ENDROOT
BRANCH   6   9
HETATM    9  C13 UNL     1      38.579  19.472  38.071  1.00  0.00     0.167 C 
BRANCH   9  10
HETATM   10  O2  UNL     1      38.055  20.689  38.126  1.00  0.00    -0.344 OA
ATOM     11  H2  UNL     1      37.550  21.000  37.383  1.00  0.00     0.219 HD
ENDBRANCH   9  10
BRANCH   9  12
HETATM   12  N1  UNL     1      39.917  19.279  38.511  1.00  0.00    -0.342 N 
ATOM     13  H1  UNL     1      40.205  19.452  39.474  1.00  0.00     0.167 HD
BRANCH  12  14
HETATM   14  C14 UNL     1      40.812  18.834  37.528  1.00  0.00     0.131 C 
BRANCH  14  15
HETATM   15  C15 UNL     1      41.528  17.633  37.990  1.00  0.00     0.135 A 
HETATM   16  O3  UNL     1      41.263  16.757  38.877  1.00  0.00    -0.277 OA
HETATM   17  C16 UNL     1      42.034  15.746  39.201  1.00  0.00     0.273 A 
HETATM   18  F3  UNL     1      41.688  14.836  40.181  1.00  0.00    -0.174 F 
HETATM   19  C17 UNL     1      43.262  15.554  38.566  1.00  0.00     0.221 A 
HETATM   20  F4  UNL     1      44.104  14.531  38.883  1.00  0.00    -0.197 F 
HETATM   21  C18 UNL     1      43.622  16.458  37.585  1.00  0.00     0.201 A 
HETATM   22  F5  UNL     1      44.803  16.391  36.894  1.00  0.00    -0.199 F 
HETATM   23  C19 UNL     1      42.774  17.472  37.304  1.00  0.00     0.193 A 
HETATM   24  F6  UNL     1      43.034  18.373  36.336  1.00  0.00    -0.200 F 
ENDBRANCH  14  15
ENDBRANCH  12  14
ENDBRANCH   9  12
ENDBRANCH   6   9
BRANCH   4  25
HETATM   25  C4  UNL     1      35.792  17.307  41.502  1.00  0.00     0.077 C 
BRANCH  25  26
HETATM   26  C5  UNL     1      34.297  17.253  41.315  1.00  0.00    -0.048 A 
HETATM   27  C6  UNL     1      33.622  18.186  40.545  1.00  0.00     0.049 A 
HETATM   28  C7  UNL     1      32.222  18.176  40.408  1.00  0.00     0.119 A 
HETATM   29  F1  UNL     1      31.654  19.135  39.621  1.00  0.00    -0.206 F 
HETATM   30  C8  UNL     1      31.533  17.201  41.068  1.00  0.00     0.084 A 
HETATM   31  C9  UNL     1      32.168  16.251  41.837  1.00  0.00     0.119 A 
HETATM   32  F2  UNL     1      31.398  15.312  42.457  1.00  0.00    -0.206 F 
HETATM   33  C10 UNL     1      33.547  16.278  41.958  1.00  0.00     0.049 A 
ENDBRANCH  25  26
ENDBRANCH   4  25
TORSDOF 7
ENDMDL
MODEL 4
REMARK VINA RESULT: -7.528719193      3.307      5.347
REMARK  7 active torsions:
REMARK  status: ('A' for Active; 'I' for Inactive)
REMARK    1  A    between atoms: C3_4  and  C4_5 
REMARK    2  A    between atoms: C4_5  and  C5_6 
REMARK    3  A    between atoms: C12_15  and  C13_16 
REMARK    4  A    between atoms: C13_16  and  O2_17 
REMARK    5  A    between atoms: C13_16  and  N1_19 
REMARK    6  A    between atoms: N1_19  and  C14_21 
REMARK    7  A    between atoms: C14_21  and  C15_22 
ROOT
HETATM    1  O1  UNL     1      41.326  23.297  38.537  1.00  0.00    -0.268 OA
HETATM    2  C1  UNL     1      41.072  22.384  37.733  1.00  0.00     0.246 A 
HETATM    3  C2  UNL     1      39.806  21.870  37.531  1.00  0.00     0.081 A 
HETATM    4  C3  UNL     1      39.632  20.846  36.622  1.00  0.00    -0.046 A 
HETATM    5  C11 UNL     1      40.742  20.362  35.941  1.00  0.00     0.041 A 
HETATM    6  C12 UNL     1      41.963  20.890  36.166  1.00  0.00     0.086 A 
HETATM    7  N2  UNL     1      42.144  21.881  37.042  1.00  0.00    -0.320 N 
ATOM      8  H2  UNL     1      43.077  22.262  37.197  1.00  0.00     0.169 HD
ENDROOT
BRANCH   6   9
HETATM    9  C13 UNL     1      43.118  20.357  35.372  1.00  0.00     0.167 C 
BRANCH   9  10
HETATM   10  O2  UNL     1      44.342  20.766  35.683  1.00  0.00    -0.344 OA
ATOM     11  H2  UNL     1      44.779  21.372  35.096  1.00  0.00     0.219 HD
ENDBRANCH   9  10
BRANCH   9  12
HETATM   12  N1  UNL     1      42.911  18.987  35.057  1.00  0.00    -0.342 N 
ATOM     13  H1  UNL     1      42.135  18.672  34.475  1.00  0.00     0.167 HD
BRANCH  12  14
HETATM   14  C14 UNL     1      43.849  18.098  35.602  1.00  0.00     0.131 C 
BRANCH  14  15
HETATM   15  C15 UNL     1      43.300  17.443  36.801  1.00  0.00     0.135 A 
HETATM   16  O3  UNL     1      42.343  17.743  37.588  1.00  0.00    -0.277 OA
HETATM   17  C16 UNL     1      41.993  17.062  38.653  1.00  0.00     0.273 A 
HETATM   18  F3  UNL     1      40.948  17.449  39.468  1.00  0.00    -0.174 F 
HETATM   19  C17 UNL     1      42.684  15.905  39.019  1.00  0.00     0.221 A 
HETATM   20  F4  UNL     1      42.370  15.177  40.126  1.00  0.00    -0.197 F 
HETATM   21  C18 UNL     1      43.734  15.507  38.213  1.00  0.00     0.201 A 
HETATM   22  F5  UNL     1      44.500  14.399  38.465  1.00  0.00    -0.199 F 
HETATM   23  C19 UNL     1      44.033  16.258  37.130  1.00  0.00     0.193 A 
HETATM   24  F6  UNL     1      45.017  15.918  36.274  1.00  0.00    -0.200 F 
ENDBRANCH  14  15
ENDBRANCH  12  14
ENDBRANCH   9  12
ENDBRANCH   6   9
BRANCH   4  25
HETATM   25  C4  UNL     1      38.292  20.241  36.334  1.00  0.00     0.077 C 
BRANCH  25  26
HETATM   26  C5  UNL     1      38.183  19.016  37.206  1.00  0.00    -0.048 A 
HETATM   27  C6  UNL     1      38.484  17.750  36.731  1.00  0.00     0.049 A 
HETATM   28  C7  UNL     1      38.333  16.595  37.519  1.00  0.00     0.119 A 
HETATM   29  F1  UNL     1      38.664  15.396  36.960  1.00  0.00    -0.206 F 
HETATM   30  C8  UNL     1      37.874  16.760  38.793  1.00  0.00     0.084 A 
HETATM   31  C9  UNL     1      37.571  18.002  39.305  1.00  0.00     0.119 A 
HETATM   32  F2  UNL     1      37.120  18.072  40.590  1.00  0.00    -0.206 F 
HETATM   33  C10 UNL     1      37.727  19.126  38.512  1.00  0.00     0.049 A 
ENDBRANCH  25  26
ENDBRANCH   4  25
TORSDOF 7
ENDMDL
MODEL 5
REMARK VINA RESULT: -7.445960466      2.380      3.147
REMARK  7 active torsions:
REMARK  status: ('A' for Active; 'I' for Inactive)
REMARK    1  A    between atoms: C3_4  and  C4_5 
REMARK    2  A    between atoms: C4_5  and  C5_6 
REMARK    3  A    between atoms: C12_15  and  C13_16 
REMARK    4  A    between atoms: C13_16  and  O2_17 
REMARK    5  A    between atoms: C13_16  and  N1_19 
REMARK    6  A    between atoms: N1_19  and  C14_21 
REMARK    7  A    between atoms: C14_21  and  C15_22 
ROOT
HETATM    1  O1  UNL     1      37.004  14.465  38.220  1.00  0.00    -0.268 OA
HETATM    2  C1  UNL     1      36.909  15.561  38.799  1.00  0.00     0.246 A 
HETATM    3  C2  UNL     1      36.222  15.747  39.983  1.00  0.00     0.081 A 
HETATM    4  C3  UNL     1      36.166  17.009  40.539  1.00  0.00    -0.046 A 
HETATM    5  C11 UNL     1      36.803  18.055  39.884  1.00  0.00     0.041 A 
HETATM    6  C12 UNL     1      37.464  17.835  38.729  1.00  0.00     0.086 A 
HETATM    7  N2  UNL     1      37.525  16.619  38.181  1.00  0.00    -0.320 N 
ATOM      8  H2  UNL     1      38.030  16.477  37.306  1.00  0.00     0.169 HD
ENDROOT
BRANCH   6   9
HETATM    9  C13 UNL     1      38.168  18.993  38.088  1.00  0.00     0.167 C 
BRANCH   9  10
HETATM   10  O2  UNL     1      37.765  20.222  38.385  1.00  0.00    -0.344 OA
ATOM     11  H2  UNL     1      38.324  20.952  38.145  1.00  0.00     0.219 HD
ENDBRANCH   9  10
BRANCH   9  12
HETATM   12  N1  UNL     1      39.561  18.732  37.988  1.00  0.00    -0.342 N 
ATOM     13  H1  UNL     1      39.930  17.912  37.505  1.00  0.00     0.167 HD
BRANCH  12  14
HETATM   14  C14 UNL     1      40.393  19.680  38.601  1.00  0.00     0.131 C 
BRANCH  14  15
HETATM   15  C15 UNL     1      41.280  20.306  37.605  1.00  0.00     0.135 A 
HETATM   16  O3  UNL     1      42.253  19.860  36.914  1.00  0.00    -0.277 OA
HETATM   17  C16 UNL     1      42.979  20.566  36.079  1.00  0.00     0.273 A 
HETATM   18  F3  UNL     1      44.028  20.020  35.366  1.00  0.00    -0.174 F 
HETATM   19  C17 UNL     1      42.722  21.924  35.885  1.00  0.00     0.221 A 
HETATM   20  F4  UNL     1      43.460  22.702  35.044  1.00  0.00    -0.197 F 
HETATM   21  C18 UNL     1      41.676  22.485  36.593  1.00  0.00     0.201 A 
HETATM   22  F5  UNL     1      41.326  23.806  36.503  1.00  0.00    -0.199 F 
HETATM   23  C19 UNL     1      40.972  21.693  37.432  1.00  0.00     0.193 A 
HETATM   24  F6  UNL     1      39.915  22.154  38.130  1.00  0.00    -0.200 F 
ENDBRANCH  14  15
ENDBRANCH  12  14
ENDBRANCH   9  12
ENDBRANCH   6   9
BRANCH   4  25
HETATM   25  C4  UNL     1      35.454  17.294  41.826  1.00  0.00     0.077 C 
BRANCH  25  26
HETATM   26  C5  UNL     1      33.979  17.228  41.518  1.00  0.00    -0.048 A 
HETATM   27  C6  UNL     1      33.370  18.133  40.664  1.00  0.00     0.049 A 
HETATM   28  C7  UNL     1      31.986  18.115  40.412  1.00  0.00     0.119 A 
HETATM   29  F1  UNL     1      31.485  19.045  39.550  1.00  0.00    -0.206 F 
HETATM   30  C8  UNL     1      31.245  17.160  41.045  1.00  0.00     0.084 A 
HETATM   31  C9  UNL     1      31.815  16.238  41.896  1.00  0.00     0.119 A 
HETATM   32  F2  UNL     1      30.997  15.318  42.482  1.00  0.00    -0.206 F 
HETATM   33  C10 UNL     1      33.179  16.274  42.129  1.00  0.00     0.049 A 
ENDBRANCH  25  26
ENDBRANCH   4  25
TORSDOF 7
ENDMDL
