MODEL 1
REMARK VINA RESULT: -7.140179492      0.000      0.000
REMARK  7 active torsions:
REMARK  status: ('A' for Active; 'I' for Inactive)
REMARK    1  A    between atoms: N1_1  and  C1_5 
REMARK    2  A    between atoms: C1_5  and  C2_6 
REMARK    3  A    between atoms: C1_5  and  C10_19 
REMARK    4  A    between atoms: C2_6  and  C3_7 
REMARK       I    between atoms: C3_7  and  N2_9 
REMARK    5  A    between atoms: N2_9  and  C4_11 
REMARK    6  A    between atoms: C10_19  and  C11_20 
REMARK    7  A    between atoms: C15_26  and  C16_27 
ROOT
HETATM    1  C1  UNL     1      39.448  14.124  39.272  1.00  0.00     0.196 C 
ENDROOT
BRANCH   1   2
HETATM    2  N1  UNL     1      40.317  13.152  39.975  1.00  0.00    -0.074 N 
ATOM      3  H13 UNL     1      40.143  13.112  40.979  1.00  0.00     0.274 HD
ATOM      4  H12 UNL     1      40.084  12.182  39.763  1.00  0.00     0.274 HD
ATOM      5  H11 UNL     1      41.281  13.391  39.744  1.00  0.00     0.274 HD
ENDBRANCH   1   2
BRANCH   1   6
HETATM    6  C2  UNL     1      38.176  13.440  38.986  1.00  0.00     0.135 C 
BRANCH   6   7
HETATM    7  C3  UNL     1      36.940  14.198  39.269  1.00  0.00     0.219 C 
HETATM    8  O1  UNL     1      36.044  14.361  38.379  1.00  0.00    -0.274 OA
HETATM    9  N2  UNL     1      36.705  14.769  40.536  1.00  0.00    -0.356 N 
ATOM     10  H2  UNL     1      37.408  14.652  41.265  1.00  0.00     0.162 HD
BRANCH   9  11
HETATM   11  C4  UNL     1      35.494  15.521  40.844  1.00  0.00     0.084 C 
HETATM   12  C5  UNL     1      34.700  14.832  41.927  1.00  0.00     0.031 C 
HETATM   13  C6  UNL     1      33.392  15.537  42.145  1.00  0.00     0.081 C 
HETATM   14  C7  UNL     1      33.400  16.953  41.669  1.00  0.00     0.243 C 
HETATM   15  F1  UNL     1      32.985  17.090  40.355  1.00  0.00    -0.206 F 
HETATM   16  F2  UNL     1      32.451  17.655  42.434  1.00  0.00    -0.206 F 
HETATM   17  C8  UNL     1      34.713  17.661  41.868  1.00  0.00     0.081 C 
HETATM   18  C9  UNL     1      35.879  16.903  41.330  1.00  0.00     0.031 C 
ENDBRANCH   9  11
ENDBRANCH   6   7
ENDBRANCH   1   6
BRANCH   1  19
HETATM   19  C10 UNL     1      40.173  14.886  38.256  1.00  0.00     0.078 C 
BRANCH  19  20
HETATM   20  C11 UNL     1      40.366  16.333  38.481  1.00  0.00     0.022 A 
HETATM   21  C12 UNL     1      41.517  16.885  38.921  1.00  0.00     0.128 A 
HETATM   22  F3  UNL     1      42.599  16.139  39.318  1.00  0.00    -0.205 F 
HETATM   23  C13 UNL     1      41.601  18.285  39.033  1.00  0.00     0.086 A 
HETATM   24  C14 UNL     1      40.559  19.115  38.715  1.00  0.00     0.132 A 
HETATM   25  F4  UNL     1      40.713  20.453  38.848  1.00  0.00    -0.205 F 
HETATM   26  C15 UNL     1      39.351  18.549  38.256  1.00  0.00     0.062 A 
HETATM   27  C19 UNL     1      39.301  17.198  38.159  1.00  0.00     0.138 A 
HETATM   28  F6  UNL     1      38.165  16.579  37.743  1.00  0.00    -0.205 F 
BRANCH  26  29
HETATM   29  C16 UNL     1      38.246  19.428  37.933  1.00  0.00     0.183 C 
HETATM   30  F5  UNL     1      37.277  19.518  38.948  1.00  0.00    -0.234 F 
HETATM   31  C17 UNL     1      37.550  19.375  36.624  1.00  0.00     0.282 C 
HETATM   32  N3  UNL     1      37.210  20.817  36.881  1.00  0.00    -0.068 N 
HETATM   33  C18 UNL     1      38.566  20.847  37.492  1.00  0.00     0.282 C 
ATOM     34  H32 UNL     1      36.919  21.459  36.143  1.00  0.00     0.277 HD
ATOM     35  H31 UNL     1      36.370  21.109  37.380  1.00  0.00     0.277 HD
ENDBRANCH  26  29
ENDBRANCH  19  20
ENDBRANCH   1  19
TORSDOF 7
ENDMDL
MODEL 2
REMARK VINA RESULT: -7.030262071      1.840      4.547
REMARK  7 active torsions:
REMARK  status: ('A' for Active; 'I' for Inactive)
REMARK    1  A    between atoms: N1_1  and  C1_5 
REMARK    2  A    between atoms: C1_5  and  C2_6 
REMARK    3  A    between atoms: C1_5  and  C10_19 
REMARK    4  A    between atoms: C2_6  and  C3_7 
REMARK       I    between atoms: C3_7  and  N2_9 
REMARK    5  A    between atoms: N2_9  and  C4_11 
REMARK    6  A    between atoms: C10_19  and  C11_20 
REMARK    7  A    between atoms: C15_26  and  C16_27 
ROOT
HETATM    1  C1  UNL     1      38.036  19.624  36.996  1.00  0.00     0.196 C 
ENDROOT
BRANCH   1   2
HETATM    2  N1  UNL     1      38.127  20.969  36.381  1.00  0.00    -0.074 N 
ATOM      3  H13 UNL     1      37.348  21.577  36.632  1.00  0.00     0.274 HD
ATOM      4  H12 UNL     1      38.872  21.541  36.780  1.00  0.00     0.274 HD
ATOM      5  H11 UNL     1      38.222  20.833  35.375  1.00  0.00     0.274 HD
ENDBRANCH   1   2
BRANCH   1   6
HETATM    6  C2  UNL     1      36.608  19.273  37.056  1.00  0.00     0.135 C 
BRANCH   6   7
HETATM    7  C3  UNL     1      36.231  18.201  38.001  1.00  0.00     0.219 C 
HETATM    8  O1  UNL     1      36.301  16.972  37.673  1.00  0.00    -0.274 OA
HETATM    9  N2  UNL     1      35.779  18.497  39.303  1.00  0.00    -0.356 N 
ATOM     10  H2  UNL     1      35.715  19.474  39.590  1.00  0.00     0.162 HD
BRANCH   9  11
HETATM   11  C4  UNL     1      35.402  17.460  40.257  1.00  0.00     0.084 C 
HETATM   12  C5  UNL     1      36.141  17.641  41.560  1.00  0.00     0.031 C 
HETATM   13  C6  UNL     1      35.851  16.496  42.489  1.00  0.00     0.081 C 
HETATM   14  C7  UNL     1      34.584  15.777  42.158  1.00  0.00     0.243 C 
HETATM   15  F1  UNL     1      34.770  14.716  41.288  1.00  0.00    -0.206 F 
HETATM   16  F2  UNL     1      34.108  15.203  43.351  1.00  0.00    -0.206 F 
HETATM   17  C8  UNL     1      33.485  16.671  41.650  1.00  0.00     0.081 C 
HETATM   18  C9  UNL     1      33.915  17.554  40.527  1.00  0.00     0.031 C 
ENDBRANCH   9  11
ENDBRANCH   6   7
ENDBRANCH   1   6
BRANCH   1  19
HETATM   19  C10 UNL     1      38.929  19.476  38.146  1.00  0.00     0.078 C 
BRANCH  19  20
HETATM   20  C11 UNL     1      40.188  18.728  37.954  1.00  0.00     0.022 A 
HETATM   21  C12 UNL     1      41.315  19.262  37.437  1.00  0.00     0.128 A 
HETATM   22  F3  UNL     1      41.371  20.534  36.924  1.00  0.00    -0.205 F 
HETATM   23  C13 UNL     1      42.473  18.467  37.364  1.00  0.00     0.086 A 
HETATM   24  C14 UNL     1      42.505  17.168  37.798  1.00  0.00     0.132 A 
HETATM   25  F4  UNL     1      43.657  16.464  37.697  1.00  0.00    -0.205 F 
HETATM   26  C15 UNL     1      41.333  16.600  38.338  1.00  0.00     0.062 A 
HETATM   27  C19 UNL     1      40.234  17.391  38.394  1.00  0.00     0.138 A 
HETATM   28  F6  UNL     1      39.062  16.907  38.884  1.00  0.00    -0.205 F 
BRANCH  26  29
HETATM   29  C16 UNL     1      41.366  15.222  38.783  1.00  0.00     0.183 C 
HETATM   30  F5  UNL     1      42.010  15.040  40.020  1.00  0.00    -0.234 F 
HETATM   31  C17 UNL     1      41.759  14.110  37.882  1.00  0.00     0.282 C 
HETATM   32  N3  UNL     1      40.913  13.246  38.776  1.00  0.00    -0.068 N 
HETATM   33  C18 UNL     1      40.054  14.458  38.844  1.00  0.00     0.282 C 
ATOM     34  H32 UNL     1      40.562  12.331  38.494  1.00  0.00     0.277 HD
ATOM     35  H31 UNL     1      41.281  12.779  39.606  1.00  0.00     0.277 HD
ENDBRANCH  26  29
ENDBRANCH  19  20
ENDBRANCH   1  19
TORSDOF 7
ENDMDL
MODEL 3
REMARK VINA RESULT: -7.025701724      1.653      2.048
REMARK  7 active torsions:
REMARK  status: ('A' for Active; 'I' for Inactive)
REMARK    1  A    between atoms: N1_1  and  C1_5 
REMARK    2  A    between atoms: C1_5  and  C2_6 
REMARK    3  A    between atoms: C1_5  and  C10_19 
REMARK    4  A    between atoms: C2_6  and  C3_7 
REMARK       I    between atoms: C3_7  and  N2_9 
REMARK    5  A    between atoms: N2_9  and  C4_11 
REMARK    6  A    between atoms: C10_19  and  C11_20 
REMARK    7  A    between atoms: C15_26  and  C16_27 
ROOT
HETATM    1  C1  UNL     1      40.138  12.690  38.493  1.00  0.00     0.196 C 
ENDROOT
BRANCH   1   2
HETATM    2  N1  UNL     1      40.701  11.407  38.012  1.00  0.00    -0.074 N 
ATOM      3  H13 UNL     1      40.593  10.646  38.683  1.00  0.00     0.274 HD
ATOM      4  H12 UNL     1      40.160  10.991  37.254  1.00  0.00     0.274 HD
ATOM      5  H11 UNL     1      41.673  11.583  37.759  1.00  0.00     0.274 HD
ENDBRANCH   1   2
BRANCH   1   6
HETATM    6  C2  UNL     1      38.800  12.398  39.035  1.00  0.00     0.135 C 
BRANCH   6   7
HETATM    7  C3  UNL     1      38.228  13.402  39.956  1.00  0.00     0.219 C 
HETATM    8  O1  UNL     1      38.679  13.552  41.137  1.00  0.00    -0.274 OA
HETATM    9  N2  UNL     1      37.160  14.234  39.561  1.00  0.00    -0.356 N 
ATOM     10  H2  UNL     1      36.782  14.132  38.619  1.00  0.00     0.162 HD
BRANCH   9  11
HETATM   11  C4  UNL     1      36.576  15.234  40.447  1.00  0.00     0.084 C 
HETATM   12  C5  UNL     1      35.951  16.352  39.650  1.00  0.00     0.031 C 
HETATM   13  C6  UNL     1      35.471  17.442  40.565  1.00  0.00     0.081 C 
HETATM   14  C7  UNL     1      35.246  16.976  41.966  1.00  0.00     0.243 C 
HETATM   15  F1  UNL     1      36.363  17.114  42.774  1.00  0.00    -0.206 F 
HETATM   16  F2  UNL     1      34.271  17.818  42.532  1.00  0.00    -0.206 F 
HETATM   17  C8  UNL     1      34.708  15.575  42.069  1.00  0.00     0.081 C 
HETATM   18  C9  UNL     1      35.500  14.581  41.289  1.00  0.00     0.031 C 
ENDBRANCH   9  11
ENDBRANCH   6   7
ENDBRANCH   1   6
BRANCH   1  19
HETATM   19  C10 UNL     1      40.382  13.790  37.560  1.00  0.00     0.078 C 
BRANCH  19  20
HETATM   20  C11 UNL     1      40.797  15.093  38.118  1.00  0.00     0.022 A 
HETATM   21  C12 UNL     1      42.043  15.364  38.563  1.00  0.00     0.128 A 
HETATM   22  F3  UNL     1      43.029  14.412  38.649  1.00  0.00    -0.205 F 
HETATM   23  C13 UNL     1      42.337  16.664  39.012  1.00  0.00     0.086 A 
HETATM   24  C14 UNL     1      41.407  17.671  39.017  1.00  0.00     0.132 A 
HETATM   25  F4  UNL     1      41.763  18.899  39.464  1.00  0.00    -0.205 F 
HETATM   26  C15 UNL     1      40.103  17.398  38.557  1.00  0.00     0.062 A 
HETATM   27  C19 UNL     1      39.851  16.136  38.131  1.00  0.00     0.138 A 
HETATM   28  F6  UNL     1      38.612  15.792  37.692  1.00  0.00    -0.205 F 
BRANCH  26  29
HETATM   29  C16 UNL     1      39.119  18.460  38.577  1.00  0.00     0.183 C 
HETATM   30  F5  UNL     1      38.450  18.591  39.808  1.00  0.00    -0.234 F 
HETATM   31  C17 UNL     1      38.130  18.643  37.486  1.00  0.00     0.282 C 
HETATM   32  N3  UNL     1      38.112  20.086  37.906  1.00  0.00    -0.068 N 
HETATM   33  C18 UNL     1      39.559  19.852  38.156  1.00  0.00     0.282 C 
ATOM     34  H32 UNL     1      37.766  20.836  37.306  1.00  0.00     0.277 HD
ATOM     35  H31 UNL     1      37.477  20.449  38.618  1.00  0.00     0.277 HD
ENDBRANCH  26  29
ENDBRANCH  19  20
ENDBRANCH   1  19
TORSDOF 7
ENDMDL
MODEL 4
REMARK VINA RESULT: -6.916755744      3.591      6.133
REMARK  7 active torsions:
REMARK  status: ('A' for Active; 'I' for Inactive)
REMARK    1  A    between atoms: N1_1  and  C1_5 
REMARK    2  A    between atoms: C1_5  and  C2_6 
REMARK    3  A    between atoms: C1_5  and  C10_19 
REMARK    4  A    between atoms: C2_6  and  C3_7 
REMARK       I    between atoms: C3_7  and  N2_9 
REMARK    5  A    between atoms: N2_9  and  C4_11 
REMARK    6  A    between atoms: C10_19  and  C11_20 
REMARK    7  A    between atoms: C15_26  and  C16_27 
ROOT
HETATM    1  C1  UNL     1      36.033  18.476  37.607  1.00  0.00     0.196 C 
ENDROOT
BRANCH   1   2
HETATM    2  N1  UNL     1      36.482  18.789  38.984  1.00  0.00    -0.074 N 
ATOM      3  H13 UNL     1      36.834  17.974  39.486  1.00  0.00     0.274 HD
ATOM      4  H12 UNL     1      37.340  19.339  39.010  1.00  0.00     0.274 HD
ATOM      5  H11 UNL     1      35.701  19.244  39.457  1.00  0.00     0.274 HD
ENDBRANCH   1   2
BRANCH   1   6
HETATM    6  C2  UNL     1      36.445  17.091  37.324  1.00  0.00     0.135 C 
BRANCH   6   7
HETATM    7  C3  UNL     1      37.632  16.593  38.049  1.00  0.00     0.219 C 
HETATM    8  O1  UNL     1      37.536  16.108  39.223  1.00  0.00    -0.274 OA
HETATM    9  N2  UNL     1      38.916  16.636  37.469  1.00  0.00    -0.356 N 
ATOM     10  H2  UNL     1      39.018  17.020  36.530  1.00  0.00     0.162 HD
BRANCH   9  11
HETATM   11  C4  UNL     1      40.104  16.151  38.161  1.00  0.00     0.084 C 
HETATM   12  C5  UNL     1      40.971  15.341  37.228  1.00  0.00     0.031 C 
HETATM   13  C6  UNL     1      42.122  14.734  37.977  1.00  0.00     0.081 C 
HETATM   14  C7  UNL     1      42.433  15.445  39.254  1.00  0.00     0.243 C 
HETATM   15  F1  UNL     1      41.756  14.929  40.346  1.00  0.00    -0.206 F 
HETATM   16  F2  UNL     1      43.797  15.233  39.526  1.00  0.00    -0.206 F 
HETATM   17  C8  UNL     1      42.241  16.936  39.189  1.00  0.00     0.081 C 
HETATM   18  C9  UNL     1      40.906  17.336  38.659  1.00  0.00     0.031 C 
ENDBRANCH   9  11
ENDBRANCH   6   7
ENDBRANCH   1   6
BRANCH   1  19
HETATM   19  C10 UNL     1      36.286  19.575  36.676  1.00  0.00     0.078 C 
BRANCH  19  20
HETATM   20  C11 UNL     1      37.624  19.665  36.057  1.00  0.00     0.022 A 
HETATM   21  C12 UNL     1      37.956  19.090  34.882  1.00  0.00     0.128 A 
HETATM   22  F3  UNL     1      37.108  18.258  34.192  1.00  0.00    -0.205 F 
HETATM   23  C13 UNL     1      39.245  19.301  34.360  1.00  0.00     0.086 A 
HETATM   24  C14 UNL     1      40.183  20.069  34.999  1.00  0.00     0.132 A 
HETATM   25  F4  UNL     1      41.403  20.229  34.436  1.00  0.00    -0.205 F 
HETATM   26  C15 UNL     1      39.848  20.673  36.228  1.00  0.00     0.062 A 
HETATM   27  C19 UNL     1      38.598  20.450  36.705  1.00  0.00     0.138 A 
HETATM   28  F6  UNL     1      38.209  20.983  37.893  1.00  0.00    -0.205 F 
BRANCH  26  29
HETATM   29  C16 UNL     1      40.845  21.473  36.908  1.00  0.00     0.183 C 
HETATM   30  F5  UNL     1      41.838  21.987  36.055  1.00  0.00    -0.234 F 
HETATM   31  C17 UNL     1      41.493  21.027  38.166  1.00  0.00     0.282 C 
HETATM   32  N3  UNL     1      41.696  22.491  38.441  1.00  0.00    -0.068 N 
HETATM   33  C18 UNL     1      40.368  22.621  37.783  1.00  0.00     0.282 C 
ATOM     34  H32 UNL     1      41.892  22.860  39.372  1.00  0.00     0.277 HD
ATOM     35  H31 UNL     1      42.521  23.005  38.132  1.00  0.00     0.277 HD
ENDBRANCH  26  29
ENDBRANCH  19  20
ENDBRANCH   1  19
TORSDOF 7
ENDMDL
MODEL 5
REMARK VINA RESULT: -6.874743198      2.793      7.772
REMARK  7 active torsions:
REMARK  status: ('A' for Active; 'I' for Inactive)
REMARK    1  A    between atoms: N1_1  and  C1_5 
REMARK    2  A    between atoms: C1_5  and  C2_6 
REMARK    3  A    between atoms: C1_5  and  C10_19 
REMARK    4  A    between atoms: C2_6  and  C3_7 
REMARK       I    between atoms: C3_7  and  N2_9 
REMARK    5  A    between atoms: N2_9  and  C4_11 
REMARK    6  A    between atoms: C10_19  and  C11_20 
REMARK    7  A    between atoms: C15_26  and  C16_27 
ROOT
HETATM    1  C1  UNL     1      36.190  18.193  39.117  1.00  0.00     0.196 C 
ENDROOT
BRANCH   1   2
HETATM    2  N1  UNL     1      35.634  18.986  37.996  1.00  0.00    -0.074 N 
ATOM      3  H13 UNL     1      35.816  18.570  37.083  1.00  0.00     0.274 HD
ATOM      4  H12 UNL     1      34.615  18.956  37.952  1.00  0.00     0.274 HD
ATOM      5  H11 UNL     1      36.003  19.932  38.087  1.00  0.00     0.274 HD
ENDBRANCH   1   2
BRANCH   1   6
HETATM    6  C2  UNL     1      36.345  16.811  38.634  1.00  0.00     0.135 C 
BRANCH   6   7
HETATM    7  C3  UNL     1      37.657  16.172  38.869  1.00  0.00     0.219 C 
HETATM    8  O1  UNL     1      37.746  15.006  39.371  1.00  0.00    -0.274 OA
HETATM    9  N2  UNL     1      38.861  16.831  38.545  1.00  0.00    -0.356 N 
ATOM     10  H2  UNL     1      38.815  17.766  38.142  1.00  0.00     0.162 HD
BRANCH   9  11
HETATM   11  C4  UNL     1      40.168  16.225  38.765  1.00  0.00     0.084 C 
HETATM   12  C5  UNL     1      40.556  15.355  37.594  1.00  0.00     0.031 C 
HETATM   13  C6  UNL     1      41.839  14.630  37.883  1.00  0.00     0.081 C 
HETATM   14  C7  UNL     1      42.659  15.285  38.946  1.00  0.00     0.243 C 
HETATM   15  F1  UNL     1      42.380  14.814  40.219  1.00  0.00    -0.206 F 
HETATM   16  F2  UNL     1      44.001  14.942  38.707  1.00  0.00    -0.206 F 
HETATM   17  C8  UNL     1      42.596  16.789  38.930  1.00  0.00     0.081 C 
HETATM   18  C9  UNL     1      41.203  17.321  38.917  1.00  0.00     0.031 C 
ENDBRANCH   9  11
ENDBRANCH   6   7
ENDBRANCH   1   6
BRANCH   1  19
HETATM   19  C10 UNL     1      35.550  18.509  40.394  1.00  0.00     0.078 C 
BRANCH  19  20
HETATM   20  C11 UNL     1      34.406  17.678  40.821  1.00  0.00     0.022 A 
HETATM   21  C12 UNL     1      34.519  16.560  41.569  1.00  0.00     0.128 A 
HETATM   22  F3  UNL     1      35.730  16.013  41.915  1.00  0.00    -0.205 F 
HETATM   23  C13 UNL     1      33.350  15.888  41.969  1.00  0.00     0.086 A 
HETATM   24  C14 UNL     1      32.096  16.323  41.628  1.00  0.00     0.132 A 
HETATM   25  F4  UNL     1      31.016  15.624  42.051  1.00  0.00    -0.205 F 
HETATM   26  C15 UNL     1      31.966  17.488  40.846  1.00  0.00     0.062 A 
HETATM   27  C19 UNL     1      33.111  18.113  40.476  1.00  0.00     0.138 A 
HETATM   28  F6  UNL     1      33.068  19.231  39.705  1.00  0.00    -0.205 F 
BRANCH  26  29
HETATM   29  C16 UNL     1      30.640  17.938  40.476  1.00  0.00     0.183 C 
HETATM   30  F5  UNL     1      29.924  17.011  39.697  1.00  0.00    -0.234 F 
HETATM   31  C17 UNL     1      30.387  19.297  39.938  1.00  0.00     0.282 C 
HETATM   32  N3  UNL     1      29.000  19.128  40.491  1.00  0.00    -0.068 N 
HETATM   33  C18 UNL     1      29.710  18.408  41.582  1.00  0.00     0.282 C 
ATOM     34  H32 UNL     1      28.370  19.913  40.662  1.00  0.00     0.277 HD
ATOM     35  H31 UNL     1      28.235  18.713  39.957  1.00  0.00     0.277 HD
ENDBRANCH  26  29
ENDBRANCH  19  20
ENDBRANCH   1  19
TORSDOF 7
ENDMDL
