MODEL 1
REMARK VINA RESULT: -7.408367852      0.000      0.000
REMARK  7 active torsions:
REMARK  status: ('A' for Active; 'I' for Inactive)
REMARK    1  A    between atoms: C1_4  and  C2_5 
REMARK    2  A    between atoms: C1_4  and  N2_17 
REMARK    3  A    between atoms: C2_5  and  C3_6 
REMARK    4  A    between atoms: N2_17  and  C9_19 
REMARK    5  A    between atoms: C9_19  and  C10_20 
REMARK    6  A    between atoms: N3_23  and  C13_24 
REMARK    7  A    between atoms: C13_24  and  C14_25 
ROOT
HETATM    1  N2  UNL     1      38.320  20.352  38.151  1.00  0.00    -0.359 N 
ATOM      2  H2  UNL     1      37.837  20.897  38.866  1.00  0.00     0.166 HD
ENDROOT
BRANCH   1   3
HETATM    3  C1  UNL     1      39.458  20.925  37.431  1.00  0.00     0.078 C 
HETATM    4  N1  UNL     1      39.291  21.450  36.346  1.00  0.00    -0.389 N 
ATOM      5  H12 UNL     1      40.085  21.850  35.845  1.00  0.00     0.157 HD
ATOM      6  H11 UNL     1      38.415  21.564  35.836  1.00  0.00     0.157 HD
BRANCH   3   7
HETATM    7  C2  UNL     1      40.722  20.760  38.166  1.00  0.00     0.121 C 
BRANCH   7   8
HETATM    8  C3  UNL     1      41.493  19.540  37.894  1.00  0.00     0.033 A 
HETATM    9  C4  UNL     1      42.228  19.297  36.770  1.00  0.00     0.168 A 
HETATM   10  F1  UNL     1      42.263  20.243  35.775  1.00  0.00    -0.202 F 
HETATM   11  C5  UNL     1      42.954  18.124  36.587  1.00  0.00     0.197 A 
HETATM   12  F2  UNL     1      43.685  17.871  35.472  1.00  0.00    -0.199 F 
HETATM   13  C6  UNL     1      42.969  17.133  37.553  1.00  0.00     0.199 A 
HETATM   14  F3  UNL     1      43.657  15.984  37.406  1.00  0.00    -0.199 F 
HETATM   15  C7  UNL     1      42.243  17.353  38.678  1.00  0.00     0.197 A 
HETATM   16  F4  UNL     1      42.199  16.429  39.666  1.00  0.00    -0.199 F 
HETATM   17  C8  UNL     1      41.521  18.508  38.862  1.00  0.00     0.168 A 
HETATM   18  F5  UNL     1      40.796  18.731  39.982  1.00  0.00    -0.202 F 
ENDBRANCH   7   8
ENDBRANCH   3   7
ENDBRANCH   1   3
BRANCH   1  19
HETATM   19  C9  UNL     1      37.901  19.052  37.850  1.00  0.00     0.072 C 
BRANCH  19  20
HETATM   20  C10 UNL     1      37.729  18.134  39.047  1.00  0.00     0.064 C 
HETATM   21  C11 UNL     1      37.780  16.675  38.762  1.00  0.00     0.035 C 
HETATM   22  C12 UNL     1      36.610  16.020  39.543  1.00  0.00     0.128 C 
HETATM   23  N3  UNL     1      36.079  17.049  40.218  1.00  0.00    -0.368 N 
HETATM   24  C20 UNL     1      36.327  18.288  39.616  1.00  0.00     0.073 C 
BRANCH  23  25
HETATM   25  C13 UNL     1      35.583  17.093  41.530  1.00  0.00     0.104 C 
BRANCH  25  26
HETATM   26  C14 UNL     1      34.149  16.719  41.567  1.00  0.00     0.020 A 
HETATM   27  C15 UNL     1      33.185  17.501  40.954  1.00  0.00     0.016 A 
HETATM   28  C16 UNL     1      31.821  17.279  41.167  1.00  0.00     0.003 A 
HETATM   29  C17 UNL     1      31.469  16.240  42.011  1.00  0.00     0.030 A 
HETATM   30  C18 UNL     1      32.387  15.450  42.621  1.00  0.00     0.085 A 
HETATM   31  N4  UNL     1      32.014  14.348  43.416  1.00  0.00    -0.099 NA
HETATM   32  C19 UNL     1      33.725  15.698  42.393  1.00  0.00     0.152 A 
HETATM   33  F6  UNL     1      34.668  14.892  42.975  1.00  0.00    -0.203 F 
ENDBRANCH  25  26
ENDBRANCH  23  25
ENDBRANCH  19  20
ENDBRANCH   1  19
TORSDOF 7
ENDMDL
MODEL 2
REMARK VINA RESULT: -7.384155574      0.077      1.916
REMARK  7 active torsions:
REMARK  status: ('A' for Active; 'I' for Inactive)
REMARK    1  A    between atoms: C1_4  and  C2_5 
REMARK    2  A    between atoms: C1_4  and  N2_17 
REMARK    3  A    between atoms: C2_5  and  C3_6 
REMARK    4  A    between atoms: N2_17  and  C9_19 
REMARK    5  A    between atoms: C9_19  and  C10_20 
REMARK    6  A    between atoms: N3_23  and  C13_24 
REMARK    7  A    between atoms: C13_24  and  C14_25 
ROOT
HETATM    1  N2  UNL     1      38.389  20.387  38.173  1.00  0.00    -0.359 N 
ATOM      2  H2  UNL     1      37.986  20.903  38.956  1.00  0.00     0.166 HD
ENDROOT
BRANCH   1   3
HETATM    3  C1  UNL     1      39.478  20.970  37.389  1.00  0.00     0.078 C 
HETATM    4  N1  UNL     1      39.250  21.449  36.294  1.00  0.00    -0.389 N 
ATOM      5  H12 UNL     1      40.010  21.856  35.747  1.00  0.00     0.157 HD
ATOM      6  H11 UNL     1      38.352  21.517  35.816  1.00  0.00     0.157 HD
BRANCH   3   7
HETATM    7  C2  UNL     1      40.774  20.872  38.078  1.00  0.00     0.121 C 
BRANCH   7   8
HETATM    8  C3  UNL     1      41.491  19.596  37.964  1.00  0.00     0.033 A 
HETATM    9  C4  UNL     1      41.497  18.599  38.897  1.00  0.00     0.168 A 
HETATM   10  F1  UNL     1      40.797  18.772  40.066  1.00  0.00    -0.202 F 
HETATM   11  C5  UNL     1      42.184  17.403  38.713  1.00  0.00     0.197 A 
HETATM   12  F2  UNL     1      42.199  16.407  39.636  1.00  0.00    -0.199 F 
HETATM   13  C6  UNL     1      42.902  17.161  37.555  1.00  0.00     0.199 A 
HETATM   14  F3  UNL     1      43.582  16.016  37.347  1.00  0.00    -0.199 F 
HETATM   15  C7  UNL     1      42.912  18.139  36.616  1.00  0.00     0.197 A 
HETATM   16  F4  UNL     1      43.599  17.982  35.459  1.00  0.00    -0.199 F 
HETATM   17  C8  UNL     1      42.240  19.324  36.794  1.00  0.00     0.168 A 
HETATM   18  F5  UNL     1      42.246  20.302  35.859  1.00  0.00    -0.202 F 
ENDBRANCH   7   8
ENDBRANCH   3   7
ENDBRANCH   1   3
BRANCH   1  19
HETATM   19  C9  UNL     1      37.905  19.117  37.842  1.00  0.00     0.072 C 
BRANCH  19  20
HETATM   20  C10 UNL     1      37.744  18.160  39.009  1.00  0.00     0.064 C 
HETATM   21  C11 UNL     1      37.770  16.711  38.672  1.00  0.00     0.035 C 
HETATM   22  C12 UNL     1      36.606  16.045  39.453  1.00  0.00     0.128 C 
HETATM   23  N3  UNL     1      36.103  17.057  40.174  1.00  0.00    -0.368 N 
HETATM   24  C20 UNL     1      36.356  18.312  39.611  1.00  0.00     0.073 C 
BRANCH  23  25
HETATM   25  C13 UNL     1      35.633  17.061  41.496  1.00  0.00     0.104 C 
BRANCH  25  26
HETATM   26  C14 UNL     1      34.196  16.703  41.550  1.00  0.00     0.020 A 
HETATM   27  C15 UNL     1      33.234  17.498  40.951  1.00  0.00     0.016 A 
HETATM   28  C16 UNL     1      31.870  17.290  41.179  1.00  0.00     0.003 A 
HETATM   29  C17 UNL     1      31.516  16.252  42.025  1.00  0.00     0.030 A 
HETATM   30  C18 UNL     1      32.433  15.450  42.622  1.00  0.00     0.085 A 
HETATM   31  N4  UNL     1      32.056  14.351  43.418  1.00  0.00    -0.099 NA
HETATM   32  C19 UNL     1      33.770  15.684  42.378  1.00  0.00     0.152 A 
HETATM   33  F6  UNL     1      34.711  14.866  42.946  1.00  0.00    -0.203 F 
ENDBRANCH  25  26
ENDBRANCH  23  25
ENDBRANCH  19  20
ENDBRANCH   1  19
TORSDOF 7
ENDMDL
MODEL 3
REMARK VINA RESULT: -7.222608666      2.947      4.810
REMARK  7 active torsions:
REMARK  status: ('A' for Active; 'I' for Inactive)
REMARK    1  A    between atoms: C1_4  and  C2_5 
REMARK    2  A    between atoms: C1_4  and  N2_17 
REMARK    3  A    between atoms: C2_5  and  C3_6 
REMARK    4  A    between atoms: N2_17  and  C9_19 
REMARK    5  A    between atoms: C9_19  and  C10_20 
REMARK    6  A    between atoms: N3_23  and  C13_24 
REMARK    7  A    between atoms: C13_24  and  C14_25 
ROOT
HETATM    1  N2  UNL     1      37.992  13.152  39.617  1.00  0.00    -0.359 N 
ATOM      2  H2  UNL     1      37.211  13.371  38.997  1.00  0.00     0.166 HD
ENDROOT
BRANCH   1   3
HETATM    3  C1  UNL     1      39.348  13.579  39.273  1.00  0.00     0.078 C 
HETATM    4  N1  UNL     1      40.291  13.214  39.949  1.00  0.00    -0.389 N 
ATOM      5  H12 UNL     1      41.237  13.511  39.709  1.00  0.00     0.157 HD
ATOM      6  H11 UNL     1      40.274  12.607  40.769  1.00  0.00     0.157 HD
BRANCH   3   7
HETATM    7  C2  UNL     1      39.373  14.455  38.091  1.00  0.00     0.121 C 
BRANCH   7   8
HETATM    8  C3  UNL     1      39.546  15.893  38.334  1.00  0.00     0.033 A 
HETATM    9  C4  UNL     1      38.541  16.787  38.570  1.00  0.00     0.168 A 
HETATM   10  F1  UNL     1      37.240  16.348  38.571  1.00  0.00    -0.202 F 
HETATM   11  C5  UNL     1      38.780  18.136  38.815  1.00  0.00     0.197 A 
HETATM   12  F2  UNL     1      37.788  19.034  39.046  1.00  0.00    -0.199 F 
HETATM   13  C6  UNL     1      40.067  18.643  38.836  1.00  0.00     0.199 A 
HETATM   14  F3  UNL     1      40.333  19.944  39.065  1.00  0.00    -0.199 F 
HETATM   15  C7  UNL     1      41.080  17.772  38.602  1.00  0.00     0.197 A 
HETATM   16  F4  UNL     1      42.368  18.192  38.597  1.00  0.00    -0.199 F 
HETATM   17  C8  UNL     1      40.851  16.440  38.355  1.00  0.00     0.168 A 
HETATM   18  F5  UNL     1      41.858  15.568  38.122  1.00  0.00    -0.202 F 
ENDBRANCH   7   8
ENDBRANCH   3   7
ENDBRANCH   1   3
BRANCH   1  19
HETATM   19  C9  UNL     1      37.774  12.442  40.802  1.00  0.00     0.072 C 
BRANCH  19  20
HETATM   20  C10 UNL     1      37.153  13.243  41.933  1.00  0.00     0.064 C 
HETATM   21  C11 UNL     1      36.127  12.536  42.745  1.00  0.00     0.035 C 
HETATM   22  C12 UNL     1      34.942  13.520  42.934  1.00  0.00     0.128 C 
HETATM   23  N3  UNL     1      35.377  14.640  42.339  1.00  0.00    -0.368 N 
HETATM   24  C20 UNL     1      36.349  14.401  41.361  1.00  0.00     0.073 C 
BRANCH  23  25
HETATM   25  C13 UNL     1      35.220  15.977  42.734  1.00  0.00     0.104 C 
BRANCH  25  26
HETATM   26  C14 UNL     1      34.521  16.760  41.688  1.00  0.00     0.020 A 
HETATM   27  C15 UNL     1      35.173  17.748  40.971  1.00  0.00     0.016 A 
HETATM   28  C16 UNL     1      34.475  18.633  40.145  1.00  0.00     0.003 A 
HETATM   29  C17 UNL     1      33.101  18.481  40.065  1.00  0.00     0.030 A 
HETATM   30  C18 UNL     1      32.431  17.519  40.748  1.00  0.00     0.085 A 
HETATM   31  N4  UNL     1      31.043  17.327  40.598  1.00  0.00    -0.099 NA
HETATM   32  C19 UNL     1      33.150  16.664  41.558  1.00  0.00     0.152 A 
HETATM   33  F6  UNL     1      32.496  15.666  42.231  1.00  0.00    -0.203 F 
ENDBRANCH  25  26
ENDBRANCH  23  25
ENDBRANCH  19  20
ENDBRANCH   1  19
TORSDOF 7
ENDMDL
MODEL 4
REMARK VINA RESULT: -7.211832849      3.169      5.036
REMARK  7 active torsions:
REMARK  status: ('A' for Active; 'I' for Inactive)
REMARK    1  A    between atoms: C1_4  and  C2_5 
REMARK    2  A    between atoms: C1_4  and  N2_17 
REMARK    3  A    between atoms: C2_5  and  C3_6 
REMARK    4  A    between atoms: N2_17  and  C9_19 
REMARK    5  A    between atoms: C9_19  and  C10_20 
REMARK    6  A    between atoms: N3_23  and  C13_24 
REMARK    7  A    between atoms: C13_24  and  C14_25 
ROOT
HETATM    1  N2  UNL     1      39.098  12.268  39.311  1.00  0.00    -0.359 N 
ATOM      2  H2  UNL     1      39.478  11.338  39.129  1.00  0.00     0.166 HD
ENDROOT
BRANCH   1   3
HETATM    3  C1  UNL     1      39.960  13.447  39.227  1.00  0.00     0.078 C 
HETATM    4  N1  UNL     1      40.740  13.696  40.127  1.00  0.00    -0.389 N 
ATOM      5  H12 UNL     1      41.341  14.518  40.068  1.00  0.00     0.157 HD
ATOM      6  H11 UNL     1      40.896  13.164  40.983  1.00  0.00     0.157 HD
BRANCH   3   7
HETATM    7  C2  UNL     1      39.735  14.214  37.992  1.00  0.00     0.121 C 
BRANCH   7   8
HETATM    8  C3  UNL     1      39.233  15.585  38.146  1.00  0.00     0.033 A 
HETATM    9  C4  UNL     1      39.973  16.666  38.529  1.00  0.00     0.168 A 
HETATM   10  F1  UNL     1      41.304  16.497  38.821  1.00  0.00    -0.202 F 
HETATM   11  C5  UNL     1      39.435  17.946  38.635  1.00  0.00     0.197 A 
HETATM   12  F2  UNL     1      40.162  19.026  39.018  1.00  0.00    -0.199 F 
HETATM   13  C6  UNL     1      38.103  18.188  38.347  1.00  0.00     0.199 A 
HETATM   14  F3  UNL     1      37.550  19.412  38.443  1.00  0.00    -0.199 F 
HETATM   15  C7  UNL     1      37.348  17.127  37.967  1.00  0.00     0.197 A 
HETATM   16  F4  UNL     1      36.034  17.280  37.677  1.00  0.00    -0.199 F 
HETATM   17  C8  UNL     1      37.873  15.861  37.866  1.00  0.00     0.168 A 
HETATM   18  F5  UNL     1      37.124  14.800  37.486  1.00  0.00    -0.202 F 
ENDBRANCH   7   8
ENDBRANCH   3   7
ENDBRANCH   1   3
BRANCH   1  19
HETATM   19  C9  UNL     1      37.748  12.425  39.642  1.00  0.00     0.072 C 
BRANCH  19  20
HETATM   20  C10 UNL     1      37.482  13.099  40.976  1.00  0.00     0.064 C 
HETATM   21  C11 UNL     1      36.845  12.252  42.019  1.00  0.00     0.035 C 
HETATM   22  C12 UNL     1      35.720  13.101  42.667  1.00  0.00     0.128 C 
HETATM   23  N3  UNL     1      35.843  14.288  42.057  1.00  0.00    -0.368 N 
HETATM   24  C20 UNL     1      36.447  14.199  40.798  1.00  0.00     0.073 C 
BRANCH  23  25
HETATM   25  C13 UNL     1      35.725  15.581  42.591  1.00  0.00     0.104 C 
BRANCH  25  26
HETATM   26  C14 UNL     1      34.946  16.459  41.687  1.00  0.00     0.020 A 
HETATM   27  C15 UNL     1      35.527  17.554  41.070  1.00  0.00     0.016 A 
HETATM   28  C16 UNL     1      34.756  18.506  40.396  1.00  0.00     0.003 A 
HETATM   29  C17 UNL     1      33.386  18.309  40.363  1.00  0.00     0.030 A 
HETATM   30  C18 UNL     1      32.786  17.244  40.950  1.00  0.00     0.085 A 
HETATM   31  N4  UNL     1      31.400  17.015  40.842  1.00  0.00    -0.099 NA
HETATM   32  C19 UNL     1      33.575  16.325  41.610  1.00  0.00     0.152 A 
HETATM   33  F6  UNL     1      32.991  15.224  42.182  1.00  0.00    -0.203 F 
ENDBRANCH  25  26
ENDBRANCH  23  25
ENDBRANCH  19  20
ENDBRANCH   1  19
TORSDOF 7
ENDMDL
MODEL 5
REMARK VINA RESULT: -7.207808580      2.954      4.870
REMARK  7 active torsions:
REMARK  status: ('A' for Active; 'I' for Inactive)
REMARK    1  A    between atoms: C1_4  and  C2_5 
REMARK    2  A    between atoms: C1_4  and  N2_17 
REMARK    3  A    between atoms: C2_5  and  C3_6 
REMARK    4  A    between atoms: N2_17  and  C9_19 
REMARK    5  A    between atoms: C9_19  and  C10_20 
REMARK    6  A    between atoms: N3_23  and  C13_24 
REMARK    7  A    between atoms: C13_24  and  C14_25 
ROOT
HETATM    1  N2  UNL     1      41.982  16.170  39.227  1.00  0.00    -0.359 N 
ATOM      2  H2  UNL     1      42.323  16.044  40.181  1.00  0.00     0.166 HD
ENDROOT
BRANCH   1   3
HETATM    3  C1  UNL     1      42.146  17.456  38.550  1.00  0.00     0.078 C 
HETATM    4  N1  UNL     1      42.762  17.518  37.502  1.00  0.00    -0.389 N 
ATOM      5  H12 UNL     1      42.876  18.415  37.030  1.00  0.00     0.157 HD
ATOM      6  H11 UNL     1      43.201  16.753  36.989  1.00  0.00     0.157 HD
BRANCH   3   7
HETATM    7  C2  UNL     1      41.514  18.559  39.289  1.00  0.00     0.121 C 
BRANCH   7   8
HETATM    8  C3  UNL     1      40.394  19.243  38.630  1.00  0.00     0.033 A 
HETATM    9  C4  UNL     1      39.100  18.808  38.602  1.00  0.00     0.168 A 
HETATM   10  F1  UNL     1      38.778  17.624  39.218  1.00  0.00    -0.202 F 
HETATM   11  C5  UNL     1      38.083  19.520  37.974  1.00  0.00     0.197 A 
HETATM   12  F2  UNL     1      36.794  19.095  37.938  1.00  0.00    -0.199 F 
HETATM   13  C6  UNL     1      38.336  20.725  37.342  1.00  0.00     0.199 A 
HETATM   14  F3  UNL     1      37.376  21.437  36.721  1.00  0.00    -0.199 F 
HETATM   15  C7  UNL     1      39.616  21.174  37.355  1.00  0.00     0.197 A 
HETATM   16  F4  UNL     1      39.947  22.340  36.752  1.00  0.00    -0.199 F 
HETATM   17  C8  UNL     1      40.626  20.473  37.970  1.00  0.00     0.168 A 
HETATM   18  F5  UNL     1      41.903  20.918  37.986  1.00  0.00    -0.202 F 
ENDBRANCH   7   8
ENDBRANCH   3   7
ENDBRANCH   1   3
BRANCH   1  19
HETATM   19  C9  UNL     1      41.356  15.114  38.557  1.00  0.00     0.072 C 
BRANCH  19  20
HETATM   20  C10 UNL     1      40.088  14.593  39.209  1.00  0.00     0.064 C 
HETATM   21  C11 UNL     1      40.121  13.177  39.661  1.00  0.00     0.035 C 
HETATM   22  C12 UNL     1      38.787  12.526  39.209  1.00  0.00     0.128 C 
HETATM   23  N3  UNL     1      38.119  13.549  38.657  1.00  0.00    -0.368 N 
HETATM   24  C20 UNL     1      38.960  14.565  38.189  1.00  0.00     0.073 C 
BRANCH  23  25
HETATM   25  C13 UNL     1      36.755  13.869  38.736  1.00  0.00     0.104 C 
BRANCH  25  26
HETATM   26  C14 UNL     1      36.485  14.754  39.894  1.00  0.00     0.020 A 
HETATM   27  C15 UNL     1      36.511  14.271  41.191  1.00  0.00     0.016 A 
HETATM   28  C16 UNL     1      36.048  15.036  42.265  1.00  0.00     0.003 A 
HETATM   29  C17 UNL     1      35.565  16.303  41.983  1.00  0.00     0.030 A 
HETATM   30  C18 UNL     1      35.532  16.810  40.726  1.00  0.00     0.085 A 
HETATM   31  N4  UNL     1      35.110  18.129  40.463  1.00  0.00    -0.099 NA
HETATM   32  C19 UNL     1      35.994  16.027  39.688  1.00  0.00     0.152 A 
HETATM   33  F6  UNL     1      35.999  16.533  38.414  1.00  0.00    -0.203 F 
ENDBRANCH  25  26
ENDBRANCH  23  25
ENDBRANCH  19  20
ENDBRANCH   1  19
TORSDOF 7
ENDMDL
