MODEL 1
REMARK VINA RESULT: -3.907079850      0.000      0.000
REMARK  2 active torsions:
REMARK  status: ('A' for Active; 'I' for Inactive)
REMARK    1  A    between atoms: C4_5  and  C5_6 
REMARK    2  A    between atoms: C5_6  and  N2_7 
ROOT
HETATM    1  C1  UNL     1       9.320  30.018  25.539  1.00  0.00     0.310 C 
HETATM    2  N1  UNL     1      10.400  30.656  24.831  1.00  0.00     0.090 N 
HETATM    3  C2  UNL     1      11.601  29.818  24.683  1.00  0.00     0.274 C 
HETATM    4  C3  UNL     1      12.369  31.141  24.726  1.00  0.00     0.067 C 
HETATM    5  C4  UNL     1      11.241  31.481  25.711  1.00  0.00     0.249 C 
ENDROOT
BRANCH   5   6
HETATM    6  C5  UNL     1      10.811  32.911  25.682  1.00  0.00     0.265 C 
BRANCH   6   7
HETATM    7  N2  UNL     1      10.986  33.548  26.960  1.00  0.00    -0.077 N 
ATOM      8  H23 UNL     1      11.539  32.968  27.591  1.00  0.00     0.274 HD
ATOM      9  H22 UNL     1      11.610  34.352  26.893  1.00  0.00     0.274 HD
ATOM     10  H21 UNL     1      10.093  33.805  27.380  1.00  0.00     0.274 HD
ENDBRANCH   6   7
ENDBRANCH   5   6
TORSDOF 2
ENDMDL
MODEL 2
REMARK VINA RESULT: -3.821865458      1.467      1.811
REMARK  2 active torsions:
REMARK  status: ('A' for Active; 'I' for Inactive)
REMARK    1  A    between atoms: C4_5  and  C5_6 
REMARK    2  A    between atoms: C5_6  and  N2_7 
ROOT
HETATM    1  C1  UNL     1       8.503  31.104  27.437  1.00  0.00     0.310 C 
HETATM    2  N1  UNL     1       8.810  31.271  26.039  1.00  0.00     0.090 N 
HETATM    3  C2  UNL     1       9.226  30.032  25.363  1.00  0.00     0.274 C 
HETATM    4  C3  UNL     1      10.074  30.953  24.483  1.00  0.00     0.067 C 
HETATM    5  C4  UNL     1      10.196  31.707  25.815  1.00  0.00     0.249 C 
ENDROOT
BRANCH   5   6
HETATM    6  C5  UNL     1      10.277  33.192  25.675  1.00  0.00     0.265 C 
BRANCH   6   7
HETATM    7  N2  UNL     1      11.028  33.789  26.747  1.00  0.00    -0.077 N 
ATOM      8  H23 UNL     1      10.718  33.444  27.655  1.00  0.00     0.274 HD
ATOM      9  H22 UNL     1      11.989  33.445  26.764  1.00  0.00     0.274 HD
ATOM     10  H21 UNL     1      11.000  34.808  26.707  1.00  0.00     0.274 HD
ENDBRANCH   6   7
ENDBRANCH   5   6
TORSDOF 2
ENDMDL
MODEL 3
REMARK VINA RESULT: -3.788880572      1.187      1.721
REMARK  2 active torsions:
REMARK  status: ('A' for Active; 'I' for Inactive)
REMARK    1  A    between atoms: C4_5  and  C5_6 
REMARK    2  A    between atoms: C5_6  and  N2_7 
ROOT
HETATM    1  C1  UNL     1      12.250  29.996  25.634  1.00  0.00     0.310 C 
HETATM    2  N1  UNL     1      10.900  30.365  25.293  1.00  0.00     0.090 N 
HETATM    3  C2  UNL     1      10.589  30.250  23.859  1.00  0.00     0.274 C 
HETATM    4  C3  UNL     1       9.626  31.413  24.110  1.00  0.00     0.067 C 
HETATM    5  C4  UNL     1      10.748  31.812  25.079  1.00  0.00     0.249 C 
ENDROOT
BRANCH   5   6
HETATM    6  C5  UNL     1      10.274  32.494  26.320  1.00  0.00     0.265 C 
BRANCH   6   7
HETATM    7  N2  UNL     1      11.100  33.622  26.659  1.00  0.00    -0.077 N 
ATOM      8  H23 UNL     1      12.089  33.413  26.523  1.00  0.00     0.274 HD
ATOM      9  H22 UNL     1      11.000  34.374  25.976  1.00  0.00     0.274 HD
ATOM     10  H21 UNL     1      10.918  33.954  27.606  1.00  0.00     0.274 HD
ENDBRANCH   6   7
ENDBRANCH   5   6
TORSDOF 2
ENDMDL
MODEL 4
REMARK VINA RESULT: -3.729690032      1.565      2.326
REMARK  2 active torsions:
REMARK  status: ('A' for Active; 'I' for Inactive)
REMARK    1  A    between atoms: C4_5  and  C5_6 
REMARK    2  A    between atoms: C5_6  and  N2_7 
ROOT
HETATM    1  C1  UNL     1      11.489  31.133  25.696  1.00  0.00     0.310 C 
HETATM    2  N1  UNL     1      10.108  31.490  25.497  1.00  0.00     0.090 N 
HETATM    3  C2  UNL     1       9.652  31.375  24.103  1.00  0.00     0.274 C 
HETATM    4  C3  UNL     1       8.710  32.529  24.455  1.00  0.00     0.067 C 
HETATM    5  C4  UNL     1       9.923  32.936  25.304  1.00  0.00     0.249 C 
ENDROOT
BRANCH   5   6
HETATM    6  C5  UNL     1       9.573  33.612  26.589  1.00  0.00     0.265 C 
BRANCH   6   7
HETATM    7  N2  UNL     1      10.392  34.772  26.822  1.00  0.00    -0.077 N 
ATOM      8  H23 UNL     1      10.422  35.011  27.813  1.00  0.00     0.274 HD
ATOM      9  H22 UNL     1      11.381  34.564  26.677  1.00  0.00     0.274 HD
ATOM     10  H21 UNL     1      10.093  35.566  26.258  1.00  0.00     0.274 HD
ENDBRANCH   6   7
ENDBRANCH   5   6
TORSDOF 2
ENDMDL
MODEL 5
REMARK VINA RESULT: -3.717432163      4.268      5.705
REMARK  2 active torsions:
REMARK  status: ('A' for Active; 'I' for Inactive)
REMARK    1  A    between atoms: C4_5  and  C5_6 
REMARK    2  A    between atoms: C5_6  and  N2_7 
ROOT
HETATM    1  C1  UNL     1       7.686  35.606  25.125  1.00  0.00     0.310 C 
HETATM    2  N1  UNL     1       8.117  36.163  26.382  1.00  0.00     0.090 N 
HETATM    3  C2  UNL     1       8.535  37.572  26.303  1.00  0.00     0.274 C 
HETATM    4  C3  UNL     1       9.494  37.213  27.441  1.00  0.00     0.067 C 
HETATM    5  C4  UNL     1       9.535  35.891  26.662  1.00  0.00     0.249 C 
ENDROOT
BRANCH   5   6
HETATM    6  C5  UNL     1       9.692  34.678  27.518  1.00  0.00     0.265 C 
BRANCH   6   7
HETATM    7  N2  UNL     1      10.764  33.835  27.059  1.00  0.00    -0.077 N 
ATOM      8  H23 UNL     1      11.520  34.385  26.650  1.00  0.00     0.274 HD
ATOM      9  H22 UNL     1      11.273  33.422  27.841  1.00  0.00     0.274 HD
ATOM     10  H21 UNL     1      10.434  33.120  26.412  1.00  0.00     0.274 HD
ENDBRANCH   6   7
ENDBRANCH   5   6
TORSDOF 2
ENDMDL
