MODEL 1
REMARK VINA RESULT: -4.629288542      0.000      0.000
REMARK  2 active torsions:
REMARK  status: ('A' for Active; 'I' for Inactive)
REMARK    1  A    between atoms: N1_1  and  C1_5 
REMARK    2  A    between atoms: C1_5  and  C2_6 
ROOT
HETATM    1  C2  UNL     1       8.855  32.924  25.866  1.00  0.00     0.281 A 
HETATM    2  C3  UNL     1       8.951  32.114  24.736  1.00  0.00     0.258 A 
HETATM    3  C4  UNL     1      10.098  31.283  24.226  1.00  0.00     0.040 C 
HETATM    4  C5  UNL     1       9.625  29.921  24.776  1.00  0.00     0.032 C 
HETATM    5  C6  UNL     1       8.890  30.366  26.053  1.00  0.00     0.273 C 
HETATM    6  N2  UNL     1       9.253  31.679  26.195  1.00  0.00     0.103 N 
ENDROOT
BRANCH   1   7
HETATM    7  C1  UNL     1       9.851  34.070  26.129  1.00  0.00     0.267 C 
BRANCH   7   8
HETATM    8  N1  UNL     1      11.005  33.562  26.873  1.00  0.00    -0.077 N 
ATOM      9  H13 UNL     1      10.941  33.769  27.870  1.00  0.00     0.274 HD
ATOM     10  H12 UNL     1      11.004  32.544  26.934  1.00  0.00     0.274 HD
ATOM     11  H11 UNL     1      11.866  33.921  26.461  1.00  0.00     0.274 HD
ENDBRANCH   7   8
ENDBRANCH   1   7
TORSDOF 2
ENDMDL
MODEL 2
REMARK VINA RESULT: -4.529911455      1.697      2.263
REMARK  2 active torsions:
REMARK  status: ('A' for Active; 'I' for Inactive)
REMARK    1  A    between atoms: N1_1  and  C1_5 
REMARK    2  A    between atoms: C1_5  and  C2_6 
ROOT
HETATM    1  C2  UNL     1       9.006  34.212  26.523  1.00  0.00     0.281 A 
HETATM    2  C3  UNL     1       8.399  33.158  25.843  1.00  0.00     0.258 A 
HETATM    3  C4  UNL     1       8.287  32.886  24.366  1.00  0.00     0.040 C 
HETATM    4  C5  UNL     1       9.448  31.875  24.255  1.00  0.00     0.032 C 
HETATM    5  C6  UNL     1      10.393  32.401  25.348  1.00  0.00     0.273 C 
HETATM    6  N2  UNL     1       9.869  33.626  25.670  1.00  0.00     0.103 N 
ENDROOT
BRANCH   1   7
HETATM    7  C1  UNL     1       8.632  35.681  26.244  1.00  0.00     0.267 C 
BRANCH   7   8
HETATM    8  N1  UNL     1       9.669  36.565  26.778  1.00  0.00    -0.077 N 
ATOM      9  H13 UNL     1       9.932  37.294  26.115  1.00  0.00     0.274 HD
ATOM     10  H12 UNL     1       9.316  37.164  27.523  1.00  0.00     0.274 HD
ATOM     11  H11 UNL     1      10.472  36.012  27.078  1.00  0.00     0.274 HD
ENDBRANCH   7   8
ENDBRANCH   1   7
TORSDOF 2
ENDMDL
MODEL 3
REMARK VINA RESULT: -4.525455044      2.381      3.368
REMARK  2 active torsions:
REMARK  status: ('A' for Active; 'I' for Inactive)
REMARK    1  A    between atoms: N1_1  and  C1_5 
REMARK    2  A    between atoms: C1_5  and  C2_6 
ROOT
HETATM    1  C2  UNL     1       9.658  30.167  24.652  1.00  0.00     0.281 A 
HETATM    2  C3  UNL     1      10.609  31.173  24.490  1.00  0.00     0.258 A 
HETATM    3  C4  UNL     1      11.874  31.452  25.258  1.00  0.00     0.040 C 
HETATM    4  C5  UNL     1      12.862  30.793  24.273  1.00  0.00     0.032 C 
HETATM    5  C6  UNL     1      11.987  29.665  23.699  1.00  0.00     0.273 C 
HETATM    6  N2  UNL     1      10.896  29.647  24.527  1.00  0.00     0.103 N 
ENDROOT
BRANCH   1   7
HETATM    7  C1  UNL     1       8.936  29.942  25.995  1.00  0.00     0.267 C 
BRANCH   7   8
HETATM    8  N1  UNL     1       7.779  30.834  26.090  1.00  0.00    -0.077 N 
ATOM      9  H13 UNL     1       7.449  31.134  25.173  1.00  0.00     0.274 HD
ATOM     10  H12 UNL     1       6.940  30.342  26.394  1.00  0.00     0.274 HD
ATOM     11  H11 UNL     1       8.002  31.624  26.695  1.00  0.00     0.274 HD
ENDBRANCH   7   8
ENDBRANCH   1   7
TORSDOF 2
ENDMDL
MODEL 4
REMARK VINA RESULT: -4.503022184      2.137      2.154
REMARK  2 active torsions:
REMARK  status: ('A' for Active; 'I' for Inactive)
REMARK    1  A    between atoms: N1_1  and  C1_5 
REMARK    2  A    between atoms: C1_5  and  C2_6 
ROOT
HETATM    1  C2  UNL     1       7.594  33.597  25.202  1.00  0.00     0.281 A 
HETATM    2  C3  UNL     1       8.326  32.691  24.436  1.00  0.00     0.258 A 
HETATM    3  C4  UNL     1       9.717  32.148  24.633  1.00  0.00     0.040 C 
HETATM    4  C5  UNL     1       9.322  30.803  25.277  1.00  0.00     0.032 C 
HETATM    5  C6  UNL     1       8.035  31.204  26.017  1.00  0.00     0.273 C 
HETATM    6  N2  UNL     1       8.039  32.573  25.957  1.00  0.00     0.103 N 
ENDROOT
BRANCH   1   7
HETATM    7  C1  UNL     1       8.135  35.001  25.535  1.00  0.00     0.267 C 
BRANCH   7   8
HETATM    8  N1  UNL     1       7.274  36.019  24.932  1.00  0.00    -0.077 N 
ATOM      9  H13 UNL     1       6.630  35.621  24.247  1.00  0.00     0.274 HD
ATOM     10  H12 UNL     1       6.584  36.378  25.591  1.00  0.00     0.274 HD
ATOM     11  H11 UNL     1       7.846  36.762  24.533  1.00  0.00     0.274 HD
ENDBRANCH   7   8
ENDBRANCH   1   7
TORSDOF 2
ENDMDL
MODEL 5
REMARK VINA RESULT: -4.490756882      1.997      2.427
REMARK  2 active torsions:
REMARK  status: ('A' for Active; 'I' for Inactive)
REMARK    1  A    between atoms: N1_1  and  C1_5 
REMARK    2  A    between atoms: C1_5  and  C2_6 
ROOT
HETATM    1  C2  UNL     1      11.215  31.750  25.923  1.00  0.00     0.281 A 
HETATM    2  C3  UNL     1      10.680  30.619  25.310  1.00  0.00     0.258 A 
HETATM    3  C4  UNL     1      10.369  30.349  23.862  1.00  0.00     0.040 C 
HETATM    4  C5  UNL     1      11.642  29.545  23.524  1.00  0.00     0.032 C 
HETATM    5  C6  UNL     1      12.660  30.208  24.468  1.00  0.00     0.273 C 
HETATM    6  N2  UNL     1      12.006  31.325  24.918  1.00  0.00     0.103 N 
ENDROOT
BRANCH   1   7
HETATM    7  C1  UNL     1      10.568  33.140  25.765  1.00  0.00     0.267 C 
BRANCH   7   8
HETATM    8  N1  UNL     1      10.793  33.931  26.976  1.00  0.00    -0.077 N 
ATOM      9  H13 UNL     1      10.452  34.887  26.880  1.00  0.00     0.274 HD
ATOM     10  H12 UNL     1      10.191  33.637  27.744  1.00  0.00     0.274 HD
ATOM     11  H11 UNL     1      11.781  33.900  27.229  1.00  0.00     0.274 HD
ENDBRANCH   7   8
ENDBRANCH   1   7
TORSDOF 2
ENDMDL
