MODEL 1
REMARK VINA RESULT: -7.929320740      0.000      0.000
REMARK  11 active torsions:
REMARK  status: ('A' for Active; 'I' for Inactive)
REMARK    1  A    between atoms: C1_2  and  C2_3 
REMARK       I    between atoms: C1_2  and  N1_15 
REMARK    2  A    between atoms: C2_3  and  C3_4 
REMARK    3  A    between atoms: C3_4  and  C4_5 
REMARK    4  A    between atoms: C4_5  and  C5_6 
REMARK    5  A    between atoms: C5_6  and  C6_7 
REMARK    6  A    between atoms: N1_15  and  C12_17 
REMARK    7  A    between atoms: C12_17  and  C13_18 
REMARK    8  A    between atoms: C13_18  and  C14_19 
REMARK    9  A    between atoms: C14_19  and  N2_20 
REMARK   10  A    between atoms: C17_23  and  C18_24 
REMARK   11  A    between atoms: C25_36  and  O3_37 
ROOT
HETATM    1  C12 UNL     1      -1.020  35.391  65.200  1.00  0.00     0.036 C 
HETATM    2  C23 UNL     1      -2.036  34.931  66.189  1.00  0.00     0.033 C 
HETATM    3  C24 UNL     1      -3.123  34.181  65.413  1.00  0.00     0.034 C 
HETATM    4  C25 UNL     1      -3.101  34.868  64.088  1.00  0.00     0.120 C 
HETATM    5  C26 UNL     1      -1.654  35.235  63.837  1.00  0.00     0.062 C 
ENDROOT
BRANCH   1   6
HETATM    6  N1  UNL     1       0.107  34.457  65.223  1.00  0.00    -0.352 N 
HETATM    7  C1  UNL     1       0.792  34.074  66.397  1.00  0.00     0.218 C 
HETATM    8  O1  UNL     1       0.505  34.501  67.544  1.00  0.00    -0.274 OA
ATOM      9  H1  UNL     1       0.416  34.059  64.337  1.00  0.00     0.163 HD
BRANCH   7  10
HETATM   10  C2  UNL     1       1.942  33.101  66.339  1.00  0.00     0.103 C 
BRANCH  10  11
HETATM   11  C3  UNL     1       2.367  32.836  64.934  1.00  0.00     0.009 C 
BRANCH  11  12
HETATM   12  C4  UNL     1       2.022  31.417  64.573  1.00  0.00     0.001 C 
BRANCH  12  13
HETATM   13  C5  UNL     1       1.021  31.347  63.433  1.00  0.00     0.005 C 
BRANCH  13  14
HETATM   14  C6  UNL     1      -0.107  30.418  63.762  1.00  0.00    -0.014 C 
HETATM   15  C7  UNL     1      -1.242  31.228  64.379  1.00  0.00     0.010 C 
HETATM   16  C8  UNL     1      -2.408  30.370  64.760  1.00  0.00     0.079 C 
HETATM   17  C9  UNL     1      -2.042  29.141  65.522  1.00  0.00     0.243 C 
HETATM   18  F1  UNL     1      -1.853  29.366  66.872  1.00  0.00    -0.206 F 
HETATM   19  F2  UNL     1      -3.122  28.253  65.418  1.00  0.00    -0.206 F 
HETATM   20  C10 UNL     1      -0.837  28.424  64.969  1.00  0.00     0.079 C 
HETATM   21  C11 UNL     1       0.317  29.426  64.836  1.00  0.00     0.010 C 
ENDBRANCH  13  14
ENDBRANCH  12  13
ENDBRANCH  11  12
ENDBRANCH  10  11
ENDBRANCH   7  10
ENDBRANCH   1   6
BRANCH   1  22
HETATM   22  C13 UNL     1      -0.570  36.779  65.476  1.00  0.00     0.051 C 
BRANCH  22  23
HETATM   23  C14 UNL     1      -1.625  37.766  65.826  1.00  0.00     0.129 C 
BRANCH  23  24
HETATM   24  N2  UNL     1      -1.310  38.430  67.080  1.00  0.00    -0.374 N 
HETATM   25  C15 UNL     1      -0.226  37.864  67.776  1.00  0.00     0.064 C 
HETATM   26  C16 UNL     1      -0.300  38.129  69.246  1.00  0.00     0.056 C 
HETATM   27  C17 UNL     1      -1.564  37.599  69.847  1.00  0.00     0.046 C 
HETATM   28  C21 UNL     1      -2.770  37.901  68.999  1.00  0.00     0.056 C 
HETATM   29  C22 UNL     1      -2.416  38.820  67.851  1.00  0.00     0.064 C 
BRANCH  27  30
HETATM   30  C18 UNL     1      -1.454  36.135  69.999  1.00  0.00     0.036 A 
HETATM   31  C19 UNL     1      -2.385  35.160  69.681  1.00  0.00     0.102 A 
HETATM   32  C20 UNL     1      -1.810  33.950  69.982  1.00  0.00     0.261 A 
HETATM   33  O2  UNL     1      -2.357  32.813  69.828  1.00  0.00    -0.267 OA
HETATM   34  N3  UNL     1      -0.580  34.170  70.464  1.00  0.00    -0.266 N 
HETATM   35  N4  UNL     1      -0.375  35.493  70.470  1.00  0.00    -0.301 N 
ATOM     36  H3  UNL     1       0.082  33.458  70.773  1.00  0.00     0.190 HD
ATOM     37  H4  UNL     1       0.481  35.949  70.787  1.00  0.00     0.186 HD
ENDBRANCH  27  30
ENDBRANCH  23  24
ENDBRANCH  22  23
ENDBRANCH   1  22
BRANCH   4  38
HETATM   38  O3  UNL     1      -3.548  34.018  63.056  1.00  0.00    -0.395 OA
ATOM     39  H3  UNL     1      -3.164  34.252  62.219  1.00  0.00     0.210 HD
ENDBRANCH   4  38
TORSDOF 11
ENDMDL
MODEL 2
REMARK VINA RESULT: -7.876345905      3.829      7.798
REMARK  11 active torsions:
REMARK  status: ('A' for Active; 'I' for Inactive)
REMARK    1  A    between atoms: C1_2  and  C2_3 
REMARK       I    between atoms: C1_2  and  N1_15 
REMARK    2  A    between atoms: C2_3  and  C3_4 
REMARK    3  A    between atoms: C3_4  and  C4_5 
REMARK    4  A    between atoms: C4_5  and  C5_6 
REMARK    5  A    between atoms: C5_6  and  C6_7 
REMARK    6  A    between atoms: N1_15  and  C12_17 
REMARK    7  A    between atoms: C12_17  and  C13_18 
REMARK    8  A    between atoms: C13_18  and  C14_19 
REMARK    9  A    between atoms: C14_19  and  N2_20 
REMARK   10  A    between atoms: C17_23  and  C18_24 
REMARK   11  A    between atoms: C25_36  and  O3_37 
ROOT
HETATM    1  C12 UNL     1      -1.125  31.377  65.246  1.00  0.00     0.036 C 
HETATM    2  C23 UNL     1      -1.277  30.951  63.825  1.00  0.00     0.033 C 
HETATM    3  C24 UNL     1      -2.234  29.756  63.807  1.00  0.00     0.034 C 
HETATM    4  C25 UNL     1      -1.974  29.118  65.131  1.00  0.00     0.120 C 
HETATM    5  C26 UNL     1      -1.687  30.255  66.088  1.00  0.00     0.062 C 
ENDROOT
BRANCH   1   6
HETATM    6  N1  UNL     1      -1.999  32.527  65.482  1.00  0.00    -0.352 N 
HETATM    7  C1  UNL     1      -2.132  33.616  64.592  1.00  0.00     0.218 C 
HETATM    8  O1  UNL     1      -1.506  33.710  63.505  1.00  0.00    -0.274 OA
ATOM      9  H1  UNL     1      -2.547  32.543  66.342  1.00  0.00     0.163 HD
BRANCH   7  10
HETATM   10  C2  UNL     1      -3.059  34.762  64.905  1.00  0.00     0.103 C 
BRANCH  10  11
HETATM   11  C3  UNL     1      -2.797  35.327  66.260  1.00  0.00     0.009 C 
BRANCH  11  12
HETATM   12  C4  UNL     1      -3.845  36.359  66.576  1.00  0.00     0.001 C 
BRANCH  12  13
HETATM   13  C5  UNL     1      -3.803  36.784  68.033  1.00  0.00     0.005 C 
BRANCH  13  14
HETATM   14  C6  UNL     1      -3.352  38.206  68.168  1.00  0.00    -0.014 C 
HETATM   15  C7  UNL     1      -3.688  38.948  66.879  1.00  0.00     0.010 C 
HETATM   16  C8  UNL     1      -3.250  40.378  66.919  1.00  0.00     0.079 C 
HETATM   17  C9  UNL     1      -1.852  40.579  67.399  1.00  0.00     0.243 C 
HETATM   18  F1  UNL     1      -0.899  40.385  66.418  1.00  0.00    -0.206 F 
HETATM   19  F2  UNL     1      -1.740  41.918  67.799  1.00  0.00    -0.206 F 
HETATM   20  C10 UNL     1      -1.501  39.739  68.600  1.00  0.00     0.079 C 
HETATM   21  C11 UNL     1      -1.837  38.274  68.295  1.00  0.00     0.010 C 
ENDBRANCH  13  14
ENDBRANCH  12  13
ENDBRANCH  11  12
ENDBRANCH  10  11
ENDBRANCH   7  10
ENDBRANCH   1   6
BRANCH   1  22
HETATM   22  C13 UNL     1       0.286  31.701  65.577  1.00  0.00     0.051 C 
BRANCH  22  23
HETATM   23  C14 UNL     1       1.304  31.395  64.537  1.00  0.00     0.129 C 
BRANCH  23  24
HETATM   24  N2  UNL     1       2.395  32.353  64.590  1.00  0.00    -0.374 N 
HETATM   25  C15 UNL     1       2.147  33.466  65.416  1.00  0.00     0.064 C 
HETATM   26  C16 UNL     1       2.945  34.662  65.004  1.00  0.00     0.056 C 
HETATM   27  C17 UNL     1       2.664  35.062  63.591  1.00  0.00     0.046 C 
HETATM   28  C21 UNL     1       2.608  33.880  62.661  1.00  0.00     0.056 C 
HETATM   29  C22 UNL     1       3.032  32.611  63.366  1.00  0.00     0.064 C 
BRANCH  27  30
HETATM   30  C18 UNL     1       1.367  35.763  63.532  1.00  0.00     0.036 A 
HETATM   31  C19 UNL     1       0.852  36.707  64.406  1.00  0.00     0.102 A 
HETATM   32  C20 UNL     1      -0.374  37.078  63.912  1.00  0.00     0.261 A 
HETATM   33  O2  UNL     1      -1.157  37.928  64.440  1.00  0.00    -0.267 OA
HETATM   34  N3  UNL     1      -0.605  36.392  62.785  1.00  0.00    -0.266 N 
HETATM   35  N4  UNL     1       0.453  35.602  62.564  1.00  0.00    -0.301 N 
ATOM     36  H3  UNL     1      -1.438  36.460  62.200  1.00  0.00     0.190 HD
ATOM     37  H4  UNL     1       0.550  34.967  61.772  1.00  0.00     0.186 HD
ENDBRANCH  27  30
ENDBRANCH  23  24
ENDBRANCH  22  23
ENDBRANCH   1  22
BRANCH   4  38
HETATM   38  O3  UNL     1      -3.098  28.401  65.591  1.00  0.00    -0.395 OA
ATOM     39  H3  UNL     1      -3.871  28.952  65.633  1.00  0.00     0.210 HD
ENDBRANCH   4  38
TORSDOF 11
ENDMDL
MODEL 3
REMARK VINA RESULT: -7.871432588      2.430      5.624
REMARK  11 active torsions:
REMARK  status: ('A' for Active; 'I' for Inactive)
REMARK    1  A    between atoms: C1_2  and  C2_3 
REMARK       I    between atoms: C1_2  and  N1_15 
REMARK    2  A    between atoms: C2_3  and  C3_4 
REMARK    3  A    between atoms: C3_4  and  C4_5 
REMARK    4  A    between atoms: C4_5  and  C5_6 
REMARK    5  A    between atoms: C5_6  and  C6_7 
REMARK    6  A    between atoms: N1_15  and  C12_17 
REMARK    7  A    between atoms: C12_17  and  C13_18 
REMARK    8  A    between atoms: C13_18  and  C14_19 
REMARK    9  A    between atoms: C14_19  and  N2_20 
REMARK   10  A    between atoms: C17_23  and  C18_24 
REMARK   11  A    between atoms: C25_36  and  O3_37 
ROOT
HETATM    1  C12 UNL     1       1.384  35.404  69.090  1.00  0.00     0.036 C 
HETATM    2  C23 UNL     1       1.472  35.069  70.540  1.00  0.00     0.033 C 
HETATM    3  C24 UNL     1       0.704  36.150  71.306  1.00  0.00     0.034 C 
HETATM    4  C25 UNL     1       0.884  37.348  70.435  1.00  0.00     0.120 C 
HETATM    5  C26 UNL     1       0.885  36.829  69.013  1.00  0.00     0.062 C 
ENDROOT
BRANCH   1   6
HETATM    6  N1  UNL     1       0.333  34.583  68.487  1.00  0.00    -0.352 N 
HETATM    7  C1  UNL     1       0.328  33.170  68.501  1.00  0.00     0.218 C 
HETATM    8  O1  UNL     1       1.230  32.474  69.031  1.00  0.00    -0.274 OA
ATOM      9  H1  UNL     1      -0.443  35.060  68.028  1.00  0.00     0.163 HD
BRANCH   7  10
HETATM   10  C2  UNL     1      -0.796  32.395  67.861  1.00  0.00     0.103 C 
BRANCH  10  11
HETATM   11  C3  UNL     1      -1.645  33.268  67.001  1.00  0.00     0.009 C 
BRANCH  11  12
HETATM   12  C4  UNL     1      -2.724  32.435  66.365  1.00  0.00     0.001 C 
BRANCH  12  13
HETATM   13  C5  UNL     1      -2.556  32.340  64.859  1.00  0.00     0.005 C 
BRANCH  13  14
HETATM   14  C6  UNL     1      -2.020  31.000  64.459  1.00  0.00    -0.014 C 
HETATM   15  C7  UNL     1      -2.427  29.977  65.515  1.00  0.00     0.010 C 
HETATM   16  C8  UNL     1      -1.912  28.607  65.204  1.00  0.00     0.079 C 
HETATM   17  C9  UNL     1      -0.468  28.564  64.830  1.00  0.00     0.243 C 
HETATM   18  F1  UNL     1       0.383  28.565  65.917  1.00  0.00    -0.206 F 
HETATM   19  F2  UNL     1      -0.250  27.353  64.159  1.00  0.00    -0.206 F 
HETATM   20  C10 UNL     1      -0.058  29.664  63.883  1.00  0.00     0.079 C 
HETATM   21  C11 UNL     1      -0.498  31.011  64.469  1.00  0.00     0.010 C 
ENDBRANCH  13  14
ENDBRANCH  12  13
ENDBRANCH  11  12
ENDBRANCH  10  11
ENDBRANCH   7  10
ENDBRANCH   1   6
BRANCH   1  22
HETATM   22  C13 UNL     1       2.682  35.205  68.397  1.00  0.00     0.051 C 
BRANCH  22  23
HETATM   23  C14 UNL     1       2.928  36.034  67.187  1.00  0.00     0.129 C 
BRANCH  23  24
HETATM   24  N2  UNL     1       3.505  35.229  66.124  1.00  0.00    -0.374 N 
HETATM   25  C15 UNL     1       3.485  35.843  64.858  1.00  0.00     0.064 C 
HETATM   26  C16 UNL     1       3.499  34.843  63.746  1.00  0.00     0.056 C 
HETATM   27  C17 UNL     1       2.337  33.905  63.823  1.00  0.00     0.046 C 
HETATM   28  C21 UNL     1       2.087  33.418  65.225  1.00  0.00     0.056 C 
HETATM   29  C22 UNL     1       3.189  33.862  66.162  1.00  0.00     0.064 C 
BRANCH  27  30
HETATM   30  C18 UNL     1       1.122  34.593  63.345  1.00  0.00     0.036 A 
HETATM   31  C19 UNL     1      -0.103  34.728  63.978  1.00  0.00     0.102 A 
HETATM   32  C20 UNL     1      -0.901  35.471  63.143  1.00  0.00     0.261 A 
HETATM   33  O2  UNL     1      -2.104  35.807  63.376  1.00  0.00    -0.267 OA
HETATM   34  N3  UNL     1      -0.199  35.778  62.044  1.00  0.00    -0.266 N 
HETATM   35  N4  UNL     1       1.021  35.244  62.177  1.00  0.00    -0.301 N 
ATOM     36  H3  UNL     1      -0.535  36.322  61.249  1.00  0.00     0.190 HD
ATOM     37  H4  UNL     1       1.769  35.322  61.486  1.00  0.00     0.186 HD
ENDBRANCH  27  30
ENDBRANCH  23  24
ENDBRANCH  22  23
ENDBRANCH   1  22
BRANCH   4  38
HETATM   38  O3  UNL     1      -0.176  38.265  70.590  1.00  0.00    -0.395 OA
ATOM     39  H3  UNL     1      -0.386  38.698  69.770  1.00  0.00     0.210 HD
ENDBRANCH   4  38
TORSDOF 11
ENDMDL
MODEL 4
REMARK VINA RESULT: -7.862300727      2.787      4.575
REMARK  11 active torsions:
REMARK  status: ('A' for Active; 'I' for Inactive)
REMARK    1  A    between atoms: C1_2  and  C2_3 
REMARK       I    between atoms: C1_2  and  N1_15 
REMARK    2  A    between atoms: C2_3  and  C3_4 
REMARK    3  A    between atoms: C3_4  and  C4_5 
REMARK    4  A    between atoms: C4_5  and  C5_6 
REMARK    5  A    between atoms: C5_6  and  C6_7 
REMARK    6  A    between atoms: N1_15  and  C12_17 
REMARK    7  A    between atoms: C12_17  and  C13_18 
REMARK    8  A    between atoms: C13_18  and  C14_19 
REMARK    9  A    between atoms: C14_19  and  N2_20 
REMARK   10  A    between atoms: C17_23  and  C18_24 
REMARK   11  A    between atoms: C25_36  and  O3_37 
ROOT
HETATM    1  C12 UNL     1      -1.638  34.118  67.759  1.00  0.00     0.036 C 
HETATM    2  C23 UNL     1      -1.052  34.738  68.982  1.00  0.00     0.033 C 
HETATM    3  C24 UNL     1      -2.216  35.136  69.894  1.00  0.00     0.034 C 
HETATM    4  C25 UNL     1      -3.303  35.433  68.915  1.00  0.00     0.120 C 
HETATM    5  C26 UNL     1      -3.111  34.455  67.775  1.00  0.00     0.062 C 
ENDROOT
BRANCH   1   6
HETATM    6  N1  UNL     1      -1.562  32.662  67.895  1.00  0.00    -0.352 N 
HETATM    7  C1  UNL     1      -0.358  31.946  68.075  1.00  0.00     0.218 C 
HETATM    8  O1  UNL     1       0.775  32.488  68.132  1.00  0.00    -0.274 OA
ATOM      9  H1  UNL     1      -2.433  32.133  67.858  1.00  0.00     0.163 HD
BRANCH   7  10
HETATM   10  C2  UNL     1      -0.364  30.445  68.213  1.00  0.00     0.103 C 
BRANCH  10  11
HETATM   11  C3  UNL     1       0.290  29.783  67.048  1.00  0.00     0.009 C 
BRANCH  11  12
HETATM   12  C4  UNL     1      -0.757  29.432  66.027  1.00  0.00     0.001 C 
BRANCH  12  13
HETATM   13  C5  UNL     1      -0.448  30.032  64.666  1.00  0.00     0.005 C 
BRANCH  13  14
HETATM   14  C6  UNL     1      -1.106  31.368  64.504  1.00  0.00    -0.014 C 
HETATM   15  C7  UNL     1      -2.598  31.214  64.781  1.00  0.00     0.010 C 
HETATM   16  C8  UNL     1      -3.339  32.503  64.619  1.00  0.00     0.079 C 
HETATM   17  C9  UNL     1      -3.019  33.243  63.363  1.00  0.00     0.243 C 
HETATM   18  F1  UNL     1      -3.713  32.784  62.261  1.00  0.00    -0.206 F 
HETATM   19  F2  UNL     1      -3.417  34.574  63.553  1.00  0.00    -0.206 F 
HETATM   20  C10 UNL     1      -1.546  33.274  63.041  1.00  0.00     0.079 C 
HETATM   21  C11 UNL     1      -1.006  31.839  63.060  1.00  0.00     0.010 C 
ENDBRANCH  13  14
ENDBRANCH  12  13
ENDBRANCH  11  12
ENDBRANCH  10  11
ENDBRANCH   7  10
ENDBRANCH   1   6
BRANCH   1  22
HETATM   22  C13 UNL     1      -0.951  34.576  66.524  1.00  0.00     0.051 C 
BRANCH  22  23
HETATM   23  C14 UNL     1      -0.211  35.863  66.609  1.00  0.00     0.129 C 
BRANCH  23  24
HETATM   24  N2  UNL     1      -0.652  36.776  65.568  1.00  0.00    -0.374 N 
HETATM   25  C15 UNL     1       0.124  37.945  65.458  1.00  0.00     0.064 C 
HETATM   26  C16 UNL     1      -0.647  39.080  64.863  1.00  0.00     0.056 C 
HETATM   27  C17 UNL     1      -1.867  39.407  65.663  1.00  0.00     0.046 C 
HETATM   28  C21 UNL     1      -2.617  38.175  66.094  1.00  0.00     0.056 C 
HETATM   29  C22 UNL     1      -2.041  36.933  65.451  1.00  0.00     0.064 C 
BRANCH  27  30
HETATM   30  C18 UNL     1      -1.471  40.158  66.871  1.00  0.00     0.036 A 
HETATM   31  C19 UNL     1      -2.149  41.177  67.519  1.00  0.00     0.102 A 
HETATM   32  C20 UNL     1      -1.387  41.534  68.604  1.00  0.00     0.261 A 
HETATM   33  O2  UNL     1      -1.679  42.439  69.446  1.00  0.00    -0.267 OA
HETATM   34  N3  UNL     1      -0.287  40.770  68.622  1.00  0.00    -0.266 N 
HETATM   35  N4  UNL     1      -0.348  39.942  67.572  1.00  0.00    -0.301 N 
ATOM     36  H3  UNL     1       0.463  40.812  69.312  1.00  0.00     0.190 HD
ATOM     37  H4  UNL     1       0.360  39.246  67.337  1.00  0.00     0.186 HD
ENDBRANCH  27  30
ENDBRANCH  23  24
ENDBRANCH  22  23
ENDBRANCH   1  22
BRANCH   4  38
HETATM   38  O3  UNL     1      -4.579  35.237  69.482  1.00  0.00    -0.395 OA
ATOM     39  H3  UNL     1      -5.255  35.676  68.980  1.00  0.00     0.210 HD
ENDBRANCH   4  38
TORSDOF 11
ENDMDL
MODEL 5
REMARK VINA RESULT: -7.826928249      2.127      4.589
REMARK  11 active torsions:
REMARK  status: ('A' for Active; 'I' for Inactive)
REMARK    1  A    between atoms: C1_2  and  C2_3 
REMARK       I    between atoms: C1_2  and  N1_15 
REMARK    2  A    between atoms: C2_3  and  C3_4 
REMARK    3  A    between atoms: C3_4  and  C4_5 
REMARK    4  A    between atoms: C4_5  and  C5_6 
REMARK    5  A    between atoms: C5_6  and  C6_7 
REMARK    6  A    between atoms: N1_15  and  C12_17 
REMARK    7  A    between atoms: C12_17  and  C13_18 
REMARK    8  A    between atoms: C13_18  and  C14_19 
REMARK    9  A    between atoms: C14_19  and  N2_20 
REMARK   10  A    between atoms: C17_23  and  C18_24 
REMARK   11  A    between atoms: C25_36  and  O3_37 
ROOT
HETATM    1  C12 UNL     1       0.682  34.594  68.133  1.00  0.00     0.036 C 
HETATM    2  C23 UNL     1       1.743  35.608  68.396  1.00  0.00     0.033 C 
HETATM    3  C24 UNL     1       2.754  34.973  69.355  1.00  0.00     0.034 C 
HETATM    4  C25 UNL     1       1.902  34.034  70.142  1.00  0.00     0.120 C 
HETATM    5  C26 UNL     1       0.858  33.515  69.177  1.00  0.00     0.062 C 
ENDROOT
BRANCH   1   6
HETATM    6  N1  UNL     1       0.962  33.951  66.848  1.00  0.00    -0.352 N 
HETATM    7  C1  UNL     1       0.972  34.632  65.609  1.00  0.00     0.218 C 
HETATM    8  O1  UNL     1       0.737  35.861  65.486  1.00  0.00    -0.274 OA
ATOM      9  H1  UNL     1       1.161  32.951  66.846  1.00  0.00     0.163 HD
BRANCH   7  10
HETATM   10  C2  UNL     1       1.275  33.899  64.328  1.00  0.00     0.103 C 
BRANCH  10  11
HETATM   11  C3  UNL     1       2.408  32.944  64.495  1.00  0.00     0.009 C 
BRANCH  11  12
HETATM   12  C4  UNL     1       1.894  31.538  64.352  1.00  0.00     0.001 C 
BRANCH  12  13
HETATM   13  C5  UNL     1       0.848  31.424  63.258  1.00  0.00     0.005 C 
BRANCH  13  14
HETATM   14  C6  UNL     1      -0.240  30.471  63.648  1.00  0.00    -0.014 C 
HETATM   15  C7  UNL     1      -1.364  31.259  64.312  1.00  0.00     0.010 C 
HETATM   16  C8  UNL     1      -2.488  30.377  64.756  1.00  0.00     0.079 C 
HETATM   17  C9  UNL     1      -2.057  29.164  65.510  1.00  0.00     0.243 C 
HETATM   18  F1  UNL     1      -1.809  29.407  66.848  1.00  0.00    -0.206 F 
HETATM   19  F2  UNL     1      -3.117  28.249  65.466  1.00  0.00    -0.206 F 
HETATM   20  C10 UNL     1      -0.862  28.472  64.906  1.00  0.00     0.079 C 
HETATM   21  C11 UNL     1       0.259  29.500  64.709  1.00  0.00     0.010 C 
ENDBRANCH  13  14
ENDBRANCH  12  13
ENDBRANCH  11  12
ENDBRANCH  10  11
ENDBRANCH   7  10
ENDBRANCH   1   6
BRANCH   1  22
HETATM   22  C13 UNL     1      -0.675  35.197  68.146  1.00  0.00     0.051 C 
BRANCH  22  23
HETATM   23  C14 UNL     1      -1.661  34.606  69.088  1.00  0.00     0.129 C 
BRANCH  23  24
HETATM   24  N2  UNL     1      -2.852  34.173  68.378  1.00  0.00    -0.374 N 
HETATM   25  C15 UNL     1      -2.592  33.485  67.179  1.00  0.00     0.064 C 
HETATM   26  C16 UNL     1      -3.728  33.588  66.212  1.00  0.00     0.056 C 
HETATM   27  C17 UNL     1      -4.045  35.010  65.871  1.00  0.00     0.046 C 
HETATM   28  C21 UNL     1      -4.049  35.901  67.083  1.00  0.00     0.056 C 
HETATM   29  C22 UNL     1      -3.910  35.095  68.355  1.00  0.00     0.064 C 
BRANCH  27  30
HETATM   30  C18 UNL     1      -3.038  35.519  64.921  1.00  0.00     0.036 A 
HETATM   31  C19 UNL     1      -2.614  34.960  63.726  1.00  0.00     0.102 A 
HETATM   32  C20 UNL     1      -1.683  35.818  63.195  1.00  0.00     0.261 A 
HETATM   33  O2  UNL     1      -1.062  35.649  62.098  1.00  0.00    -0.267 OA
HETATM   34  N3  UNL     1      -1.538  36.858  64.026  1.00  0.00    -0.266 N 
HETATM   35  N4  UNL     1      -2.361  36.668  65.065  1.00  0.00    -0.301 N 
ATOM     36  H3  UNL     1      -0.912  37.652  63.893  1.00  0.00     0.190 HD
ATOM     37  H4  UNL     1      -2.460  37.307  65.854  1.00  0.00     0.186 HD
ENDBRANCH  27  30
ENDBRANCH  23  24
ENDBRANCH  22  23
ENDBRANCH   1  22
BRANCH   4  38
HETATM   38  O3  UNL     1       2.651  32.948  70.640  1.00  0.00    -0.395 OA
ATOM     39  H3  UNL     1       2.794  33.023  71.576  1.00  0.00     0.210 HD
ENDBRANCH   4  38
TORSDOF 11
ENDMDL
