MODEL 1
REMARK VINA RESULT: -7.247397732      0.000      0.000
REMARK  14 active torsions:
REMARK  status: ('A' for Active; 'I' for Inactive)
REMARK    1  A    between atoms: C2_2  and  C5_5 
REMARK    2  A    between atoms: C5_5  and  C6_6 
REMARK    3  A    between atoms: C6_6  and  N1_7 
REMARK    4  A    between atoms: N1_7  and  C7_9 
REMARK    5  A    between atoms: C7_9  and  C8_10 
REMARK    6  A    between atoms: C7_9  and  C25_37 
REMARK    7  A    between atoms: C8_10  and  O1_11 
REMARK    8  A    between atoms: C8_10  and  C9_13 
REMARK    9  A    between atoms: C9_13  and  N2_14 
REMARK   10  A    between atoms: N2_14  and  C10_17 
REMARK   11  A    between atoms: C10_17  and  C11_18 
REMARK   12  A    between atoms: C10_17  and  C19_29 
REMARK       I    between atoms: C11_18  and  N3_20 
REMARK   13  A    between atoms: N3_20  and  C12_22 
REMARK   14  A    between atoms: C12_22  and  C13_23 
ROOT
HETATM    1  N2  UNL     1      -0.213  34.239  63.590  1.00  0.00    -0.059 N 
ATOM      2  H21 UNL     1      -0.030  33.972  62.623  1.00  0.00     0.278 HD
ATOM      3  H22 UNL     1      -1.121  33.790  63.704  1.00  0.00     0.278 HD
ENDROOT
BRANCH   1   4
HETATM    4  C9  UNL     1      -0.305  35.726  63.746  1.00  0.00     0.266 C 
BRANCH   4   5
HETATM    5  C8  UNL     1      -1.701  35.908  64.231  1.00  0.00     0.167 C 
BRANCH   5   6
HETATM    6  C7  UNL     1      -1.986  36.412  65.567  1.00  0.00     0.118 C 
BRANCH   6   7
HETATM    7  N1  UNL     1      -0.999  36.578  66.550  1.00  0.00    -0.394 N 
ATOM      8  H1  UNL     1      -0.473  35.763  66.865  1.00  0.00     0.159 HD
BRANCH   7   9
HETATM    9  C6  UNL     1      -0.715  37.831  67.113  1.00  0.00     0.057 C 
BRANCH   9  10
HETATM   10  C5  UNL     1      -1.374  38.982  66.362  1.00  0.00     0.052 C 
BRANCH  10  11
HETATM   11  C2  UNL     1      -2.280  39.797  67.232  1.00  0.00    -0.047 C 
HETATM   12  C1  UNL     1      -1.751  41.141  67.637  1.00  0.00     0.015 C 
HETATM   13  C3  UNL     1      -2.563  39.029  68.511  1.00  0.00     0.015 C 
HETATM   14  C4  UNL     1      -3.634  40.028  66.573  1.00  0.00     0.015 C 
ENDBRANCH  10  11
ENDBRANCH   9  10
ENDBRANCH   7   9
ENDBRANCH   6   7
BRANCH   6  15
HETATM   15  C25 UNL     1      -3.060  35.563  66.234  1.00  0.00    -0.029 C 
HETATM   16  C26 UNL     1      -2.722  34.861  67.474  1.00  0.00     0.016 C 
HETATM   17  C27 UNL     1      -4.286  36.436  66.523  1.00  0.00     0.016 C 
HETATM   18  C28 UNL     1      -3.506  34.533  65.191  1.00  0.00     0.016 C 
ENDBRANCH   6  15
ENDBRANCH   5   6
BRANCH   5  19
HETATM   19  O1  UNL     1      -2.230  36.887  63.320  1.00  0.00    -0.392 OA
ATOM     20  H1  UNL     1      -2.295  37.695  63.817  1.00  0.00     0.210 HD
ENDBRANCH   5  19
ENDBRANCH   4   5
ENDBRANCH   1   4
BRANCH   1  21
HETATM   21  C10 UNL     1       0.781  33.686  64.501  1.00  0.00     0.284 C 
BRANCH  21  22
HETATM   22  C11 UNL     1      -0.026  33.093  65.633  1.00  0.00     0.252 C 
HETATM   23  O2  UNL     1       0.231  33.571  66.751  1.00  0.00    -0.271 OA
HETATM   24  N3  UNL     1      -0.988  32.092  65.482  1.00  0.00    -0.339 N 
ATOM     25  H3  UNL     1      -1.117  31.794  64.515  1.00  0.00     0.167 HD
BRANCH  24  26
HETATM   26  C12 UNL     1      -1.814  31.410  66.395  1.00  0.00     0.068 C 
BRANCH  26  27
HETATM   27  C13 UNL     1      -1.742  29.954  66.608  1.00  0.00     0.024 C 
HETATM   28  C14 UNL     1      -2.291  28.986  65.656  1.00  0.00     0.010 C 
HETATM   29  C15 UNL     1      -1.465  28.807  64.403  1.00  0.00     0.001 C 
HETATM   30  C16 UNL     1      -0.145  28.185  64.896  1.00  0.00     0.000 C 
HETATM   31  C17 UNL     1       0.504  29.228  65.775  1.00  0.00     0.001 C 
HETATM   32  C18 UNL     1      -0.289  29.552  66.988  1.00  0.00     0.010 C 
ENDBRANCH  26  27
ENDBRANCH  24  26
ENDBRANCH  21  22
BRANCH  21  33
HETATM   33  C19 UNL     1       1.516  32.654  63.709  1.00  0.00     0.062 C 
HETATM   34  C20 UNL     1       1.728  33.071  62.275  1.00  0.00     0.010 C 
HETATM   35  C21 UNL     1       3.091  33.629  62.002  1.00  0.00     0.004 C 
HETATM   36  C22 UNL     1       3.803  34.193  63.186  1.00  0.00     0.040 C 
HETATM   37  C23 UNL     1       3.891  33.209  64.322  1.00  0.00     0.204 C 
HETATM   38  F1  UNL     1       5.115  32.528  64.247  1.00  0.00    -0.246 F 
HETATM   39  C24 UNL     1       2.803  32.168  64.259  1.00  0.00     0.210 C 
HETATM   40  F2  UNL     1       2.759  31.495  65.436  1.00  0.00    -0.246 F 
ENDBRANCH  21  33
ENDBRANCH   1  21
TORSDOF 14
ENDMDL
MODEL 2
REMARK VINA RESULT: -7.222663176      2.949      7.983
REMARK  14 active torsions:
REMARK  status: ('A' for Active; 'I' for Inactive)
REMARK    1  A    between atoms: C2_2  and  C5_5 
REMARK    2  A    between atoms: C5_5  and  C6_6 
REMARK    3  A    between atoms: C6_6  and  N1_7 
REMARK    4  A    between atoms: N1_7  and  C7_9 
REMARK    5  A    between atoms: C7_9  and  C8_10 
REMARK    6  A    between atoms: C7_9  and  C25_37 
REMARK    7  A    between atoms: C8_10  and  O1_11 
REMARK    8  A    between atoms: C8_10  and  C9_13 
REMARK    9  A    between atoms: C9_13  and  N2_14 
REMARK   10  A    between atoms: N2_14  and  C10_17 
REMARK   11  A    between atoms: C10_17  and  C11_18 
REMARK   12  A    between atoms: C10_17  and  C19_29 
REMARK       I    between atoms: C11_18  and  N3_20 
REMARK   13  A    between atoms: N3_20  and  C12_22 
REMARK   14  A    between atoms: C12_22  and  C13_23 
ROOT
HETATM    1  N2  UNL     1      -1.130  35.162  69.047  1.00  0.00    -0.059 N 
ATOM      2  H21 UNL     1      -1.291  35.409  70.023  1.00  0.00     0.278 HD
ATOM      3  H22 UNL     1      -2.034  35.442  68.667  1.00  0.00     0.278 HD
ENDROOT
BRANCH   1   4
HETATM    4  C9  UNL     1      -0.889  33.693  68.880  1.00  0.00     0.266 C 
BRANCH   4   5
HETATM    5  C8  UNL     1      -2.056  33.272  68.057  1.00  0.00     0.167 C 
BRANCH   5   6
HETATM    6  C7  UNL     1      -1.893  32.766  66.701  1.00  0.00     0.118 C 
BRANCH   6   7
HETATM    7  N1  UNL     1      -0.674  32.808  66.009  1.00  0.00    -0.394 N 
ATOM      8  H1  UNL     1      -0.351  33.699  65.631  1.00  0.00     0.159 HD
BRANCH   7   9
HETATM    9  C6  UNL     1       0.114  31.664  65.821  1.00  0.00     0.057 C 
BRANCH   9  10
HETATM   10  C5  UNL     1      -0.585  30.383  66.263  1.00  0.00     0.052 C 
BRANCH  10  11
HETATM   11  C2  UNL     1      -0.936  29.489  65.115  1.00  0.00    -0.047 C 
HETATM   12  C1  UNL     1      -0.980  30.152  63.770  1.00  0.00     0.015 C 
HETATM   13  C3  UNL     1      -2.307  28.884  65.357  1.00  0.00     0.015 C 
HETATM   14  C4  UNL     1       0.027  28.313  65.004  1.00  0.00     0.015 C 
ENDBRANCH  10  11
ENDBRANCH   9  10
ENDBRANCH   7   9
ENDBRANCH   6   7
BRANCH   6  15
HETATM   15  C25 UNL     1      -2.894  33.430  65.766  1.00  0.00    -0.029 C 
HETATM   16  C26 UNL     1      -3.847  34.386  66.332  1.00  0.00     0.016 C 
HETATM   17  C27 UNL     1      -2.136  34.150  64.645  1.00  0.00     0.016 C 
HETATM   18  C28 UNL     1      -3.675  32.296  65.092  1.00  0.00     0.016 C 
ENDBRANCH   6  15
ENDBRANCH   5   6
BRANCH   5  19
HETATM   19  O1  UNL     1      -2.606  32.183  68.819  1.00  0.00    -0.392 OA
ATOM     20  H1  UNL     1      -1.939  31.507  68.824  1.00  0.00     0.210 HD
ENDBRANCH   5  19
ENDBRANCH   4   5
ENDBRANCH   1   4
BRANCH   1  21
HETATM   21  C10 UNL     1      -0.038  35.933  68.466  1.00  0.00     0.284 C 
BRANCH  21  22
HETATM   22  C11 UNL     1      -0.563  36.388  67.123  1.00  0.00     0.252 C 
HETATM   23  O2  UNL     1       0.105  35.995  66.152  1.00  0.00    -0.271 OA
HETATM   24  N3  UNL     1      -1.696  37.184  66.943  1.00  0.00    -0.339 N 
ATOM     25  H3  UNL     1      -2.165  37.429  67.815  1.00  0.00     0.167 HD
BRANCH  24  26
HETATM   26  C12 UNL     1      -2.322  37.716  65.800  1.00  0.00     0.068 C 
BRANCH  26  27
HETATM   27  C13 UNL     1      -2.477  39.164  65.573  1.00  0.00     0.024 C 
HETATM   28  C14 UNL     1      -3.503  39.966  66.243  1.00  0.00     0.010 C 
HETATM   29  C15 UNL     1      -3.212  40.262  67.697  1.00  0.00     0.001 C 
HETATM   30  C16 UNL     1      -1.958  41.155  67.666  1.00  0.00     0.000 C 
HETATM   31  C17 UNL     1      -0.850  40.298  67.101  1.00  0.00     0.001 C 
HETATM   32  C18 UNL     1      -1.095  39.864  65.701  1.00  0.00     0.010 C 
ENDBRANCH  26  27
ENDBRANCH  24  26
ENDBRANCH  21  22
BRANCH  21  33
HETATM   33  C19 UNL     1       0.195  37.066  69.412  1.00  0.00     0.062 C 
HETATM   34  C20 UNL     1       0.016  36.660  70.854  1.00  0.00     0.010 C 
HETATM   35  C21 UNL     1       1.301  36.367  71.565  1.00  0.00     0.004 C 
HETATM   36  C22 UNL     1       2.447  35.983  70.689  1.00  0.00     0.040 C 
HETATM   37  C23 UNL     1       2.701  36.996  69.605  1.00  0.00     0.204 C 
HETATM   38  F1  UNL     1       3.684  37.897  70.039  1.00  0.00    -0.246 F 
HETATM   39  C24 UNL     1       1.472  37.805  69.282  1.00  0.00     0.210 C 
HETATM   40  F2  UNL     1       1.677  38.488  68.128  1.00  0.00    -0.246 F 
ENDBRANCH  21  33
ENDBRANCH   1  21
TORSDOF 14
ENDMDL
MODEL 3
REMARK VINA RESULT: -7.197194615      3.379      7.555
REMARK  14 active torsions:
REMARK  status: ('A' for Active; 'I' for Inactive)
REMARK    1  A    between atoms: C2_2  and  C5_5 
REMARK    2  A    between atoms: C5_5  and  C6_6 
REMARK    3  A    between atoms: C6_6  and  N1_7 
REMARK    4  A    between atoms: N1_7  and  C7_9 
REMARK    5  A    between atoms: C7_9  and  C8_10 
REMARK    6  A    between atoms: C7_9  and  C25_37 
REMARK    7  A    between atoms: C8_10  and  O1_11 
REMARK    8  A    between atoms: C8_10  and  C9_13 
REMARK    9  A    between atoms: C9_13  and  N2_14 
REMARK   10  A    between atoms: N2_14  and  C10_17 
REMARK   11  A    between atoms: C10_17  and  C11_18 
REMARK   12  A    between atoms: C10_17  and  C19_29 
REMARK       I    between atoms: C11_18  and  N3_20 
REMARK   13  A    between atoms: N3_20  and  C12_22 
REMARK   14  A    between atoms: C12_22  and  C13_23 
ROOT
HETATM    1  N2  UNL     1      -0.508  35.957  65.205  1.00  0.00    -0.059 N 
ATOM      2  H21 UNL     1       0.049  36.689  64.765  1.00  0.00     0.278 HD
ATOM      3  H22 UNL     1       0.236  35.283  65.382  1.00  0.00     0.278 HD
ENDROOT
BRANCH   1   4
HETATM    4  C9  UNL     1      -1.543  35.410  64.270  1.00  0.00     0.266 C 
BRANCH   4   5
HETATM    5  C8  UNL     1      -0.709  34.821  63.186  1.00  0.00     0.167 C 
BRANCH   5   6
HETATM    6  C7  UNL     1      -0.079  33.516  63.329  1.00  0.00     0.118 C 
BRANCH   6   7
HETATM    7  N1  UNL     1      -0.306  32.672  64.427  1.00  0.00    -0.394 N 
ATOM      8  H1  UNL     1       0.191  32.853  65.300  1.00  0.00     0.159 HD
BRANCH   7   9
HETATM    9  C6  UNL     1      -1.193  31.589  64.360  1.00  0.00     0.057 C 
BRANCH   9  10
HETATM   10  C5  UNL     1      -0.506  30.281  63.980  1.00  0.00     0.052 C 
BRANCH  10  11
HETATM   11  C2  UNL     1      -0.713  29.201  64.996  1.00  0.00    -0.047 C 
HETATM   12  C1  UNL     1      -2.140  28.945  65.384  1.00  0.00     0.015 C 
HETATM   13  C3  UNL     1       0.033  29.565  66.267  1.00  0.00     0.015 C 
HETATM   14  C4  UNL     1      -0.129  27.873  64.532  1.00  0.00     0.015 C 
ENDBRANCH  10  11
ENDBRANCH   9  10
ENDBRANCH   7   9
ENDBRANCH   6   7
BRANCH   6  15
HETATM   15  C25 UNL     1       1.435  33.648  63.247  1.00  0.00    -0.029 C 
HETATM   16  C26 UNL     1       1.999  34.925  62.803  1.00  0.00     0.016 C 
HETATM   17  C27 UNL     1       2.044  33.332  64.617  1.00  0.00     0.016 C 
HETATM   18  C28 UNL     1       1.916  32.541  62.301  1.00  0.00     0.016 C 
ENDBRANCH   6  15
ENDBRANCH   5   6
BRANCH   5  19
HETATM   19  O1  UNL     1      -1.645  34.689  62.102  1.00  0.00    -0.392 OA
ATOM     20  H1  UNL     1      -2.361  35.280  62.304  1.00  0.00     0.210 HD
ENDBRANCH   5  19
ENDBRANCH   4   5
ENDBRANCH   1   4
BRANCH   1  21
HETATM   21  C10 UNL     1      -1.125  36.418  66.443  1.00  0.00     0.284 C 
BRANCH  21  22
HETATM   22  C11 UNL     1      -0.707  35.401  67.481  1.00  0.00     0.252 C 
HETATM   23  O2  UNL     1      -0.382  34.297  67.014  1.00  0.00    -0.271 OA
HETATM   24  N3  UNL     1      -0.676  35.639  68.856  1.00  0.00    -0.339 N 
ATOM     25  H3  UNL     1      -0.952  36.587  69.112  1.00  0.00     0.167 HD
BRANCH  24  26
HETATM   26  C12 UNL     1      -0.342  34.834  69.961  1.00  0.00     0.068 C 
BRANCH  26  27
HETATM   27  C13 UNL     1       0.973  34.890  70.624  1.00  0.00     0.024 C 
HETATM   28  C14 UNL     1       2.219  34.525  69.944  1.00  0.00     0.010 C 
HETATM   29  C15 UNL     1       2.713  35.556  68.955  1.00  0.00     0.001 C 
HETATM   30  C16 UNL     1       3.069  36.781  69.818  1.00  0.00     0.000 C 
HETATM   31  C17 UNL     1       1.768  37.255  70.422  1.00  0.00     0.001 C 
HETATM   32  C18 UNL     1       1.145  36.262  71.334  1.00  0.00     0.010 C 
ENDBRANCH  26  27
ENDBRANCH  24  26
ENDBRANCH  21  22
BRANCH  21  33
HETATM   33  C19 UNL     1      -0.548  37.774  66.694  1.00  0.00     0.062 C 
HETATM   34  C20 UNL     1       0.179  38.323  65.491  1.00  0.00     0.010 C 
HETATM   35  C21 UNL     1      -0.631  39.289  64.683  1.00  0.00     0.004 C 
HETATM   36  C22 UNL     1      -2.111  39.159  64.820  1.00  0.00     0.040 C 
HETATM   37  C23 UNL     1      -2.559  39.218  66.256  1.00  0.00     0.204 C 
HETATM   38  F1  UNL     1      -2.915  40.537  66.573  1.00  0.00    -0.246 F 
HETATM   39  C24 UNL     1      -1.465  38.815  67.211  1.00  0.00     0.210 C 
HETATM   40  F2  UNL     1      -1.998  38.615  68.442  1.00  0.00    -0.246 F 
ENDBRANCH  21  33
ENDBRANCH   1  21
TORSDOF 14
ENDMDL
MODEL 4
REMARK VINA RESULT: -7.181665422      2.223      5.223
REMARK  14 active torsions:
REMARK  status: ('A' for Active; 'I' for Inactive)
REMARK    1  A    between atoms: C2_2  and  C5_5 
REMARK    2  A    between atoms: C5_5  and  C6_6 
REMARK    3  A    between atoms: C6_6  and  N1_7 
REMARK    4  A    between atoms: N1_7  and  C7_9 
REMARK    5  A    between atoms: C7_9  and  C8_10 
REMARK    6  A    between atoms: C7_9  and  C25_37 
REMARK    7  A    between atoms: C8_10  and  O1_11 
REMARK    8  A    between atoms: C8_10  and  C9_13 
REMARK    9  A    between atoms: C9_13  and  N2_14 
REMARK   10  A    between atoms: N2_14  and  C10_17 
REMARK   11  A    between atoms: C10_17  and  C11_18 
REMARK   12  A    between atoms: C10_17  and  C19_29 
REMARK       I    between atoms: C11_18  and  N3_20 
REMARK   13  A    between atoms: N3_20  and  C12_22 
REMARK   14  A    between atoms: C12_22  and  C13_23 
ROOT
HETATM    1  N2  UNL     1      -0.616  33.470  67.509  1.00  0.00    -0.059 N 
ATOM      2  H21 UNL     1      -0.082  32.866  68.132  1.00  0.00     0.278 HD
ATOM      3  H22 UNL     1      -0.017  34.294  67.543  1.00  0.00     0.278 HD
ENDROOT
BRANCH   1   4
HETATM    4  C9  UNL     1      -1.984  33.754  68.050  1.00  0.00     0.266 C 
BRANCH   4   5
HETATM    5  C8  UNL     1      -1.679  34.457  69.328  1.00  0.00     0.167 C 
BRANCH   5   6
HETATM    6  C7  UNL     1      -1.321  35.868  69.358  1.00  0.00     0.118 C 
BRANCH   6   7
HETATM    7  N1  UNL     1      -1.379  36.697  68.227  1.00  0.00    -0.394 N 
ATOM      8  H1  UNL     1      -0.624  36.654  67.543  1.00  0.00     0.159 HD
BRANCH   7   9
HETATM    9  C6  UNL     1      -2.443  37.584  68.010  1.00  0.00     0.057 C 
BRANCH   9  10
HETATM   10  C5  UNL     1      -2.148  38.997  68.501  1.00  0.00     0.052 C 
BRANCH  10  11
HETATM   11  C2  UNL     1      -2.256  40.022  67.414  1.00  0.00    -0.047 C 
HETATM   12  C1  UNL     1      -3.510  39.963  66.593  1.00  0.00     0.015 C 
HETATM   13  C3  UNL     1      -1.091  39.854  66.456  1.00  0.00     0.015 C 
HETATM   14  C4  UNL     1      -2.147  41.438  67.965  1.00  0.00     0.015 C 
ENDBRANCH  10  11
ENDBRANCH   9  10
ENDBRANCH   7   9
ENDBRANCH   6   7
BRANCH   6  15
HETATM   15  C25 UNL     1       0.092  36.044  69.896  1.00  0.00    -0.029 C 
HETATM   16  C26 UNL     1       0.750  34.891  70.513  1.00  0.00     0.016 C 
HETATM   17  C27 UNL     1       1.003  36.540  68.768  1.00  0.00     0.016 C 
HETATM   18  C28 UNL     1       0.025  37.181  70.922  1.00  0.00     0.016 C 
ENDBRANCH   6  15
ENDBRANCH   5   6
BRANCH   5  19
HETATM   19  O1  UNL     1      -2.916  34.349  70.053  1.00  0.00    -0.392 OA
ATOM     20  H1  UNL     1      -3.423  35.117  69.816  1.00  0.00     0.210 HD
ENDBRANCH   5  19
ENDBRANCH   4   5
ENDBRANCH   1   4
BRANCH   1  21
HETATM   21  C10 UNL     1      -0.700  32.919  66.162  1.00  0.00     0.284 C 
BRANCH  21  22
HETATM   22  C11 UNL     1      -0.203  34.028  65.263  1.00  0.00     0.252 C 
HETATM   23  O2  UNL     1      -0.255  35.161  65.770  1.00  0.00    -0.271 OA
HETATM   24  N3  UNL     1       0.281  33.842  63.967  1.00  0.00    -0.339 N 
ATOM     25  H3  UNL     1       0.286  32.865  63.671  1.00  0.00     0.167 HD
BRANCH  24  26
HETATM   26  C12 UNL     1       0.762  34.729  62.985  1.00  0.00     0.068 C 
BRANCH  26  27
HETATM   27  C13 UNL     1       2.197  34.973  62.762  1.00  0.00     0.024 C 
HETATM   28  C14 UNL     1       3.070  35.558  63.783  1.00  0.00     0.010 C 
HETATM   29  C15 UNL     1       3.442  34.610  64.901  1.00  0.00     0.001 C 
HETATM   30  C16 UNL     1       4.292  33.523  64.219  1.00  0.00     0.000 C 
HETATM   31  C17 UNL     1       3.369  32.816  63.254  1.00  0.00     0.001 C 
HETATM   32  C18 UNL     1       2.861  33.697  62.172  1.00  0.00     0.010 C 
ENDBRANCH  26  27
ENDBRANCH  24  26
ENDBRANCH  21  22
BRANCH  21  33
HETATM   33  C19 UNL     1       0.201  31.726  66.164  1.00  0.00     0.062 C 
HETATM   34  C20 UNL     1       0.591  31.301  67.558  1.00  0.00     0.010 C 
HETATM   35  C21 UNL     1      -0.215  30.156  68.090  1.00  0.00     0.004 C 
HETATM   36  C22 UNL     1      -1.560  29.974  67.470  1.00  0.00     0.040 C 
HETATM   37  C23 UNL     1      -1.489  29.874  65.969  1.00  0.00     0.204 C 
HETATM   38  F1  UNL     1      -1.433  28.522  65.601  1.00  0.00    -0.246 F 
HETATM   39  C24 UNL     1      -0.253  30.534  65.413  1.00  0.00     0.210 C 
HETATM   40  F2  UNL     1      -0.382  30.661  64.068  1.00  0.00    -0.246 F 
ENDBRANCH  21  33
ENDBRANCH   1  21
TORSDOF 14
ENDMDL
MODEL 5
REMARK VINA RESULT: -7.135382385      3.324      7.587
REMARK  14 active torsions:
REMARK  status: ('A' for Active; 'I' for Inactive)
REMARK    1  A    between atoms: C2_2  and  C5_5 
REMARK    2  A    between atoms: C5_5  and  C6_6 
REMARK    3  A    between atoms: C6_6  and  N1_7 
REMARK    4  A    between atoms: N1_7  and  C7_9 
REMARK    5  A    between atoms: C7_9  and  C8_10 
REMARK    6  A    between atoms: C7_9  and  C25_37 
REMARK    7  A    between atoms: C8_10  and  O1_11 
REMARK    8  A    between atoms: C8_10  and  C9_13 
REMARK    9  A    between atoms: C9_13  and  N2_14 
REMARK   10  A    between atoms: N2_14  and  C10_17 
REMARK   11  A    between atoms: C10_17  and  C11_18 
REMARK   12  A    between atoms: C10_17  and  C19_29 
REMARK       I    between atoms: C11_18  and  N3_20 
REMARK   13  A    between atoms: N3_20  and  C12_22 
REMARK   14  A    between atoms: C12_22  and  C13_23 
ROOT
HETATM    1  N2  UNL     1      -0.397  36.816  64.972  1.00  0.00    -0.059 N 
ATOM      2  H21 UNL     1      -0.449  37.808  64.741  1.00  0.00     0.278 HD
ATOM      3  H22 UNL     1       0.608  36.686  64.860  1.00  0.00     0.278 HD
ENDROOT
BRANCH   1   4
HETATM    4  C9  UNL     1      -1.176  35.981  64.003  1.00  0.00     0.266 C 
BRANCH   4   5
HETATM    5  C8  UNL     1      -0.115  35.499  63.075  1.00  0.00     0.167 C 
BRANCH   5   6
HETATM    6  C7  UNL     1       0.399  34.138  63.142  1.00  0.00     0.118 C 
BRANCH   6   7
HETATM    7  N1  UNL     1      -0.073  33.185  64.057  1.00  0.00    -0.394 N 
ATOM      8  H1  UNL     1       0.243  33.231  65.026  1.00  0.00     0.159 HD
BRANCH   7   9
HETATM    9  C6  UNL     1      -0.965  32.172  63.680  1.00  0.00     0.057 C 
BRANCH   9  10
HETATM   10  C5  UNL     1      -0.339  30.782  63.725  1.00  0.00     0.052 C 
BRANCH  10  11
HETATM   11  C2  UNL     1      -1.054  29.855  64.658  1.00  0.00    -0.047 C 
HETATM   12  C1  UNL     1      -0.951  30.198  66.115  1.00  0.00     0.015 C 
HETATM   13  C3  UNL     1      -0.492  28.454  64.493  1.00  0.00     0.015 C 
HETATM   14  C4  UNL     1      -2.537  29.755  64.325  1.00  0.00     0.015 C 
ENDBRANCH  10  11
ENDBRANCH   9  10
ENDBRANCH   7   9
ENDBRANCH   6   7
BRANCH   6  15
HETATM   15  C25 UNL     1       1.908  34.153  63.340  1.00  0.00    -0.029 C 
HETATM   16  C26 UNL     1       2.586  35.448  63.426  1.00  0.00     0.016 C 
HETATM   17  C27 UNL     1       2.258  33.369  64.610  1.00  0.00     0.016 C 
HETATM   18  C28 UNL     1       2.505  33.360  62.172  1.00  0.00     0.016 C 
ENDBRANCH   6  15
ENDBRANCH   5   6
BRANCH   5  19
HETATM   19  O1  UNL     1      -0.742  35.620  61.786  1.00  0.00    -0.392 OA
ATOM     20  H1  UNL     1      -1.140  34.775  61.611  1.00  0.00     0.210 HD
ENDBRANCH   5  19
ENDBRANCH   4   5
ENDBRANCH   1   4
BRANCH   1  21
HETATM   21  C10 UNL     1      -0.827  36.556  66.340  1.00  0.00     0.284 C 
BRANCH  21  22
HETATM   22  C11 UNL     1       0.176  35.559  66.873  1.00  0.00     0.252 C 
HETATM   23  O2  UNL     1      -0.232  34.386  66.901  1.00  0.00    -0.271 OA
HETATM   24  N3  UNL     1       1.462  35.884  67.310  1.00  0.00    -0.339 N 
ATOM     25  H3  UNL     1       1.683  36.877  67.223  1.00  0.00     0.167 HD
BRANCH  24  26
HETATM   26  C12 UNL     1       2.516  35.120  67.845  1.00  0.00     0.068 C 
BRANCH  26  27
HETATM   27  C13 UNL     1       2.884  35.152  69.271  1.00  0.00     0.024 C 
HETATM   28  C14 UNL     1       3.123  36.401  70.000  1.00  0.00     0.010 C 
HETATM   29  C15 UNL     1       1.869  37.171  70.343  1.00  0.00     0.001 C 
HETATM   30  C16 UNL     1       1.117  36.264  71.334  1.00  0.00     0.000 C 
HETATM   31  C17 UNL     1       0.741  35.022  70.559  1.00  0.00     0.001 C 
HETATM   32  C18 UNL     1       1.916  34.247  70.083  1.00  0.00     0.010 C 
ENDBRANCH  26  27
ENDBRANCH  24  26
ENDBRANCH  21  22
BRANCH  21  33
HETATM   33  C19 UNL     1      -0.760  37.876  67.036  1.00  0.00     0.062 C 
HETATM   34  C20 UNL     1      -0.961  39.036  66.093  1.00  0.00     0.010 C 
HETATM   35  C21 UNL     1      -2.353  39.588  66.100  1.00  0.00     0.004 C 
HETATM   36  C22 UNL     1      -3.416  38.646  66.558  1.00  0.00     0.040 C 
HETATM   37  C23 UNL     1      -3.112  38.055  67.909  1.00  0.00     0.204 C 
HETATM   38  F1  UNL     1      -3.741  38.824  68.899  1.00  0.00    -0.246 F 
HETATM   39  C24 UNL     1      -1.636  38.065  68.215  1.00  0.00     0.210 C 
HETATM   40  F2  UNL     1      -1.399  37.279  69.295  1.00  0.00    -0.246 F 
ENDBRANCH  21  33
ENDBRANCH   1  21
TORSDOF 14
ENDMDL
