MODEL 1
REMARK VINA RESULT: -6.310155202      0.000      0.000
REMARK  13 active torsions:
REMARK  status: ('A' for Active; 'I' for Inactive)
REMARK    1  A    between atoms: C2_2  and  C4_4 
REMARK    2  A    between atoms: C4_4  and  C5_5 
REMARK    3  A    between atoms: C5_5  and  O1_6 
REMARK    4  A    between atoms: C6_8  and  O2_9 
REMARK    5  A    between atoms: C7_11  and  O3_12 
REMARK    6  A    between atoms: O3_12  and  C8_13 
REMARK    7  A    between atoms: C8_13  and  C9_14 
REMARK    8  A    between atoms: C9_14  and  C10_15 
REMARK    9  A    between atoms: C10_15  and  C11_16 
REMARK   10  A    between atoms: C11_16  and  C12_17 
REMARK   11  A    between atoms: C12_17  and  C13_18 
REMARK   12  A    between atoms: C13_18  and  C14_19 
REMARK   13  A    between atoms: C14_19  and  C15_20 
ROOT
HETATM    1  C5  UNL     1      -2.680  37.311  66.250  1.00  0.00     0.100 C 
HETATM    2  C6  UNL     1      -2.478  36.650  64.960  1.00  0.00     0.183 C 
HETATM    3  C7  UNL     1      -1.374  35.628  64.921  1.00  0.00     0.167 C 
HETATM    4  C16 UNL     1      -1.422  34.685  66.101  1.00  0.00     0.094 C 
HETATM    5 BR1  UNL     1       0.052  33.473  66.070  1.00  0.00    -0.088 Br
HETATM    6  C17 UNL     1      -1.357  35.505  67.345  1.00  0.00     0.016 C 
HETATM    7  C18 UNL     1      -1.295  34.669  68.605  1.00  0.00     0.012 C 
HETATM    8  C19 UNL     1      -2.625  36.317  67.424  1.00  0.00     0.100 C 
HETATM    9 BR2  UNL     1      -4.200  35.224  67.321  1.00  0.00    -0.087 Br
ENDROOT
BRANCH   3  10
HETATM   10  O3  UNL     1      -1.527  34.862  63.770  1.00  0.00    -0.382 OA
BRANCH  10  11
HETATM   11  C8  UNL     1      -2.717  34.116  63.809  1.00  0.00     0.168 C 
BRANCH  11  12
HETATM   12  C9  UNL     1      -2.746  33.098  62.706  1.00  0.00     0.026 C 
BRANCH  12  13
HETATM   13  C10 UNL     1      -2.044  31.806  63.166  1.00  0.00     0.002 C 
BRANCH  13  14
HETATM   14  C11 UNL     1      -2.636  31.202  64.360  1.00  0.00     0.000 C 
BRANCH  14  15
HETATM   15  C12 UNL     1      -2.620  29.733  64.478  1.00  0.00     0.001 C 
BRANCH  15  16
HETATM   16  C13 UNL     1      -1.866  29.098  65.552  1.00  0.00     0.010 C 
BRANCH  16  17
HETATM   17  C14 UNL     1      -0.397  29.016  65.564  1.00  0.00     0.113 C 
BRANCH  17  18
HETATM   18  C15 UNL     1       0.230  28.523  64.326  1.00  0.00     0.172 C 
HETATM   19  O4  UNL     1       0.091  27.335  63.970  1.00  0.00    -0.648 OA
HETATM   20  O5  UNL     1       0.986  29.389  63.539  1.00  0.00    -0.648 OA
ENDBRANCH  17  18
ENDBRANCH  16  17
ENDBRANCH  15  16
ENDBRANCH  14  15
ENDBRANCH  13  14
ENDBRANCH  12  13
ENDBRANCH  11  12
ENDBRANCH  10  11
ENDBRANCH   3  10
BRANCH   2  21
HETATM   21  O2  UNL     1      -2.272  37.557  63.948  1.00  0.00    -0.390 OA
ATOM     22  H2  UNL     1      -1.687  37.216  63.282  1.00  0.00     0.210 HD
ENDBRANCH   2  21
BRANCH   1  23
HETATM   23  C4  UNL     1      -1.772  38.428  66.638  1.00  0.00     0.045 C 
BRANCH  23  24
HETATM   24  C2  UNL     1      -2.148  39.248  67.814  1.00  0.00    -0.020 C 
HETATM   25  C1  UNL     1      -2.228  40.702  67.319  1.00  0.00     0.009 C 
HETATM   26  C3  UNL     1      -1.104  39.242  68.911  1.00  0.00     0.009 C 
ENDBRANCH  23  24
ENDBRANCH   1  23
BRANCH   1  27
HETATM   27  O1  UNL     1      -4.008  37.797  66.313  1.00  0.00    -0.386 OA
ATOM     28  H1  UNL     1      -4.050  38.423  67.026  1.00  0.00     0.210 HD
ENDBRANCH   1  27
TORSDOF 13
ENDMDL
MODEL 2
REMARK VINA RESULT: -6.305307977      2.731      8.284
REMARK  13 active torsions:
REMARK  status: ('A' for Active; 'I' for Inactive)
REMARK    1  A    between atoms: C2_2  and  C4_4 
REMARK    2  A    between atoms: C4_4  and  C5_5 
REMARK    3  A    between atoms: C5_5  and  O1_6 
REMARK    4  A    between atoms: C6_8  and  O2_9 
REMARK    5  A    between atoms: C7_11  and  O3_12 
REMARK    6  A    between atoms: O3_12  and  C8_13 
REMARK    7  A    between atoms: C8_13  and  C9_14 
REMARK    8  A    between atoms: C9_14  and  C10_15 
REMARK    9  A    between atoms: C10_15  and  C11_16 
REMARK   10  A    between atoms: C11_16  and  C12_17 
REMARK   11  A    between atoms: C12_17  and  C13_18 
REMARK   12  A    between atoms: C13_18  and  C14_19 
REMARK   13  A    between atoms: C14_19  and  C15_20 
ROOT
HETATM    1  C5  UNL     1      -2.029  31.847  65.876  1.00  0.00     0.100 C 
HETATM    2  C6  UNL     1      -2.375  32.448  67.164  1.00  0.00     0.183 C 
HETATM    3  C7  UNL     1      -1.559  33.650  67.558  1.00  0.00     0.167 C 
HETATM    4  C16 UNL     1      -1.416  34.643  66.429  1.00  0.00     0.094 C 
HETATM    5 BR1  UNL     1      -0.291  36.099  66.935  1.00  0.00    -0.088 Br
HETATM    6  C17 UNL     1      -0.806  33.932  65.268  1.00  0.00     0.016 C 
HETATM    7  C18 UNL     1      -0.515  34.844  64.098  1.00  0.00     0.012 C 
HETATM    8  C19 UNL     1      -1.802  32.908  64.784  1.00  0.00     0.100 C 
HETATM    9 BR2  UNL     1      -3.511  33.686  64.381  1.00  0.00    -0.087 Br
ENDROOT
BRANCH   3  10
HETATM   10  O3  UNL     1      -2.211  34.299  68.602  1.00  0.00    -0.382 OA
BRANCH  10  11
HETATM   11  C8  UNL     1      -3.489  34.733  68.213  1.00  0.00     0.168 C 
BRANCH  11  12
HETATM   12  C9  UNL     1      -4.029  35.742  69.183  1.00  0.00     0.026 C 
BRANCH  12  13
HETATM   13  C10 UNL     1      -3.414  37.125  68.900  1.00  0.00     0.002 C 
BRANCH  13  14
HETATM   14  C11 UNL     1      -3.740  37.660  67.578  1.00  0.00     0.000 C 
BRANCH  14  15
HETATM   15  C12 UNL     1      -4.094  39.087  67.471  1.00  0.00     0.001 C 
BRANCH  15  16
HETATM   16  C13 UNL     1      -3.280  39.979  66.656  1.00  0.00     0.010 C 
BRANCH  16  17
HETATM   17  C14 UNL     1      -1.899  40.351  67.002  1.00  0.00     0.113 C 
BRANCH  17  18
HETATM   18  C15 UNL     1      -1.707  40.941  68.337  1.00  0.00     0.172 C 
HETATM   19  O4  UNL     1      -2.257  42.018  68.643  1.00  0.00    -0.648 OA
HETATM   20  O5  UNL     1      -0.905  40.292  69.273  1.00  0.00    -0.648 OA
ENDBRANCH  17  18
ENDBRANCH  16  17
ENDBRANCH  15  16
ENDBRANCH  14  15
ENDBRANCH  13  14
ENDBRANCH  12  13
ENDBRANCH  11  12
ENDBRANCH  10  11
ENDBRANCH   3  10
BRANCH   2  21
HETATM   21  O2  UNL     1      -2.324  31.530  68.186  1.00  0.00    -0.390 OA
ATOM     22  H2  UNL     1      -2.733  31.860  68.978  1.00  0.00     0.210 HD
ENDBRANCH   2  21
BRANCH   1  23
HETATM   23  C4  UNL     1      -0.846  30.942  65.796  1.00  0.00     0.045 C 
BRANCH  23  24
HETATM   24  C2  UNL     1      -0.734  30.053  64.615  1.00  0.00    -0.020 C 
HETATM   25  C1  UNL     1      -0.637  28.619  65.162  1.00  0.00     0.009 C 
HETATM   26  C3  UNL     1       0.530  30.276  63.811  1.00  0.00     0.009 C 
ENDBRANCH  23  24
ENDBRANCH   1  23
BRANCH   1  27
HETATM   27  O1  UNL     1      -3.149  31.131  65.389  1.00  0.00    -0.386 OA
ATOM     28  H1  UNL     1      -3.895  31.366  65.927  1.00  0.00     0.210 HD
ENDBRANCH   1  27
TORSDOF 13
ENDMDL
MODEL 3
REMARK VINA RESULT: -6.250532995      3.142      8.011
REMARK  13 active torsions:
REMARK  status: ('A' for Active; 'I' for Inactive)
REMARK    1  A    between atoms: C2_2  and  C4_4 
REMARK    2  A    between atoms: C4_4  and  C5_5 
REMARK    3  A    between atoms: C5_5  and  O1_6 
REMARK    4  A    between atoms: C6_8  and  O2_9 
REMARK    5  A    between atoms: C7_11  and  O3_12 
REMARK    6  A    between atoms: O3_12  and  C8_13 
REMARK    7  A    between atoms: C8_13  and  C9_14 
REMARK    8  A    between atoms: C9_14  and  C10_15 
REMARK    9  A    between atoms: C10_15  and  C11_16 
REMARK   10  A    between atoms: C11_16  and  C12_17 
REMARK   11  A    between atoms: C12_17  and  C13_18 
REMARK   12  A    between atoms: C13_18  and  C14_19 
REMARK   13  A    between atoms: C14_19  and  C15_20 
ROOT
HETATM    1  C5  UNL     1       1.036  30.999  64.429  1.00  0.00     0.100 C 
HETATM    2  C6  UNL     1       1.416  32.061  63.498  1.00  0.00     0.183 C 
HETATM    3  C7  UNL     1       0.470  33.229  63.424  1.00  0.00     0.167 C 
HETATM    4  C16 UNL     1       0.056  33.720  64.792  1.00  0.00     0.094 C 
HETATM    5 BR1  UNL     1      -1.223  35.130  64.655  1.00  0.00    -0.088 Br
HETATM    6  C17 UNL     1      -0.555  32.574  65.525  1.00  0.00     0.016 C 
HETATM    7  C18 UNL     1      -1.105  32.961  66.880  1.00  0.00     0.012 C 
HETATM    8  C19 UNL     1       0.533  31.559  65.772  1.00  0.00     0.100 C 
HETATM    9 BR2  UNL     1       2.048  32.316  66.678  1.00  0.00    -0.087 Br
ENDROOT
BRANCH   3  10
HETATM   10  O3  UNL     1       1.118  34.279  62.783  1.00  0.00    -0.382 OA
BRANCH  10  11
HETATM   11  C8  UNL     1       2.360  34.551  63.381  1.00  0.00     0.168 C 
BRANCH  11  12
HETATM   12  C9  UNL     1       2.510  36.019  63.657  1.00  0.00     0.026 C 
BRANCH  12  13
HETATM   13  C10 UNL     1       2.893  36.239  65.133  1.00  0.00     0.002 C 
BRANCH  13  14
HETATM   14  C11 UNL     1       1.858  36.908  65.921  1.00  0.00     0.000 C 
BRANCH  14  15
HETATM   15  C12 UNL     1       1.397  36.258  67.162  1.00  0.00     0.001 C 
BRANCH  15  16
HETATM   16  C13 UNL     1       0.949  37.072  68.284  1.00  0.00     0.010 C 
BRANCH  16  17
HETATM   17  C14 UNL     1      -0.088  36.635  69.232  1.00  0.00     0.113 C 
BRANCH  17  18
HETATM   18  C15 UNL     1      -0.122  37.346  70.521  1.00  0.00     0.172 C 
HETATM   19  O4  UNL     1       0.556  36.947  71.488  1.00  0.00    -0.648 OA
HETATM   20  O5  UNL     1      -0.919  38.480  70.666  1.00  0.00    -0.648 OA
ENDBRANCH  17  18
ENDBRANCH  16  17
ENDBRANCH  15  16
ENDBRANCH  14  15
ENDBRANCH  13  14
ENDBRANCH  12  13
ENDBRANCH  11  12
ENDBRANCH  10  11
ENDBRANCH   3  10
BRANCH   2  21
HETATM   21  O2  UNL     1       1.618  31.578  62.227  1.00  0.00    -0.390 OA
ATOM     22  H2  UNL     1       2.287  30.904  62.208  1.00  0.00     0.210 HD
ENDBRANCH   2  21
BRANCH   1  23
HETATM   23  C4  UNL     1       0.007  30.004  64.008  1.00  0.00     0.045 C 
BRANCH  23  24
HETATM   24  C2  UNL     1      -0.388  28.962  64.985  1.00  0.00    -0.020 C 
HETATM   25  C1  UNL     1      -0.005  27.613  64.355  1.00  0.00     0.009 C 
HETATM   26  C3  UNL     1      -1.883  28.897  65.224  1.00  0.00     0.009 C 
ENDBRANCH  23  24
ENDBRANCH   1  23
BRANCH   1  27
HETATM   27  O1  UNL     1       2.196  30.280  64.804  1.00  0.00    -0.386 OA
ATOM     28  H1  UNL     1       2.945  30.736  64.440  1.00  0.00     0.210 HD
ENDBRANCH   1  27
TORSDOF 13
ENDMDL
MODEL 4
REMARK VINA RESULT: -6.211673422      4.376      7.600
REMARK  13 active torsions:
REMARK  status: ('A' for Active; 'I' for Inactive)
REMARK    1  A    between atoms: C2_2  and  C4_4 
REMARK    2  A    between atoms: C4_4  and  C5_5 
REMARK    3  A    between atoms: C5_5  and  O1_6 
REMARK    4  A    between atoms: C6_8  and  O2_9 
REMARK    5  A    between atoms: C7_11  and  O3_12 
REMARK    6  A    between atoms: O3_12  and  C8_13 
REMARK    7  A    between atoms: C8_13  and  C9_14 
REMARK    8  A    between atoms: C9_14  and  C10_15 
REMARK    9  A    between atoms: C10_15  and  C11_16 
REMARK   10  A    between atoms: C11_16  and  C12_17 
REMARK   11  A    between atoms: C12_17  and  C13_18 
REMARK   12  A    between atoms: C13_18  and  C14_19 
REMARK   13  A    between atoms: C14_19  and  C15_20 
ROOT
HETATM    1  C5  UNL     1       0.914  37.959  68.604  1.00  0.00     0.100 C 
HETATM    2  C6  UNL     1       0.077  37.514  67.490  1.00  0.00     0.183 C 
HETATM    3  C7  UNL     1       0.207  36.061  67.121  1.00  0.00     0.167 C 
HETATM    4  C16 UNL     1       0.166  35.155  68.329  1.00  0.00     0.094 C 
HETATM    5 BR1  UNL     1       0.439  33.333  67.830  1.00  0.00    -0.088 Br
HETATM    6  C17 UNL     1       1.255  35.578  69.257  1.00  0.00     0.016 C 
HETATM    7  C18 UNL     1       1.385  34.682  70.468  1.00  0.00     0.012 C 
HETATM    8  C19 UNL     1       0.909  36.953  69.770  1.00  0.00     0.100 C 
HETATM    9 BR2  UNL     1      -0.835  37.018  70.571  1.00  0.00    -0.087 Br
ENDROOT
BRANCH   3  10
HETATM   10  O3  UNL     1      -0.866  35.717  66.306  1.00  0.00    -0.382 OA
BRANCH  10  11
HETATM   11  C8  UNL     1      -2.076  35.748  67.019  1.00  0.00     0.168 C 
BRANCH  11  12
HETATM   12  C9  UNL     1      -3.203  36.209  66.140  1.00  0.00     0.026 C 
BRANCH  12  13
HETATM   13  C10 UNL     1      -3.504  37.695  66.411  1.00  0.00     0.002 C 
BRANCH  13  14
HETATM   14  C11 UNL     1      -3.709  38.011  67.824  1.00  0.00     0.000 C 
BRANCH  14  15
HETATM   15  C12 UNL     1      -3.234  39.315  68.323  1.00  0.00     0.001 C 
BRANCH  15  16
HETATM   16  C13 UNL     1      -2.904  40.377  67.382  1.00  0.00     0.010 C 
BRANCH  16  17
HETATM   17  C14 UNL     1      -1.709  41.225  67.511  1.00  0.00     0.113 C 
BRANCH  17  18
HETATM   18  C15 UNL     1      -1.626  42.037  68.736  1.00  0.00     0.172 C 
HETATM   19  O4  UNL     1      -2.515  42.867  69.013  1.00  0.00    -0.648 OA
HETATM   20  O5  UNL     1      -0.545  41.879  69.600  1.00  0.00    -0.648 OA
ENDBRANCH  17  18
ENDBRANCH  16  17
ENDBRANCH  15  16
ENDBRANCH  14  15
ENDBRANCH  13  14
ENDBRANCH  12  13
ENDBRANCH  11  12
ENDBRANCH  10  11
ENDBRANCH   3  10
BRANCH   2  21
HETATM   21  O2  UNL     1       0.282  38.273  66.362  1.00  0.00    -0.390 OA
ATOM     22  H2  UNL     1      -0.445  38.204  65.754  1.00  0.00     0.210 HD
ENDBRANCH   2  21
BRANCH   1  23
HETATM   23  C4  UNL     1       2.353  38.260  68.351  1.00  0.00     0.045 C 
BRANCH  23  24
HETATM   24  C2  UNL     1       3.237  38.450  69.525  1.00  0.00    -0.020 C 
HETATM   25  C1  UNL     1       3.743  39.901  69.454  1.00  0.00     0.009 C 
HETATM   26  C3  UNL     1       4.475  37.579  69.494  1.00  0.00     0.009 C 
ENDBRANCH  23  24
ENDBRANCH   1  23
BRANCH   1  27
HETATM   27  O1  UNL     1       0.332  39.113  69.183  1.00  0.00    -0.386 OA
ATOM     28  H1  UNL     1      -0.134  39.573  68.496  1.00  0.00     0.210 HD
ENDBRANCH   1  27
TORSDOF 13
ENDMDL
MODEL 5
REMARK VINA RESULT: -6.189918697      2.584      7.924
REMARK  13 active torsions:
REMARK  status: ('A' for Active; 'I' for Inactive)
REMARK    1  A    between atoms: C2_2  and  C4_4 
REMARK    2  A    between atoms: C4_4  and  C5_5 
REMARK    3  A    between atoms: C5_5  and  O1_6 
REMARK    4  A    between atoms: C6_8  and  O2_9 
REMARK    5  A    between atoms: C7_11  and  O3_12 
REMARK    6  A    between atoms: O3_12  and  C8_13 
REMARK    7  A    between atoms: C8_13  and  C9_14 
REMARK    8  A    between atoms: C9_14  and  C10_15 
REMARK    9  A    between atoms: C10_15  and  C11_16 
REMARK   10  A    between atoms: C11_16  and  C12_17 
REMARK   11  A    between atoms: C12_17  and  C13_18 
REMARK   12  A    between atoms: C13_18  and  C14_19 
REMARK   13  A    between atoms: C14_19  and  C15_20 
ROOT
HETATM    1  C5  UNL     1      -1.959  32.002  64.226  1.00  0.00     0.100 C 
HETATM    2  C6  UNL     1      -2.124  33.341  64.791  1.00  0.00     0.183 C 
HETATM    3  C7  UNL     1      -0.859  34.143  64.937  1.00  0.00     0.167 C 
HETATM    4  C16 UNL     1       0.000  34.094  63.696  1.00  0.00     0.094 C 
HETATM    5 BR1  UNL     1       1.640  35.034  63.959  1.00  0.00    -0.088 Br
HETATM    6  C17 UNL     1       0.298  32.662  63.401  1.00  0.00     0.016 C 
HETATM    7  C18 UNL     1       1.239  32.480  62.231  1.00  0.00     0.012 C 
HETATM    8  C19 UNL     1      -1.001  31.995  63.021  1.00  0.00     0.100 C 
HETATM    9 BR2  UNL     1      -1.891  32.895  61.578  1.00  0.00    -0.087 Br
ENDROOT
BRANCH   3  10
HETATM   10  O3  UNL     1      -1.205  35.473  65.152  1.00  0.00    -0.382 OA
BRANCH  10  11
HETATM   11  C8  UNL     1      -2.115  35.925  64.181  1.00  0.00     0.168 C 
BRANCH  11  12
HETATM   12  C9  UNL     1      -1.777  37.320  63.740  1.00  0.00     0.026 C 
BRANCH  12  13
HETATM   13  C10 UNL     1      -0.675  37.903  64.643  1.00  0.00     0.002 C 
BRANCH  13  14
HETATM   14  C11 UNL     1      -0.838  39.328  64.933  1.00  0.00     0.000 C 
BRANCH  14  15
HETATM   15  C12 UNL     1      -0.731  39.771  66.335  1.00  0.00     0.001 C 
BRANCH  15  16
HETATM   16  C13 UNL     1      -1.857  40.441  66.973  1.00  0.00     0.010 C 
BRANCH  16  17
HETATM   17  C14 UNL     1      -3.260  40.068  66.727  1.00  0.00     0.113 C 
BRANCH  17  18
HETATM   18  C15 UNL     1      -3.668  38.742  67.219  1.00  0.00     0.172 C 
HETATM   19  O4  UNL     1      -3.977  37.833  66.423  1.00  0.00    -0.648 OA
HETATM   20  O5  UNL     1      -3.712  38.494  68.590  1.00  0.00    -0.648 OA
ENDBRANCH  17  18
ENDBRANCH  16  17
ENDBRANCH  15  16
ENDBRANCH  14  15
ENDBRANCH  13  14
ENDBRANCH  12  13
ENDBRANCH  11  12
ENDBRANCH  10  11
ENDBRANCH   3  10
BRANCH   2  21
HETATM   21  O2  UNL     1      -2.766  33.308  66.005  1.00  0.00    -0.390 OA
ATOM     22  H2  UNL     1      -3.518  32.726  65.991  1.00  0.00     0.210 HD
ENDBRANCH   2  21
BRANCH   1  23
HETATM   23  C4  UNL     1      -1.486  30.898  65.111  1.00  0.00     0.045 C 
BRANCH  23  24
HETATM   24  C2  UNL     1      -1.497  29.521  64.565  1.00  0.00    -0.020 C 
HETATM   25  C1  UNL     1      -2.581  28.756  65.343  1.00  0.00     0.009 C 
HETATM   26  C3  UNL     1      -0.205  28.767  64.807  1.00  0.00     0.009 C 
ENDBRANCH  23  24
ENDBRANCH   1  23
BRANCH   1  27
HETATM   27  O1  UNL     1      -3.187  31.592  63.652  1.00  0.00    -0.386 OA
ATOM     28  H1  UNL     1      -2.993  30.912  63.018  1.00  0.00     0.210 HD
ENDBRANCH   1  27
TORSDOF 13
ENDMDL
