MODEL 1
REMARK VINA RESULT: -6.120084736      0.000      0.000
REMARK  3 active torsions:
REMARK  status: ('A' for Active; 'I' for Inactive)
REMARK    1  A    between atoms: C5_5  and  O1_7 
REMARK    2  A    between atoms: C7_9  and  O2_10 
REMARK    3  A    between atoms: C9_13  and  O3_14 
ROOT
HETATM    1  C1  UNL     1      18.082  17.775  20.580  1.00  0.00     0.012 C 
HETATM    2  C2  UNL     1      17.139  17.143  20.168  1.00  0.00    -0.110 C 
HETATM    3  C3  UNL     1      16.026  16.372  19.676  1.00  0.00     0.096 C 
HETATM    4  C4  UNL     1      15.635  16.727  18.250  1.00  0.00     0.059 C 
HETATM    5  C5  UNL     1      14.652  15.632  17.816  1.00  0.00     0.081 C 
HETATM    6  C6  UNL     1      14.437  15.791  16.350  1.00  0.00     0.049 C 
HETATM    7  C7  UNL     1      13.417  15.793  18.639  1.00  0.00     0.154 C 
HETATM    8  C8  UNL     1      13.730  15.685  20.093  1.00  0.00     0.067 C 
HETATM    9  C9  UNL     1      14.803  16.670  20.525  1.00  0.00     0.136 C 
ENDROOT
BRANCH   9  10
HETATM   10  O3  UNL     1      15.056  16.522  21.868  1.00  0.00    -0.394 OA
ATOM     11  H3  UNL     1      14.266  16.341  22.362  1.00  0.00     0.210 HD
ENDBRANCH   9  10
BRANCH   5  12
HETATM   12  O1  UNL     1      15.254  14.387  18.072  1.00  0.00    -0.388 OA
ATOM     13  H1  UNL     1      15.672  14.435  18.923  1.00  0.00     0.210 HD
ENDBRANCH   5  12
BRANCH   7  14
HETATM   14  O2  UNL     1      12.498  14.790  18.323  1.00  0.00    -0.392 OA
ATOM     15  H2  UNL     1      12.215  14.880  17.421  1.00  0.00     0.210 HD
ENDBRANCH   7  14
TORSDOF 3
ENDMDL
MODEL 2
REMARK VINA RESULT: -5.971249293      1.228      1.296
REMARK  3 active torsions:
REMARK  status: ('A' for Active; 'I' for Inactive)
REMARK    1  A    between atoms: C5_5  and  O1_7 
REMARK    2  A    between atoms: C7_9  and  O2_10 
REMARK    3  A    between atoms: C9_13  and  O3_14 
ROOT
HETATM    1  C1  UNL     1      18.633  18.141  18.247  1.00  0.00     0.012 C 
HETATM    2  C2  UNL     1      17.647  17.460  18.403  1.00  0.00    -0.110 C 
HETATM    3  C3  UNL     1      16.484  16.630  18.585  1.00  0.00     0.096 C 
HETATM    4  C4  UNL     1      15.427  16.837  17.511  1.00  0.00     0.059 C 
HETATM    5  C5  UNL     1      14.425  15.693  17.705  1.00  0.00     0.081 C 
HETATM    6  C6  UNL     1      13.513  15.703  16.525  1.00  0.00     0.049 C 
HETATM    7  C7  UNL     1      13.740  15.919  19.012  1.00  0.00     0.154 C 
HETATM    8  C8  UNL     1      14.728  15.960  20.128  1.00  0.00     0.067 C 
HETATM    9  C9  UNL     1      15.814  16.996  19.897  1.00  0.00     0.136 C 
ENDROOT
BRANCH   9  10
HETATM   10  O3  UNL     1      16.698  16.985  20.950  1.00  0.00    -0.394 OA
ATOM     11  H3  UNL     1      17.209  17.784  20.996  1.00  0.00     0.210 HD
ENDBRANCH   9  10
BRANCH   5  12
HETATM   12  O1  UNL     1      15.147  14.487  17.731  1.00  0.00    -0.388 OA
ATOM     13  H1  UNL     1      14.699  13.867  17.169  1.00  0.00     0.210 HD
ENDBRANCH   5  12
BRANCH   7  14
HETATM   14  O2  UNL     1      12.845  14.878  19.270  1.00  0.00    -0.392 OA
ATOM     15  H2  UNL     1      12.833  14.682  20.199  1.00  0.00     0.210 HD
ENDBRANCH   7  14
TORSDOF 3
ENDMDL
MODEL 3
REMARK VINA RESULT: -5.571157658      1.794      2.891
REMARK  3 active torsions:
REMARK  status: ('A' for Active; 'I' for Inactive)
REMARK    1  A    between atoms: C5_5  and  O1_7 
REMARK    2  A    between atoms: C7_9  and  O2_10 
REMARK    3  A    between atoms: C9_13  and  O3_14 
ROOT
HETATM    1  C1  UNL     1      18.067  17.490  18.608  1.00  0.00     0.012 C 
HETATM    2  C2  UNL     1      16.920  17.135  18.481  1.00  0.00    -0.110 C 
HETATM    3  C3  UNL     1      15.545  16.726  18.345  1.00  0.00     0.096 C 
HETATM    4  C4  UNL     1      15.287  15.316  18.853  1.00  0.00     0.059 C 
HETATM    5  C5  UNL     1      13.760  15.173  18.891  1.00  0.00     0.081 C 
HETATM    6  C6  UNL     1      13.455  13.907  19.617  1.00  0.00     0.049 C 
HETATM    7  C7  UNL     1      13.275  15.204  17.479  1.00  0.00     0.154 C 
HETATM    8  C8  UNL     1      13.678  16.473  16.807  1.00  0.00     0.067 C 
HETATM    9  C9  UNL     1      15.177  16.708  16.873  1.00  0.00     0.136 C 
ENDROOT
BRANCH   9  10
HETATM   10  O3  UNL     1      15.489  17.890  16.246  1.00  0.00    -0.394 OA
ATOM     11  H3  UNL     1      16.221  18.333  16.660  1.00  0.00     0.210 HD
ENDBRANCH   9  10
BRANCH   5  12
HETATM   12  O1  UNL     1      13.244  16.265  19.611  1.00  0.00    -0.388 OA
ATOM     13  H1  UNL     1      12.571  15.937  20.195  1.00  0.00     0.210 HD
ENDBRANCH   5  12
BRANCH   7  14
HETATM   14  O2  UNL     1      11.881  15.127  17.451  1.00  0.00    -0.392 OA
ATOM     15  H2  UNL     1      11.559  15.377  16.594  1.00  0.00     0.210 HD
ENDBRANCH   7  14
TORSDOF 3
ENDMDL
MODEL 4
REMARK VINA RESULT: -5.467766191      2.110      4.454
REMARK  3 active torsions:
REMARK  status: ('A' for Active; 'I' for Inactive)
REMARK    1  A    between atoms: C5_5  and  O1_7 
REMARK    2  A    between atoms: C7_9  and  O2_10 
REMARK    3  A    between atoms: C9_13  and  O3_14 
ROOT
HETATM    1  C1  UNL     1      12.403  18.667  15.275  1.00  0.00     0.012 C 
HETATM    2  C2  UNL     1      12.524  17.829  16.137  1.00  0.00    -0.110 C 
HETATM    3  C3  UNL     1      12.652  16.841  17.177  1.00  0.00     0.096 C 
HETATM    4  C4  UNL     1      13.984  16.911  17.908  1.00  0.00     0.059 C 
HETATM    5  C5  UNL     1      13.822  16.000  19.132  1.00  0.00     0.081 C 
HETATM    6  C6  UNL     1      15.003  16.232  20.012  1.00  0.00     0.049 C 
HETATM    7  C7  UNL     1      13.695  14.600  18.630  1.00  0.00     0.154 C 
HETATM    8  C8  UNL     1      12.530  14.470  17.708  1.00  0.00     0.067 C 
HETATM    9  C9  UNL     1      12.597  15.457  16.555  1.00  0.00     0.136 C 
ENDROOT
BRANCH   9  10
HETATM   10  O3  UNL     1      11.499  15.298  15.744  1.00  0.00    -0.394 OA
ATOM     11  H3  UNL     1      11.716  14.860  14.929  1.00  0.00     0.210 HD
ENDBRANCH   9  10
BRANCH   5  12
HETATM   12  O1  UNL     1      12.650  16.389  19.805  1.00  0.00    -0.388 OA
ATOM     13  H1  UNL     1      12.875  17.096  20.397  1.00  0.00     0.210 HD
ENDBRANCH   5  12
BRANCH   7  14
HETATM   14  O2  UNL     1      13.494  13.725  19.700  1.00  0.00    -0.392 OA
ATOM     15  H2  UNL     1      13.231  14.211  20.472  1.00  0.00     0.210 HD
ENDBRANCH   7  14
TORSDOF 3
ENDMDL
MODEL 5
REMARK VINA RESULT: -5.460098061      1.738      2.406
REMARK  3 active torsions:
REMARK  status: ('A' for Active; 'I' for Inactive)
REMARK    1  A    between atoms: C5_5  and  O1_7 
REMARK    2  A    between atoms: C7_9  and  O2_10 
REMARK    3  A    between atoms: C9_13  and  O3_14 
ROOT
HETATM    1  C1  UNL     1      16.432  17.098  19.770  1.00  0.00     0.012 C 
HETATM    2  C2  UNL     1      15.660  16.610  18.981  1.00  0.00    -0.110 C 
HETATM    3  C3  UNL     1      14.755  16.015  18.031  1.00  0.00     0.096 C 
HETATM    4  C4  UNL     1      14.257  16.997  16.982  1.00  0.00     0.059 C 
HETATM    5  C5  UNL     1      13.557  16.137  15.922  1.00  0.00     0.081 C 
HETATM    6  C6  UNL     1      13.276  17.020  14.755  1.00  0.00     0.049 C 
HETATM    7  C7  UNL     1      12.339  15.553  16.558  1.00  0.00     0.154 C 
HETATM    8  C8  UNL     1      12.702  14.739  17.754  1.00  0.00     0.067 C 
HETATM    9  C9  UNL     1      13.516  15.531  18.762  1.00  0.00     0.136 C 
ENDROOT
BRANCH   9  10
HETATM   10  O3  UNL     1      13.827  14.732  19.837  1.00  0.00    -0.394 OA
ATOM     11  H3  UNL     1      13.165  14.070  19.994  1.00  0.00     0.210 HD
ENDBRANCH   9  10
BRANCH   5  12
HETATM   12  O1  UNL     1      14.447  15.118  15.539  1.00  0.00    -0.388 OA
ATOM     13  H1  UNL     1      13.936  14.409  15.168  1.00  0.00     0.210 HD
ENDBRANCH   5  12
BRANCH   7  14
HETATM   14  O2  UNL     1      11.683  14.716  15.653  1.00  0.00    -0.392 OA
ATOM     15  H2  UNL     1      12.313  14.165  15.204  1.00  0.00     0.210 HD
ENDBRANCH   7  14
TORSDOF 3
ENDMDL
