MODEL 1
REMARK VINA RESULT: -5.813822357      0.000      0.000
REMARK  3 active torsions:
REMARK  status: ('A' for Active; 'I' for Inactive)
REMARK    1  A    between atoms: O1_1  and  C1_3 
REMARK    2  A    between atoms: C6_8  and  O2_9 
REMARK    3  A    between atoms: C9_13  and  O3_14 
ROOT
HETATM    1  C1  UNL     1      13.302  16.701  16.403  1.00  0.00     0.147 C 
HETATM    2  C2  UNL     1      14.475  15.817  16.594  1.00  0.00     0.042 C 
HETATM    3  C3  UNL     1      15.147  15.874  17.902  1.00  0.00     0.027 C 
HETATM    4  C4  UNL     1      14.502  16.727  18.943  1.00  0.00     0.002 C 
HETATM    5  C5  UNL     1      15.001  15.681  19.952  1.00  0.00     0.043 C 
HETATM    6  C6  UNL     1      14.681  14.717  18.798  1.00  0.00     0.063 C 
HETATM    7  C7  UNL     1      13.204  14.829  18.692  1.00  0.00     0.045 C 
HETATM    8  C8  UNL     1      13.044  16.350  18.858  1.00  0.00     0.024 C 
HETATM    9  C9  UNL     1      12.497  16.987  17.617  1.00  0.00     0.151 C 
ENDROOT
BRANCH   1  10
HETATM   10  O1  UNL     1      13.703  17.892  15.753  1.00  0.00    -0.393 OA
ATOM     11  H1  UNL     1      13.432  18.644  16.265  1.00  0.00     0.210 HD
ENDBRANCH   1  10
BRANCH   9  12
HETATM   12  O3  UNL     1      11.129  16.682  17.437  1.00  0.00    -0.393 OA
ATOM     13  H3  UNL     1      10.682  17.331  16.906  1.00  0.00     0.210 HD
ENDBRANCH   9  12
BRANCH   6  14
HETATM   14  O2  UNL     1      15.321  13.564  18.735  1.00  0.00    -0.389 OA
ATOM     15  H2  UNL     1      15.529  13.109  19.543  1.00  0.00     0.210 HD
ENDBRANCH   6  14
TORSDOF 3
ENDMDL
MODEL 2
REMARK VINA RESULT: -5.538177210      1.854      3.368
REMARK  3 active torsions:
REMARK  status: ('A' for Active; 'I' for Inactive)
REMARK    1  A    between atoms: O1_1  and  C1_3 
REMARK    2  A    between atoms: C6_8  and  O2_9 
REMARK    3  A    between atoms: C9_13  and  O3_14 
ROOT
HETATM    1  C1  UNL     1      16.037  16.974  18.901  1.00  0.00     0.147 C 
HETATM    2  C2  UNL     1      15.046  16.825  17.812  1.00  0.00     0.042 C 
HETATM    3  C3  UNL     1      14.314  15.550  17.745  1.00  0.00     0.027 C 
HETATM    4  C4  UNL     1      14.556  14.586  18.859  1.00  0.00     0.002 C 
HETATM    5  C5  UNL     1      13.081  14.192  18.691  1.00  0.00     0.043 C 
HETATM    6  C6  UNL     1      12.928  15.691  18.391  1.00  0.00     0.063 C 
HETATM    7  C7  UNL     1      13.266  16.312  19.698  1.00  0.00     0.045 C 
HETATM    8  C8  UNL     1      14.471  15.444  20.096  1.00  0.00     0.024 C 
HETATM    9  C9  UNL     1      15.733  16.248  20.161  1.00  0.00     0.151 C 
ENDROOT
BRANCH   1  10
HETATM   10  O1  UNL     1      17.329  16.658  18.419  1.00  0.00    -0.393 OA
ATOM     11  H1  UNL     1      17.347  16.739  17.473  1.00  0.00     0.210 HD
ENDBRANCH   1  10
BRANCH   9  12
HETATM   12  O3  UNL     1      15.748  17.102  21.287  1.00  0.00    -0.393 OA
ATOM     13  H3  UNL     1      16.549  17.020  21.791  1.00  0.00     0.210 HD
ENDBRANCH   9  12
BRANCH   6  14
HETATM   14  O2  UNL     1      11.914  16.092  17.646  1.00  0.00    -0.389 OA
ATOM     15  H2  UNL     1      11.072  15.664  17.747  1.00  0.00     0.210 HD
ENDBRANCH   6  14
TORSDOF 3
ENDMDL
MODEL 3
REMARK VINA RESULT: -5.506349657      1.274      3.753
REMARK  3 active torsions:
REMARK  status: ('A' for Active; 'I' for Inactive)
REMARK    1  A    between atoms: O1_1  and  C1_3 
REMARK    2  A    between atoms: C6_8  and  O2_9 
REMARK    3  A    between atoms: C9_13  and  O3_14 
ROOT
HETATM    1  C1  UNL     1      14.121  15.490  19.928  1.00  0.00     0.147 C 
HETATM    2  C2  UNL     1      13.009  16.379  19.520  1.00  0.00     0.042 C 
HETATM    3  C3  UNL     1      13.162  17.098  18.246  1.00  0.00     0.027 C 
HETATM    4  C4  UNL     1      14.368  16.761  17.434  1.00  0.00     0.002 C 
HETATM    5  C5  UNL     1      13.472  16.995  16.208  1.00  0.00     0.043 C 
HETATM    6  C6  UNL     1      12.408  16.370  17.123  1.00  0.00     0.063 C 
HETATM    7  C7  UNL     1      12.903  14.978  17.281  1.00  0.00     0.045 C 
HETATM    8  C8  UNL     1      14.405  15.254  17.461  1.00  0.00     0.024 C 
HETATM    9  C9  UNL     1      14.880  14.850  18.823  1.00  0.00     0.151 C 
ENDROOT
BRANCH   1  10
HETATM   10  O1  UNL     1      14.980  16.176  20.819  1.00  0.00    -0.393 OA
ATOM     11  H1  UNL     1      15.389  15.556  21.411  1.00  0.00     0.210 HD
ENDBRANCH   1  10
BRANCH   9  12
HETATM   12  O3  UNL     1      14.938  13.444  18.958  1.00  0.00    -0.393 OA
ATOM     13  H3  UNL     1      14.571  12.995  18.206  1.00  0.00     0.210 HD
ENDBRANCH   9  12
BRANCH   6  14
HETATM   14  O2  UNL     1      11.137  16.662  16.915  1.00  0.00    -0.389 OA
ATOM     15  H2  UNL     1      10.490  16.375  17.548  1.00  0.00     0.210 HD
ENDBRANCH   6  14
TORSDOF 3
ENDMDL
MODEL 4
REMARK VINA RESULT: -5.449558968      1.698      2.228
REMARK  3 active torsions:
REMARK  status: ('A' for Active; 'I' for Inactive)
REMARK    1  A    between atoms: O1_1  and  C1_3 
REMARK    2  A    between atoms: C6_8  and  O2_9 
REMARK    3  A    between atoms: C9_13  and  O3_14 
ROOT
HETATM    1  C1  UNL     1      12.106  14.874  16.782  1.00  0.00     0.147 C 
HETATM    2  C2  UNL     1      12.743  14.371  18.021  1.00  0.00     0.042 C 
HETATM    3  C3  UNL     1      14.031  14.973  18.400  1.00  0.00     0.027 C 
HETATM    4  C4  UNL     1      14.503  16.115  17.563  1.00  0.00     0.002 C 
HETATM    5  C5  UNL     1      15.093  16.680  18.864  1.00  0.00     0.043 C 
HETATM    6  C6  UNL     1      13.826  16.056  19.469  1.00  0.00     0.063 C 
HETATM    7  C7  UNL     1      12.747  16.878  18.861  1.00  0.00     0.045 C 
HETATM    8  C8  UNL     1      13.277  16.981  17.421  1.00  0.00     0.024 C 
HETATM    9  C9  UNL     1      12.366  16.298  16.448  1.00  0.00     0.151 C 
ENDROOT
BRANCH   1  10
HETATM   10  O1  UNL     1      12.426  14.020  15.700  1.00  0.00    -0.393 OA
ATOM     11  H1  UNL     1      11.881  14.232  14.952  1.00  0.00     0.210 HD
ENDBRANCH   1  10
BRANCH   9  12
HETATM   12  O3  UNL     1      11.171  17.028  16.253  1.00  0.00    -0.393 OA
ATOM     13  H3  UNL     1      11.291  17.763  15.662  1.00  0.00     0.210 HD
ENDBRANCH   9  12
BRANCH   6  14
HETATM   14  O2  UNL     1      13.833  15.706  20.742  1.00  0.00    -0.389 OA
ATOM     15  H2  UNL     1      13.845  16.386  21.405  1.00  0.00     0.210 HD
ENDBRANCH   6  14
TORSDOF 3
ENDMDL
MODEL 5
REMARK VINA RESULT: -5.419209961      1.480      3.829
REMARK  3 active torsions:
REMARK  status: ('A' for Active; 'I' for Inactive)
REMARK    1  A    between atoms: O1_1  and  C1_3 
REMARK    2  A    between atoms: C6_8  and  O2_9 
REMARK    3  A    between atoms: C9_13  and  O3_14 
ROOT
HETATM    1  C1  UNL     1      13.367  15.857  19.186  1.00  0.00     0.147 C 
HETATM    2  C2  UNL     1      12.260  16.637  18.585  1.00  0.00     0.042 C 
HETATM    3  C3  UNL     1      12.534  17.304  17.303  1.00  0.00     0.027 C 
HETATM    4  C4  UNL     1      13.860  17.023  16.677  1.00  0.00     0.002 C 
HETATM    5  C5  UNL     1      13.124  17.128  15.333  1.00  0.00     0.043 C 
HETATM    6  C6  UNL     1      11.992  16.467  16.134  1.00  0.00     0.063 C 
HETATM    7  C7  UNL     1      12.558  15.127  16.436  1.00  0.00     0.045 C 
HETATM    8  C8  UNL     1      13.999  15.526  16.796  1.00  0.00     0.024 C 
HETATM    9  C9  UNL     1      14.312  15.226  18.230  1.00  0.00     0.151 C 
ENDROOT
BRANCH   1  10
HETATM   10  O1  UNL     1      14.046  16.649  20.141  1.00  0.00    -0.393 OA
ATOM     11  H1  UNL     1      13.440  17.266  20.535  1.00  0.00     0.210 HD
ENDBRANCH   1  10
BRANCH   9  12
HETATM   12  O3  UNL     1      14.450  13.837  18.452  1.00  0.00    -0.393 OA
ATOM     13  H3  UNL     1      15.241  13.486  18.059  1.00  0.00     0.210 HD
ENDBRANCH   9  12
BRANCH   6  14
HETATM   14  O2  UNL     1      10.744  16.649  15.744  1.00  0.00    -0.389 OA
ATOM     15  H2  UNL     1      10.366  16.045  15.115  1.00  0.00     0.210 HD
ENDBRANCH   6  14
TORSDOF 3
ENDMDL
