MODEL 1
REMARK VINA RESULT: -5.386082427      0.000      0.000
REMARK  3 active torsions:
REMARK  status: ('A' for Active; 'I' for Inactive)
REMARK    1  A    between atoms: O1_1  and  C1_3 
REMARK    2  A    between atoms: C8_10  and  O2_11 
REMARK    3  A    between atoms: C9_13  and  O3_14 
ROOT
HETATM    1  C1  UNL     1      11.857  16.099  16.048  1.00  0.00     0.118 C 
HETATM    2  C2  UNL     1      13.123  16.462  15.377  1.00  0.00     0.032 C 
HETATM    3  C3  UNL     1      14.013  17.387  16.154  1.00  0.00     0.010 C 
HETATM    4  C4  UNL     1      14.192  16.837  17.530  1.00  0.00     0.021 C 
HETATM    5  C5  UNL     1      12.914  16.698  18.265  1.00  0.00    -0.003 C 
HETATM    6  C6  UNL     1      11.703  16.466  17.460  1.00  0.00     0.037 C 
HETATM    7  C7  UNL     1      13.222  15.524  19.207  1.00  0.00     0.039 C 
HETATM    8  C8  UNL     1      13.883  14.562  18.260  1.00  0.00     0.147 C 
HETATM    9  C9  UNL     1      14.860  15.478  17.528  1.00  0.00     0.151 C 
ENDROOT
BRANCH   1  10
HETATM   10  O1  UNL     1      10.799  16.684  15.307  1.00  0.00    -0.396 OA
ATOM     11  H1  UNL     1      10.145  16.010  15.163  1.00  0.00     0.210 HD
ENDBRANCH   1  10
BRANCH   9  12
HETATM   12  O3  UNL     1      16.062  15.523  18.269  1.00  0.00    -0.393 OA
ATOM     13  H3  UNL     1      16.531  16.328  18.085  1.00  0.00     0.210 HD
ENDBRANCH   9  12
BRANCH   8  14
HETATM   14  O2  UNL     1      14.538  13.534  18.922  1.00  0.00    -0.393 OA
ATOM     15  H2  UNL     1      15.483  13.603  18.855  1.00  0.00     0.210 HD
ENDBRANCH   8  14
TORSDOF 3
ENDMDL
MODEL 2
REMARK VINA RESULT: -5.356537217      2.173      3.307
REMARK  3 active torsions:
REMARK  status: ('A' for Active; 'I' for Inactive)
REMARK    1  A    between atoms: O1_1  and  C1_3 
REMARK    2  A    between atoms: C8_10  and  O2_11 
REMARK    3  A    between atoms: C9_13  and  O3_14 
ROOT
HETATM    1  C1  UNL     1      14.497  15.837  14.328  1.00  0.00     0.118 C 
HETATM    2  C2  UNL     1      14.229  17.217  14.784  1.00  0.00     0.032 C 
HETATM    3  C3  UNL     1      12.782  17.616  14.785  1.00  0.00     0.010 C 
HETATM    4  C4  UNL     1      11.997  16.575  15.511  1.00  0.00     0.021 C 
HETATM    5  C5  UNL     1      12.107  15.235  14.890  1.00  0.00    -0.003 C 
HETATM    6  C6  UNL     1      13.350  14.938  14.159  1.00  0.00     0.037 C 
HETATM    7  C7  UNL     1      11.909  14.313  16.102  1.00  0.00     0.039 C 
HETATM    8  C8  UNL     1      12.807  14.968  17.112  1.00  0.00     0.147 C 
HETATM    9  C9  UNL     1      12.419  16.436  16.958  1.00  0.00     0.151 C 
ENDROOT
BRANCH   1  10
HETATM   10  O1  UNL     1      15.196  15.923  13.097  1.00  0.00    -0.396 OA
ATOM     11  H1  UNL     1      15.353  15.036  12.796  1.00  0.00     0.210 HD
ENDBRANCH   1  10
BRANCH   9  12
HETATM   12  O3  UNL     1      11.325  16.696  17.814  1.00  0.00    -0.393 OA
ATOM     13  H3  UNL     1      11.564  17.344  18.465  1.00  0.00     0.210 HD
ENDBRANCH   9  12
BRANCH   8  14
HETATM   14  O2  UNL     1      12.580  14.508  18.401  1.00  0.00    -0.393 OA
ATOM     15  H2  UNL     1      13.234  13.878  18.682  1.00  0.00     0.210 HD
ENDBRANCH   8  14
TORSDOF 3
ENDMDL
MODEL 3
REMARK VINA RESULT: -5.334650229      2.006      3.857
REMARK  3 active torsions:
REMARK  status: ('A' for Active; 'I' for Inactive)
REMARK    1  A    between atoms: O1_1  and  C1_3 
REMARK    2  A    between atoms: C8_10  and  O2_11 
REMARK    3  A    between atoms: C9_13  and  O3_14 
ROOT
HETATM    1  C1  UNL     1      16.235  16.834  18.513  1.00  0.00     0.118 C 
HETATM    2  C2  UNL     1      15.659  17.132  17.186  1.00  0.00     0.032 C 
HETATM    3  C3  UNL     1      14.851  16.022  16.580  1.00  0.00     0.010 C 
HETATM    4  C4  UNL     1      13.851  15.552  17.584  1.00  0.00     0.021 C 
HETATM    5  C5  UNL     1      14.478  15.044  18.825  1.00  0.00    -0.003 C 
HETATM    6  C6  UNL     1      15.780  15.619  19.199  1.00  0.00     0.037 C 
HETATM    7  C7  UNL     1      13.389  15.339  19.867  1.00  0.00     0.039 C 
HETATM    8  C8  UNL     1      13.013  16.747  19.500  1.00  0.00     0.147 C 
HETATM    9  C9  UNL     1      12.878  16.640  17.984  1.00  0.00     0.151 C 
ENDROOT
BRANCH   1  10
HETATM   10  O1  UNL     1      17.644  16.772  18.362  1.00  0.00    -0.396 OA
ATOM     11  H1  UNL     1      18.031  17.224  19.103  1.00  0.00     0.210 HD
ENDBRANCH   1  10
BRANCH   9  12
HETATM   12  O3  UNL     1      11.554  16.246  17.686  1.00  0.00    -0.393 OA
ATOM     13  H3  UNL     1      11.329  15.459  18.168  1.00  0.00     0.210 HD
ENDBRANCH   9  12
BRANCH   8  14
HETATM   14  O2  UNL     1      11.829  17.152  20.097  1.00  0.00    -0.393 OA
ATOM     15  H2  UNL     1      11.546  18.009  19.799  1.00  0.00     0.210 HD
ENDBRANCH   8  14
TORSDOF 3
ENDMDL
MODEL 4
REMARK VINA RESULT: -5.287959379      1.544      2.371
REMARK  3 active torsions:
REMARK  status: ('A' for Active; 'I' for Inactive)
REMARK    1  A    between atoms: O1_1  and  C1_3 
REMARK    2  A    between atoms: C8_10  and  O2_11 
REMARK    3  A    between atoms: C9_13  and  O3_14 
ROOT
HETATM    1  C1  UNL     1      12.451  16.077  16.824  1.00  0.00     0.118 C 
HETATM    2  C2  UNL     1      12.223  17.231  17.719  1.00  0.00     0.032 C 
HETATM    3  C3  UNL     1      12.091  16.891  19.174  1.00  0.00     0.010 C 
HETATM    4  C4  UNL     1      13.246  16.033  19.573  1.00  0.00     0.021 C 
HETATM    5  C5  UNL     1      13.314  14.768  18.806  1.00  0.00    -0.003 C 
HETATM    6  C6  UNL     1      12.760  14.784  17.443  1.00  0.00     0.037 C 
HETATM    7  C7  UNL     1      14.823  14.477  18.820  1.00  0.00     0.039 C 
HETATM    8  C8  UNL     1      15.380  15.829  18.473  1.00  0.00     0.147 C 
HETATM    9  C9  UNL     1      14.576  16.736  19.401  1.00  0.00     0.151 C 
ENDROOT
BRANCH   1  10
HETATM   10  O1  UNL     1      11.296  15.931  16.014  1.00  0.00    -0.396 OA
ATOM     11  H1  UNL     1      11.468  16.371  15.189  1.00  0.00     0.210 HD
ENDBRANCH   1  10
BRANCH   9  12
HETATM   12  O3  UNL     1      15.252  16.812  20.639  1.00  0.00    -0.393 OA
ATOM     13  H3  UNL     1      14.633  16.747  21.357  1.00  0.00     0.210 HD
ENDBRANCH   9  12
BRANCH   8  14
HETATM   14  O2  UNL     1      16.742  15.919  18.718  1.00  0.00    -0.393 OA
ATOM     15  H2  UNL     1      17.260  15.831  17.926  1.00  0.00     0.210 HD
ENDBRANCH   8  14
TORSDOF 3
ENDMDL
MODEL 5
REMARK VINA RESULT: -5.247951695      2.747      4.710
REMARK  3 active torsions:
REMARK  status: ('A' for Active; 'I' for Inactive)
REMARK    1  A    between atoms: O1_1  and  C1_3 
REMARK    2  A    between atoms: C8_10  and  O2_11 
REMARK    3  A    between atoms: C9_13  and  O3_14 
ROOT
HETATM    1  C1  UNL     1      15.102  16.467  22.047  1.00  0.00     0.118 C 
HETATM    2  C2  UNL     1      13.635  16.323  22.150  1.00  0.00     0.032 C 
HETATM    3  C3  UNL     1      12.859  16.879  20.992  1.00  0.00     0.010 C 
HETATM    4  C4  UNL     1      13.434  16.338  19.725  1.00  0.00     0.021 C 
HETATM    5  C5  UNL     1      14.859  16.696  19.542  1.00  0.00    -0.003 C 
HETATM    6  C6  UNL     1      15.657  16.902  20.761  1.00  0.00     0.037 C 
HETATM    7  C7  UNL     1      15.370  15.516  18.702  1.00  0.00     0.039 C 
HETATM    8  C8  UNL     1      14.771  14.354  19.442  1.00  0.00     0.147 C 
HETATM    9  C9  UNL     1      13.334  14.830  19.642  1.00  0.00     0.151 C 
ENDROOT
BRANCH   1  10
HETATM   10  O1  UNL     1      15.512  17.379  23.053  1.00  0.00    -0.396 OA
ATOM     11  H1  UNL     1      15.722  18.201  22.626  1.00  0.00     0.210 HD
ENDBRANCH   1  10
BRANCH   9  12
HETATM   12  O3  UNL     1      12.582  14.451  18.508  1.00  0.00    -0.393 OA
ATOM     13  H3  UNL     1      12.776  13.552  18.270  1.00  0.00     0.210 HD
ENDBRANCH   9  12
BRANCH   8  14
HETATM   14  O2  UNL     1      14.827  13.176  18.714  1.00  0.00    -0.393 OA
ATOM     15  H2  UNL     1      14.837  12.405  19.269  1.00  0.00     0.210 HD
ENDBRANCH   8  14
TORSDOF 3
ENDMDL
