MODEL 1
REMARK VINA RESULT: -5.536895304      0.000      0.000
REMARK  3 active torsions:
REMARK  status: ('A' for Active; 'I' for Inactive)
REMARK    1  A    between atoms: C6_6  and  O1_7 
REMARK    2  A    between atoms: C7_9  and  O2_11 
REMARK    3  A    between atoms: C9_13  and  O3_14 
ROOT
HETATM    1  C1  UNL     1      16.649  16.543  18.801  1.00  0.00     0.017 C 
HETATM    2  C2  UNL     1      15.204  16.137  19.049  1.00  0.00    -0.019 C 
HETATM    3  C3  UNL     1      14.904  16.473  20.509  1.00  0.00     0.017 C 
HETATM    4  C4  UNL     1      15.095  14.650  18.907  1.00  0.00     0.014 C 
HETATM    5  C5  UNL     1      13.630  14.284  19.006  1.00  0.00     0.036 C 
HETATM    6  C6  UNL     1      12.965  14.849  17.749  1.00  0.00     0.154 C 
HETATM    7  C7  UNL     1      13.007  16.335  17.840  1.00  0.00     0.106 C 
HETATM    8  C8  UNL     1      12.492  16.961  16.543  1.00  0.00     0.051 C 
HETATM    9  C9  UNL     1      14.342  16.917  18.127  1.00  0.00     0.162 C 
ENDROOT
BRANCH   7  10
HETATM   10  O2  UNL     1      12.102  16.731  18.835  1.00  0.00    -0.385 OA
ATOM     11  H2  UNL     1      12.557  17.321  19.424  1.00  0.00     0.210 HD
ENDBRANCH   7  10
BRANCH   6  12
HETATM   12  O1  UNL     1      11.640  14.417  17.789  1.00  0.00    -0.392 OA
ATOM     13  H1  UNL     1      11.184  14.909  17.116  1.00  0.00     0.210 HD
ENDBRANCH   6  12
BRANCH   9  14
HETATM   14  O3  UNL     1      14.977  17.182  16.915  1.00  0.00    -0.392 OA
ATOM     15  H3  UNL     1      15.227  18.095  16.835  1.00  0.00     0.210 HD
ENDBRANCH   9  14
TORSDOF 3
ENDMDL
MODEL 2
REMARK VINA RESULT: -5.360132728      1.277      1.505
REMARK  3 active torsions:
REMARK  status: ('A' for Active; 'I' for Inactive)
REMARK    1  A    between atoms: C6_6  and  O1_7 
REMARK    2  A    between atoms: C7_9  and  O2_11 
REMARK    3  A    between atoms: C9_13  and  O3_14 
ROOT
HETATM    1  C1  UNL     1      15.395  16.566  19.097  1.00  0.00     0.017 C 
HETATM    2  C2  UNL     1      13.996  16.219  18.611  1.00  0.00    -0.019 C 
HETATM    3  C3  UNL     1      13.041  16.577  19.749  1.00  0.00     0.017 C 
HETATM    4  C4  UNL     1      13.913  14.737  18.416  1.00  0.00     0.014 C 
HETATM    5  C5  UNL     1      12.569  14.430  17.790  1.00  0.00     0.036 C 
HETATM    6  C6  UNL     1      12.615  15.011  16.376  1.00  0.00     0.154 C 
HETATM    7  C7  UNL     1      12.665  16.495  16.495  1.00  0.00     0.106 C 
HETATM    8  C8  UNL     1      12.864  17.132  15.118  1.00  0.00     0.051 C 
HETATM    9  C9  UNL     1      13.716  17.026  17.397  1.00  0.00     0.162 C 
ENDROOT
BRANCH   7  10
HETATM   10  O2  UNL     1      11.408  16.933  16.934  1.00  0.00    -0.385 OA
ATOM     11  H2  UNL     1      11.175  17.703  16.430  1.00  0.00     0.210 HD
ENDBRANCH   7  10
BRANCH   6  12
HETATM   12  O1  UNL     1      11.421  14.632  15.766  1.00  0.00    -0.392 OA
ATOM     13  H1  UNL     1      11.606  14.584  14.835  1.00  0.00     0.210 HD
ENDBRANCH   6  12
BRANCH   9  14
HETATM   14  O3  UNL     1      14.867  17.257  16.646  1.00  0.00    -0.392 OA
ATOM     15  H3  UNL     1      14.670  17.647  15.802  1.00  0.00     0.210 HD
ENDBRANCH   9  14
TORSDOF 3
ENDMDL
MODEL 3
REMARK VINA RESULT: -5.219863753      1.270      2.836
REMARK  3 active torsions:
REMARK  status: ('A' for Active; 'I' for Inactive)
REMARK    1  A    between atoms: C6_6  and  O1_7 
REMARK    2  A    between atoms: C7_9  and  O2_11 
REMARK    3  A    between atoms: C9_13  and  O3_14 
ROOT
HETATM    1  C1  UNL     1      13.704  16.042  20.573  1.00  0.00     0.017 C 
HETATM    2  C2  UNL     1      14.132  15.815  19.130  1.00  0.00    -0.019 C 
HETATM    3  C3  UNL     1      14.722  14.407  19.071  1.00  0.00     0.017 C 
HETATM    4  C4  UNL     1      15.238  16.770  18.805  1.00  0.00     0.014 C 
HETATM    5  C5  UNL     1      15.545  16.634  17.329  1.00  0.00     0.036 C 
HETATM    6  C6  UNL     1      14.322  17.179  16.589  1.00  0.00     0.154 C 
HETATM    7  C7  UNL     1      13.185  16.252  16.842  1.00  0.00     0.106 C 
HETATM    8  C8  UNL     1      11.894  16.822  16.252  1.00  0.00     0.051 C 
HETATM    9  C9  UNL     1      12.930  15.933  18.269  1.00  0.00     0.162 C 
ENDROOT
BRANCH   7  10
HETATM   10  O2  UNL     1      13.431  15.066  16.136  1.00  0.00    -0.385 OA
ATOM     11  H2  UNL     1      12.906  14.379  16.529  1.00  0.00     0.210 HD
ENDBRANCH   7  10
BRANCH   6  12
HETATM   12  O1  UNL     1      14.652  17.154  15.234  1.00  0.00    -0.392 OA
ATOM     13  H1  UNL     1      14.328  16.325  14.902  1.00  0.00     0.210 HD
ENDBRANCH   6  12
BRANCH   9  14
HETATM   14  O3  UNL     1      12.016  16.858  18.771  1.00  0.00    -0.392 OA
ATOM     15  H3  UNL     1      11.172  16.461  18.956  1.00  0.00     0.210 HD
ENDBRANCH   9  14
TORSDOF 3
ENDMDL
MODEL 4
REMARK VINA RESULT: -5.206876694      1.638      3.537
REMARK  3 active torsions:
REMARK  status: ('A' for Active; 'I' for Inactive)
REMARK    1  A    between atoms: C6_6  and  O1_7 
REMARK    2  A    between atoms: C7_9  and  O2_11 
REMARK    3  A    between atoms: C9_13  and  O3_14 
ROOT
HETATM    1  C1  UNL     1      14.785  15.915  14.775  1.00  0.00     0.017 C 
HETATM    2  C2  UNL     1      13.577  15.957  15.699  1.00  0.00    -0.019 C 
HETATM    3  C3  UNL     1      12.392  15.439  14.886  1.00  0.00     0.017 C 
HETATM    4  C4  UNL     1      13.287  17.386  16.039  1.00  0.00     0.014 C 
HETATM    5  C5  UNL     1      12.183  17.397  17.075  1.00  0.00     0.036 C 
HETATM    6  C6  UNL     1      12.789  16.804  18.348  1.00  0.00     0.154 C 
HETATM    7  C7  UNL     1      13.072  15.365  18.090  1.00  0.00     0.106 C 
HETATM    8  C8  UNL     1      13.818  14.749  19.276  1.00  0.00     0.051 C 
HETATM    9  C9  UNL     1      13.858  15.081  16.863  1.00  0.00     0.162 C 
ENDROOT
BRANCH   7  10
HETATM   10  O2  UNL     1      11.845  14.690  18.025  1.00  0.00    -0.385 OA
ATOM     11  H2  UNL     1      11.415  14.787  18.866  1.00  0.00     0.210 HD
ENDBRANCH   7  10
BRANCH   6  12
HETATM   12  O1  UNL     1      11.804  16.916  19.329  1.00  0.00    -0.392 OA
ATOM     13  H1  UNL     1      11.485  17.810  19.277  1.00  0.00     0.210 HD
ENDBRANCH   6  12
BRANCH   9  14
HETATM   14  O3  UNL     1      15.211  15.073  17.198  1.00  0.00    -0.392 OA
ATOM     15  H3  UNL     1      15.733  14.601  16.559  1.00  0.00     0.210 HD
ENDBRANCH   9  14
TORSDOF 3
ENDMDL
MODEL 5
REMARK VINA RESULT: -5.205794056      1.777      3.223
REMARK  3 active torsions:
REMARK  status: ('A' for Active; 'I' for Inactive)
REMARK    1  A    between atoms: C6_6  and  O1_7 
REMARK    2  A    between atoms: C7_9  and  O2_11 
REMARK    3  A    between atoms: C9_13  and  O3_14 
ROOT
HETATM    1  C1  UNL     1      12.947  16.465  19.497  1.00  0.00     0.017 C 
HETATM    2  C2  UNL     1      13.414  15.883  18.171  1.00  0.00    -0.019 C 
HETATM    3  C3  UNL     1      13.992  14.503  18.484  1.00  0.00     0.017 C 
HETATM    4  C4  UNL     1      14.538  16.723  17.651  1.00  0.00     0.014 C 
HETATM    5  C5  UNL     1      14.886  16.221  16.266  1.00  0.00     0.036 C 
HETATM    6  C6  UNL     1      13.691  16.567  15.376  1.00  0.00     0.154 C 
HETATM    7  C7  UNL     1      12.538  15.735  15.819  1.00  0.00     0.106 C 
HETATM    8  C8  UNL     1      11.270  16.142  15.065  1.00  0.00     0.051 C 
HETATM    9  C9  UNL     1      12.239  15.785  17.271  1.00  0.00     0.162 C 
ENDROOT
BRANCH   7  10
HETATM   10  O2  UNL     1      12.793  14.410  15.439  1.00  0.00    -0.385 OA
ATOM     11  H2  UNL     1      12.777  13.875  16.224  1.00  0.00     0.210 HD
ENDBRANCH   7  10
BRANCH   6  12
HETATM   12  O1  UNL     1      14.059  16.202  14.081  1.00  0.00    -0.392 OA
ATOM     13  H1  UNL     1      14.533  16.945  13.726  1.00  0.00     0.210 HD
ENDBRANCH   6  12
BRANCH   9  14
HETATM   14  O3  UNL     1      11.320  16.808  17.498  1.00  0.00    -0.392 OA
ATOM     15  H3  UNL     1      11.732  17.584  17.860  1.00  0.00     0.210 HD
ENDBRANCH   9  14
TORSDOF 3
ENDMDL
