MODEL 1
REMARK VINA RESULT: -5.556802323      0.000      0.000
REMARK  3 active torsions:
REMARK  status: ('A' for Active; 'I' for Inactive)
REMARK    1  A    between atoms: N1_1  and  C1_5 
REMARK    2  A    between atoms: C5_9  and  O1_10 
REMARK    3  A    between atoms: C7_13  and  O2_14 
ROOT
HETATM    1  C1  UNL     1      12.156  15.286  15.506  1.00  0.00     0.184 C 
HETATM    2  C2  UNL     1      12.028  16.729  15.764  1.00  0.00     0.033 C 
HETATM    3  C3  UNL     1      12.543  17.258  17.037  1.00  0.00     0.010 C 
HETATM    4  C4  UNL     1      12.651  16.304  18.162  1.00  0.00     0.021 C 
HETATM    5  C5  UNL     1      13.682  16.671  19.200  1.00  0.00     0.125 C 
HETATM    6  C6  UNL     1      13.799  15.349  19.958  1.00  0.00     0.064 C 
HETATM    7  C7  UNL     1      13.492  14.266  18.918  1.00  0.00     0.125 C 
HETATM    8  C8  UNL     1      13.291  15.008  17.638  1.00  0.00     0.023 C 
HETATM    9  C9  UNL     1      12.301  14.409  16.706  1.00  0.00     0.040 C 
ENDROOT
BRANCH   1  10
HETATM   10  N1  UNL     1      13.249  15.017  14.559  1.00  0.00    -0.075 N 
ATOM     11  H13 UNL     1      13.083  15.461  13.656  1.00  0.00     0.274 HD
ATOM     12  H12 UNL     1      14.103  15.511  14.820  1.00  0.00     0.274 HD
ATOM     13  H11 UNL     1      13.409  14.014  14.462  1.00  0.00     0.274 HD
ENDBRANCH   1  10
BRANCH   7  14
HETATM   14  O2  UNL     1      14.526  13.359  18.893  1.00  0.00    -0.395 OA
ATOM     15  H2  UNL     1      14.412  12.737  19.603  1.00  0.00     0.210 HD
ENDBRANCH   7  14
BRANCH   5  16
HETATM   16  O1  UNL     1      14.910  16.853  18.560  1.00  0.00    -0.395 OA
ATOM     17  H1  UNL     1      15.530  16.225  18.911  1.00  0.00     0.210 HD
ENDBRANCH   5  16
TORSDOF 3
ENDMDL
MODEL 2
REMARK VINA RESULT: -5.556469264      2.792      4.302
REMARK  3 active torsions:
REMARK  status: ('A' for Active; 'I' for Inactive)
REMARK    1  A    between atoms: N1_1  and  C1_5 
REMARK    2  A    between atoms: C5_9  and  O1_10 
REMARK    3  A    between atoms: C7_13  and  O2_14 
ROOT
HETATM    1  C1  UNL     1      16.925  17.418  19.154  1.00  0.00     0.184 C 
HETATM    2  C2  UNL     1      16.484  16.944  20.475  1.00  0.00     0.033 C 
HETATM    3  C3  UNL     1      15.386  15.965  20.534  1.00  0.00     0.010 C 
HETATM    4  C4  UNL     1      14.463  15.927  19.378  1.00  0.00     0.021 C 
HETATM    5  C5  UNL     1      13.767  14.605  19.175  1.00  0.00     0.125 C 
HETATM    6  C6  UNL     1      13.232  14.786  17.753  1.00  0.00     0.064 C 
HETATM    7  C7  UNL     1      14.237  15.720  17.068  1.00  0.00     0.125 C 
HETATM    8  C8  UNL     1      15.300  15.957  18.089  1.00  0.00     0.023 C 
HETATM    9  C9  UNL     1      15.935  17.299  18.042  1.00  0.00     0.040 C 
ENDROOT
BRANCH   1  10
HETATM   10  N1  UNL     1      18.190  16.777  18.762  1.00  0.00    -0.075 N 
ATOM     11  H13 UNL     1      18.618  16.279  19.543  1.00  0.00     0.274 HD
ATOM     12  H12 UNL     1      18.034  15.983  18.140  1.00  0.00     0.274 HD
ATOM     13  H11 UNL     1      18.831  17.456  18.351  1.00  0.00     0.274 HD
ENDBRANCH   1  10
BRANCH   7  14
HETATM   14  O2  UNL     1      14.683  15.127  15.909  1.00  0.00    -0.395 OA
ATOM     15  H2  UNL     1      14.641  15.758  15.201  1.00  0.00     0.210 HD
ENDBRANCH   7  14
BRANCH   5  16
HETATM   16  O1  UNL     1      14.734  13.601  19.093  1.00  0.00    -0.395 OA
ATOM     17  H1  UNL     1      15.591  13.998  19.201  1.00  0.00     0.210 HD
ENDBRANCH   5  16
TORSDOF 3
ENDMDL
MODEL 3
REMARK VINA RESULT: -5.462478066      2.148      2.724
REMARK  3 active torsions:
REMARK  status: ('A' for Active; 'I' for Inactive)
REMARK    1  A    between atoms: N1_1  and  C1_5 
REMARK    2  A    between atoms: C5_9  and  O1_10 
REMARK    3  A    between atoms: C7_13  and  O2_14 
ROOT
HETATM    1  C1  UNL     1      14.678  17.698  15.545  1.00  0.00     0.184 C 
HETATM    2  C2  UNL     1      15.986  17.713  16.220  1.00  0.00     0.033 C 
HETATM    3  C3  UNL     1      16.147  16.915  17.446  1.00  0.00     0.010 C 
HETATM    4  C4  UNL     1      14.916  16.602  18.205  1.00  0.00     0.021 C 
HETATM    5  C5  UNL     1      15.002  15.357  19.053  1.00  0.00     0.125 C 
HETATM    6  C6  UNL     1      13.522  15.129  19.365  1.00  0.00     0.064 C 
HETATM    7  C7  UNL     1      12.770  15.694  18.155  1.00  0.00     0.125 C 
HETATM    8  C8  UNL     1      13.839  16.140  17.211  1.00  0.00     0.023 C 
HETATM    9  C9  UNL     1      13.501  17.329  16.388  1.00  0.00     0.040 C 
ENDROOT
BRANCH   1  10
HETATM   10  N1  UNL     1      14.716  16.847  14.346  1.00  0.00    -0.075 N 
ATOM     11  H13 UNL     1      15.009  17.370  13.521  1.00  0.00     0.274 HD
ATOM     12  H12 UNL     1      15.484  16.176  14.385  1.00  0.00     0.274 HD
ATOM     13  H11 UNL     1      13.818  16.384  14.199  1.00  0.00     0.274 HD
ENDBRANCH   1  10
BRANCH   7  14
HETATM   14  O2  UNL     1      11.934  14.724  17.651  1.00  0.00    -0.395 OA
ATOM     15  H2  UNL     1      11.045  15.058  17.635  1.00  0.00     0.210 HD
ENDBRANCH   7  14
BRANCH   5  16
HETATM   16  O1  UNL     1      15.389  14.291  18.239  1.00  0.00    -0.395 OA
ATOM     17  H1  UNL     1      14.664  14.069  17.667  1.00  0.00     0.210 HD
ENDBRANCH   5  16
TORSDOF 3
ENDMDL
MODEL 4
REMARK VINA RESULT: -5.357312004      2.576      3.792
REMARK  3 active torsions:
REMARK  status: ('A' for Active; 'I' for Inactive)
REMARK    1  A    between atoms: N1_1  and  C1_5 
REMARK    2  A    between atoms: C5_9  and  O1_10 
REMARK    3  A    between atoms: C7_13  and  O2_14 
ROOT
HETATM    1  C1  UNL     1      14.759  15.008  19.008  1.00  0.00     0.184 C 
HETATM    2  C2  UNL     1      13.668  15.759  19.649  1.00  0.00     0.033 C 
HETATM    3  C3  UNL     1      12.740  16.511  18.788  1.00  0.00     0.010 C 
HETATM    4  C4  UNL     1      13.241  16.910  17.455  1.00  0.00     0.021 C 
HETATM    5  C5  UNL     1      12.166  17.119  16.417  1.00  0.00     0.125 C 
HETATM    6  C6  UNL     1      13.008  17.130  15.141  1.00  0.00     0.064 C 
HETATM    7  C7  UNL     1      14.205  16.222  15.447  1.00  0.00     0.125 C 
HETATM    8  C8  UNL     1      13.950  15.701  16.823  1.00  0.00     0.023 C 
HETATM    9  C9  UNL     1      15.165  15.461  17.644  1.00  0.00     0.040 C 
ENDROOT
BRANCH   1  10
HETATM   10  N1  UNL     1      14.460  13.567  18.983  1.00  0.00    -0.075 N 
ATOM     11  H13 UNL     1      14.979  13.062  19.701  1.00  0.00     0.274 HD
ATOM     12  H12 UNL     1      13.514  13.373  19.311  1.00  0.00     0.274 HD
ATOM     13  H11 UNL     1      14.624  13.177  18.054  1.00  0.00     0.274 HD
ENDBRANCH   1  10
BRANCH   7  14
HETATM   14  O2  UNL     1      14.292  15.250  14.477  1.00  0.00    -0.395 OA
ATOM     15  H2  UNL     1      15.179  14.911  14.456  1.00  0.00     0.210 HD
ENDBRANCH   7  14
BRANCH   5  16
HETATM   16  O1  UNL     1      11.384  15.964  16.349  1.00  0.00    -0.395 OA
ATOM     17  H1  UNL     1      10.606  16.155  15.840  1.00  0.00     0.210 HD
ENDBRANCH   5  16
TORSDOF 3
ENDMDL
MODEL 5
REMARK VINA RESULT: -5.301744149      4.131      5.261
REMARK  3 active torsions:
REMARK  status: ('A' for Active; 'I' for Inactive)
REMARK    1  A    between atoms: N1_1  and  C1_5 
REMARK    2  A    between atoms: C5_9  and  O1_10 
REMARK    3  A    between atoms: C7_13  and  O2_14 
ROOT
HETATM    1  C1  UNL     1      15.225  16.127  19.158  1.00  0.00     0.184 C 
HETATM    2  C2  UNL     1      16.463  16.580  18.504  1.00  0.00     0.033 C 
HETATM    3  C3  UNL     1      17.536  17.130  19.349  1.00  0.00     0.010 C 
HETATM    4  C4  UNL     1      17.135  17.686  20.659  1.00  0.00     0.021 C 
HETATM    5  C5  UNL     1      18.225  17.682  21.703  1.00  0.00     0.125 C 
HETATM    6  C6  UNL     1      17.403  17.937  22.967  1.00  0.00     0.064 C 
HETATM    7  C7  UNL     1      16.030  17.320  22.679  1.00  0.00     0.125 C 
HETATM    8  C8  UNL     1      16.163  16.700  21.326  1.00  0.00     0.023 C 
HETATM    9  C9  UNL     1      14.929  16.716  20.498  1.00  0.00     0.040 C 
ENDROOT
BRANCH   1  10
HETATM   10  N1  UNL     1      15.182  14.659  19.241  1.00  0.00    -0.075 N 
ATOM     11  H13 UNL     1      15.956  14.231  18.732  1.00  0.00     0.274 HD
ATOM     12  H12 UNL     1      15.411  14.328  20.178  1.00  0.00     0.274 HD
ATOM     13  H11 UNL     1      14.280  14.303  18.925  1.00  0.00     0.274 HD
ENDBRANCH   1  10
BRANCH   7  14
HETATM   14  O2  UNL     1      15.715  16.433  23.683  1.00  0.00    -0.395 OA
ATOM     15  H2  UNL     1      15.121  15.776  23.342  1.00  0.00     0.210 HD
ENDBRANCH   7  14
BRANCH   5  16
HETATM   16  O1  UNL     1      18.717  16.381  21.824  1.00  0.00    -0.395 OA
ATOM     17  H1  UNL     1      18.076  15.857  22.289  1.00  0.00     0.210 HD
ENDBRANCH   5  16
TORSDOF 3
ENDMDL
