MODEL 1
REMARK VINA RESULT: -5.820376167      0.000      0.000
REMARK  1 active torsions:
REMARK  status: ('A' for Active; 'I' for Inactive)
REMARK    1  A    between atoms: C2_2  and  C4_7 
ROOT
HETATM    1  C1  UNL     1      12.539 -14.258  40.223  1.00  0.00     0.066 C 
HETATM    2  C2  UNL     1      12.707 -13.418  41.434  1.00  0.00     0.015 C 
HETATM    3  N1  UNL     1      11.640 -12.870  41.897  1.00  0.00    -0.300 N 
ATOM      4  H1  UNL     1      11.731 -12.288  42.730  1.00  0.00     0.177 HD
HETATM    5  C3  UNL     1      10.373 -13.013  41.346  1.00  0.00     0.181 C 
HETATM    6  N2  UNL     1       9.322 -13.143  40.906  1.00  0.00    -0.172 NA
ENDROOT
BRANCH   2   7
HETATM    7  C4  UNL     1      13.978 -13.174  42.126  1.00  0.00     0.129 C 
HETATM    8  C5  UNL     1      13.716 -12.784  43.557  1.00  0.00     0.038 C 
HETATM    9  C6  UNL     1      14.876 -13.274  44.371  1.00  0.00     0.078 C 
HETATM   10  C7  UNL     1      15.563 -14.228  43.436  1.00  0.00     0.071 C 
HETATM   11  N3  UNL     1      16.669 -14.809  43.767  1.00  0.00    -0.389 N 
HETATM   12  N4  UNL     1      14.808 -14.331  42.245  1.00  0.00    -0.370 N 
ATOM     13  H32 UNL     1      17.214 -14.735  44.625  1.00  0.00     0.157 HD
ATOM     14  H31 UNL     1      17.136 -15.457  43.132  1.00  0.00     0.157 HD
ATOM     15  H4  UNL     1      14.848 -15.103  41.580  1.00  0.00     0.161 HD
ENDBRANCH   2   7
TORSDOF 1
ENDMDL
MODEL 2
REMARK VINA RESULT: -5.679372773      2.410      3.250
REMARK  1 active torsions:
REMARK  status: ('A' for Active; 'I' for Inactive)
REMARK    1  A    between atoms: C2_2  and  C4_7 
ROOT
HETATM    1  C1  UNL     1      13.008 -13.172  41.796  1.00  0.00     0.066 C 
HETATM    2  C2  UNL     1      14.255 -13.851  42.225  1.00  0.00     0.015 C 
HETATM    3  N1  UNL     1      14.630 -14.852  41.510  1.00  0.00    -0.300 N 
ATOM      4  H1  UNL     1      15.486 -15.335  41.784  1.00  0.00     0.177 HD
HETATM    5  C3  UNL     1      13.955 -15.324  40.392  1.00  0.00     0.181 C 
HETATM    6  N2  UNL     1      13.412 -15.706  39.456  1.00  0.00    -0.172 NA
ENDROOT
BRANCH   2   7
HETATM    7  C4  UNL     1      15.075 -13.470  43.381  1.00  0.00     0.129 C 
HETATM    8  C5  UNL     1      16.260 -12.660  42.924  1.00  0.00     0.038 C 
HETATM    9  C6  UNL     1      16.597 -11.703  44.028  1.00  0.00     0.078 C 
HETATM   10  C7  UNL     1      15.378 -11.759  44.905  1.00  0.00     0.071 C 
HETATM   11  N3  UNL     1      15.323 -11.105  46.019  1.00  0.00    -0.389 N 
HETATM   12  N4  UNL     1      14.413 -12.599  44.300  1.00  0.00    -0.370 N 
ATOM     13  H32 UNL     1      16.018 -10.501  46.455  1.00  0.00     0.157 HD
ATOM     14  H31 UNL     1      14.496 -11.144  46.614  1.00  0.00     0.157 HD
ATOM     15  H4  UNL     1      13.411 -12.585  44.489  1.00  0.00     0.161 HD
ENDBRANCH   2   7
TORSDOF 1
ENDMDL
MODEL 3
REMARK VINA RESULT: -5.515523326      2.160      2.569
REMARK  1 active torsions:
REMARK  status: ('A' for Active; 'I' for Inactive)
REMARK    1  A    between atoms: C2_2  and  C4_7 
ROOT
HETATM    1  C1  UNL     1      14.539 -14.807  41.249  1.00  0.00     0.066 C 
HETATM    2  C2  UNL     1      14.243 -13.746  42.243  1.00  0.00     0.015 C 
HETATM    3  N1  UNL     1      13.172 -13.064  42.041  1.00  0.00    -0.300 N 
ATOM      4  H1  UNL     1      12.946 -12.329  42.712  1.00  0.00     0.177 HD
HETATM    5  C3  UNL     1      12.300 -13.254  40.978  1.00  0.00     0.181 C 
HETATM    6  N2  UNL     1      11.566 -13.419  40.111  1.00  0.00    -0.172 NA
ENDROOT
BRANCH   2   7
HETATM    7  C4  UNL     1      15.067 -13.428  43.414  1.00  0.00     0.129 C 
HETATM    8  C5  UNL     1      16.272 -12.630  42.992  1.00  0.00     0.038 C 
HETATM    9  C6  UNL     1      16.628 -11.724  44.133  1.00  0.00     0.078 C 
HETATM   10  C7  UNL     1      15.405 -11.785  45.004  1.00  0.00     0.071 C 
HETATM   11  N3  UNL     1      15.362 -11.174  46.142  1.00  0.00    -0.389 N 
HETATM   12  N4  UNL     1      14.423 -12.578  44.365  1.00  0.00    -0.370 N 
ATOM     13  H32 UNL     1      16.070 -10.602  46.603  1.00  0.00     0.157 HD
ATOM     14  H31 UNL     1      14.532 -11.215  46.733  1.00  0.00     0.157 HD
ATOM     15  H4  UNL     1      13.421 -12.549  44.552  1.00  0.00     0.161 HD
ENDBRANCH   2   7
TORSDOF 1
ENDMDL
MODEL 4
REMARK VINA RESULT: -5.513949016      1.504      1.799
REMARK  1 active torsions:
REMARK  status: ('A' for Active; 'I' for Inactive)
REMARK    1  A    between atoms: C2_2  and  C4_7 
ROOT
HETATM    1  C1  UNL     1      10.325 -13.071  41.920  1.00  0.00     0.066 C 
HETATM    2  C2  UNL     1      11.600 -13.505  41.298  1.00  0.00     0.015 C 
HETATM    3  N1  UNL     1      11.504 -14.367  40.350  1.00  0.00    -0.300 N 
ATOM      4  H1  UNL     1      12.368 -14.680  39.905  1.00  0.00     0.177 HD
HETATM    5  C3  UNL     1      10.310 -14.904  39.885  1.00  0.00     0.181 C 
HETATM    6  N2  UNL     1       9.326 -15.337  39.485  1.00  0.00    -0.172 NA
ENDROOT
BRANCH   2   7
HETATM    7  C4  UNL     1      12.935 -13.028  41.680  1.00  0.00     0.129 C 
HETATM    8  C5  UNL     1      12.970 -12.729  43.155  1.00  0.00     0.038 C 
HETATM    9  C6  UNL     1      14.367 -12.996  43.630  1.00  0.00     0.078 C 
HETATM   10  C7  UNL     1      14.965 -13.776  42.493  1.00  0.00     0.071 C 
HETATM   11  N3  UNL     1      16.207 -14.133  42.506  1.00  0.00    -0.389 N 
HETATM   12  N4  UNL     1      13.969 -14.001  41.514  1.00  0.00    -0.370 N 
ATOM     13  H32 UNL     1      16.925 -13.971  43.212  1.00  0.00     0.157 HD
ATOM     14  H31 UNL     1      16.613 -14.662  41.735  1.00  0.00     0.157 HD
ATOM     15  H4  UNL     1      13.985 -14.735  40.807  1.00  0.00     0.161 HD
ENDBRANCH   2   7
TORSDOF 1
ENDMDL
MODEL 5
REMARK VINA RESULT: -5.275065883      1.807      4.781
REMARK  1 active torsions:
REMARK  status: ('A' for Active; 'I' for Inactive)
REMARK    1  A    between atoms: C2_2  and  C4_7 
ROOT
HETATM    1  C1  UNL     1      15.125 -14.194  41.992  1.00  0.00     0.066 C 
HETATM    2  C2  UNL     1      13.751 -13.666  41.804  1.00  0.00     0.015 C 
HETATM    3  N1  UNL     1      13.301 -12.911  42.743  1.00  0.00    -0.300 N 
ATOM      4  H1  UNL     1      12.358 -12.536  42.636  1.00  0.00     0.177 HD
HETATM    5  C3  UNL     1      14.003 -12.570  43.891  1.00  0.00     0.181 C 
HETATM    6  N2  UNL     1      14.586 -12.269  44.832  1.00  0.00    -0.172 NA
ENDROOT
BRANCH   2   7
HETATM    7  C4  UNL     1      12.889 -13.939  40.649  1.00  0.00     0.129 C 
HETATM    8  C5  UNL     1      13.250 -15.269  40.042  1.00  0.00     0.038 C 
HETATM    9  C6  UNL     1      11.996 -15.844  39.453  1.00  0.00     0.078 C 
HETATM   10  C7  UNL     1      10.918 -14.994  40.063  1.00  0.00     0.071 C 
HETATM   11  N3  UNL     1       9.678 -15.146  39.733  1.00  0.00    -0.389 N 
HETATM   12  N4  UNL     1      11.506 -14.088  40.977  1.00  0.00    -0.370 N 
ATOM     13  H32 UNL     1       9.253 -15.799  39.074  1.00  0.00     0.157 HD
ATOM     14  H31 UNL     1       8.946 -14.569  40.147  1.00  0.00     0.157 HD
ATOM     15  H4  UNL     1      11.024 -13.619  41.743  1.00  0.00     0.161 HD
ENDBRANCH   2   7
TORSDOF 1
ENDMDL
