MODEL 1
REMARK VINA RESULT: -4.351729213      0.000      0.000
REMARK  2 active torsions:
REMARK  status: ('A' for Active; 'I' for Inactive)
REMARK    1  A    between atoms: C2_2  and  C3_3 
REMARK    2  A    between atoms: N2_6  and  O1_7 
ROOT
HETATM    1  C3  UNL     1      15.444 -12.584  44.464  1.00  0.00     0.092 C 
HETATM    2  C4  UNL     1      16.653 -12.014  43.805  1.00  0.00     0.047 C 
HETATM    3  N1  UNL     1      14.995 -11.834  45.593  1.00  0.00    -0.118 NA
HETATM    4  N2  UNL     1      15.882 -11.942  46.618  1.00  0.00    -0.101 NA
HETATM    5  C5  UNL     1      16.055 -13.325  46.989  1.00  0.00     0.217 C 
HETATM    6  S1  UNL     1      15.890 -14.136  45.346  1.00  0.00    -0.122 SA
ENDROOT
BRANCH   1   7
HETATM    7  C2  UNL     1      14.287 -12.811  43.531  1.00  0.00     0.034 C 
HETATM    8  C1  UNL     1      14.642 -13.626  42.324  1.00  0.00     0.008 C 
ENDBRANCH   1   7
BRANCH   4   9
HETATM    9  O1  UNL     1      15.360 -11.304  47.693  1.00  0.00    -0.296 OA
ATOM     10  H1  UNL     1      16.060 -10.822  48.119  1.00  0.00     0.238 HD
ENDBRANCH   4   9
TORSDOF 2
ENDMDL
MODEL 2
REMARK VINA RESULT: -4.284481578      1.498      2.666
REMARK  2 active torsions:
REMARK  status: ('A' for Active; 'I' for Inactive)
REMARK    1  A    between atoms: C2_2  and  C3_3 
REMARK    2  A    between atoms: N2_6  and  O1_7 
ROOT
HETATM    1  C3  UNL     1      15.294 -12.791  44.750  1.00  0.00     0.092 C 
HETATM    2  C4  UNL     1      14.252 -12.741  43.686  1.00  0.00     0.047 C 
HETATM    3  N1  UNL     1      15.147 -11.784  45.750  1.00  0.00    -0.118 NA
HETATM    4  N2  UNL     1      15.415 -10.556  45.231  1.00  0.00    -0.101 NA
HETATM    5  C5  UNL     1      16.753 -10.518  44.696  1.00  0.00     0.217 C 
HETATM    6  S1  UNL     1      16.910 -12.239  44.064  1.00  0.00    -0.122 SA
ENDROOT
BRANCH   1   7
HETATM    7  C2  UNL     1      15.425 -14.133  45.415  1.00  0.00     0.034 C 
HETATM    8  C1  UNL     1      15.947 -14.058  46.818  1.00  0.00     0.008 C 
ENDBRANCH   1   7
BRANCH   4   9
HETATM    9  O1  UNL     1      15.365  -9.654  46.242  1.00  0.00    -0.296 OA
ATOM     10  H1  UNL     1      14.955  -8.863  45.911  1.00  0.00     0.238 HD
ENDBRANCH   4   9
TORSDOF 2
ENDMDL
MODEL 3
REMARK VINA RESULT: -4.214575051      1.560      1.568
REMARK  2 active torsions:
REMARK  status: ('A' for Active; 'I' for Inactive)
REMARK    1  A    between atoms: C2_2  and  C3_3 
REMARK    2  A    between atoms: N2_6  and  O1_7 
ROOT
HETATM    1  C3  UNL     1      15.358 -12.718  44.372  1.00  0.00     0.092 C 
HETATM    2  C4  UNL     1      15.433 -11.246  44.594  1.00  0.00     0.047 C 
HETATM    3  N1  UNL     1      14.864 -13.446  45.496  1.00  0.00    -0.118 NA
HETATM    4  N2  UNL     1      15.765 -13.418  46.514  1.00  0.00    -0.101 NA
HETATM    5  C5  UNL     1      17.024 -13.978  46.086  1.00  0.00     0.217 C 
HETATM    6  S1  UNL     1      17.056 -13.428  44.331  1.00  0.00    -0.122 SA
ENDROOT
BRANCH   1   7
HETATM    7  C2  UNL     1      14.582 -13.113  43.148  1.00  0.00     0.034 C 
HETATM    8  C1  UNL     1      15.229 -14.209  42.355  1.00  0.00     0.008 C 
ENDBRANCH   1   7
BRANCH   4   9
HETATM    9  O1  UNL     1      15.297 -14.209  47.510  1.00  0.00    -0.296 OA
ATOM     10  H1  UNL     1      14.570 -14.716  47.166  1.00  0.00     0.238 HD
ENDBRANCH   4   9
TORSDOF 2
ENDMDL
MODEL 4
REMARK VINA RESULT: -4.211197978      3.947      4.573
REMARK  2 active torsions:
REMARK  status: ('A' for Active; 'I' for Inactive)
REMARK    1  A    between atoms: C2_2  and  C3_3 
REMARK    2  A    between atoms: N2_6  and  O1_7 
ROOT
HETATM    1  C3  UNL     1      16.136  -8.739  46.095  1.00  0.00     0.092 C 
HETATM    2  C4  UNL     1      15.396  -8.268  47.300  1.00  0.00     0.047 C 
HETATM    3  N1  UNL     1      15.424  -9.705  45.322  1.00  0.00    -0.118 NA
HETATM    4  N2  UNL     1      15.327 -10.880  46.000  1.00  0.00    -0.101 NA
HETATM    5  C5  UNL     1      16.639 -11.384  46.319  1.00  0.00     0.217 C 
HETATM    6  S1  UNL     1      17.543  -9.808  46.609  1.00  0.00    -0.122 SA
ENDROOT
BRANCH   1   7
HETATM    7  C2  UNL     1      16.604  -7.633  45.193  1.00  0.00     0.034 C 
HETATM    8  C1  UNL     1      16.059  -6.286  45.563  1.00  0.00     0.008 C 
ENDBRANCH   1   7
BRANCH   4   9
HETATM    9  O1  UNL     1      14.740 -11.788  45.183  1.00  0.00    -0.296 OA
ATOM     10  H1  UNL     1      15.389 -12.445  44.958  1.00  0.00     0.238 HD
ENDBRANCH   4   9
TORSDOF 2
ENDMDL
MODEL 5
REMARK VINA RESULT: -4.186584290      1.547      1.773
REMARK  2 active torsions:
REMARK  status: ('A' for Active; 'I' for Inactive)
REMARK    1  A    between atoms: C2_2  and  C3_3 
REMARK    2  A    between atoms: N2_6  and  O1_7 
ROOT
HETATM    1  C3  UNL     1      15.634 -13.565  42.934  1.00  0.00     0.092 C 
HETATM    2  C4  UNL     1      16.867 -13.047  42.277  1.00  0.00     0.047 C 
HETATM    3  N1  UNL     1      14.965 -12.601  43.747  1.00  0.00    -0.118 NA
HETATM    4  N2  UNL     1      15.705 -12.315  44.852  1.00  0.00    -0.101 NA
HETATM    5  C5  UNL     1      15.948 -13.512  45.617  1.00  0.00     0.217 C 
HETATM    6  S1  UNL     1      16.090 -14.752  44.265  1.00  0.00    -0.122 SA
ENDROOT
BRANCH   1   7
HETATM    7  C2  UNL     1      14.646 -14.180  41.983  1.00  0.00     0.034 C 
HETATM    8  C1  UNL     1      13.387 -13.381  41.828  1.00  0.00     0.008 C 
ENDBRANCH   1   7
BRANCH   4   9
HETATM    9  O1  UNL     1      14.981 -11.481  45.636  1.00  0.00    -0.296 OA
ATOM     10  H1  UNL     1      15.404 -11.434  46.486  1.00  0.00     0.238 HD
ENDBRANCH   4   9
TORSDOF 2
ENDMDL
