MODEL 1
REMARK VINA RESULT: -5.820827360      0.000      0.000
REMARK  2 active torsions:
REMARK  status: ('A' for Active; 'I' for Inactive)
REMARK    1  A    between atoms: C4_4  and  N1_5 
REMARK    2  A    between atoms: N1_5  and  C5_7 
ROOT
HETATM    1  C5  UNL     1      14.505 -12.877  43.262  1.00  0.00     0.690 A 
HETATM    2  N2  UNL     1      15.734 -12.524  43.152  1.00  0.00    -0.208 N 
ATOM      3  H2  UNL     1      16.333 -12.668  42.338  1.00  0.00     0.179 HD
HETATM    4  C6  UNL     1      16.110 -11.888  44.389  1.00  0.00     0.279 A 
HETATM    5  N3  UNL     1      14.928 -11.930  45.211  1.00  0.00    -0.304 N 
ATOM      6  H3  UNL     1      14.839 -11.566  46.159  1.00  0.00     0.182 HD
HETATM    7  N4  UNL     1      14.024 -12.501  44.543  1.00  0.00    -0.135 N 
ATOM      8  H4  UNL     1      13.074 -12.669  44.877  1.00  0.00     0.205 HD
ENDROOT
BRANCH   1   9
HETATM    9  N1  UNL     1      13.742 -13.539  42.263  1.00  0.00    -0.220 N 
ATOM     10  H1  UNL     1      14.007 -14.470  41.943  1.00  0.00     0.178 HD
BRANCH   9  11
HETATM   11  C4  UNL     1      12.580 -12.875  41.704  1.00  0.00     0.099 C 
HETATM   12  C3  UNL     1      12.145 -13.465  40.391  1.00  0.00     0.026 C 
HETATM   13  C2  UNL     1      10.654 -13.605  40.424  1.00  0.00     0.002 C 
HETATM   14  C1  UNL     1      10.239 -12.739  41.594  1.00  0.00     0.002 C 
HETATM   15  C7  UNL     1      11.370 -13.032  42.589  1.00  0.00     0.026 C 
ENDBRANCH   9  11
ENDBRANCH   1   9
TORSDOF 2
ENDMDL
MODEL 2
REMARK VINA RESULT: -5.792577006      1.085      1.456
REMARK  2 active torsions:
REMARK  status: ('A' for Active; 'I' for Inactive)
REMARK    1  A    between atoms: C4_4  and  N1_5 
REMARK    2  A    between atoms: N1_5  and  C5_7 
ROOT
HETATM    1  C5  UNL     1      15.075 -12.890  43.712  1.00  0.00     0.690 A 
HETATM    2  N2  UNL     1      16.167 -12.234  43.553  1.00  0.00    -0.208 N 
ATOM      3  H2  UNL     1      16.857 -12.379  42.816  1.00  0.00     0.179 HD
HETATM    4  C6  UNL     1      16.236 -11.256  44.609  1.00  0.00     0.279 A 
HETATM    5  N3  UNL     1      15.037 -11.450  45.383  1.00  0.00    -0.304 N 
ATOM      6  H3  UNL     1      14.762 -10.923  46.212  1.00  0.00     0.182 HD
HETATM    7  N4  UNL     1      14.390 -12.390  44.849  1.00  0.00    -0.135 N 
ATOM      8  H4  UNL     1      13.494 -12.744  45.187  1.00  0.00     0.205 HD
ENDROOT
BRANCH   1   9
HETATM    9  N1  UNL     1      14.619 -13.950  42.882  1.00  0.00    -0.220 N 
ATOM     10  H1  UNL     1      14.709 -14.919  43.187  1.00  0.00     0.178 HD
BRANCH   9  11
HETATM   11  C4  UNL     1      14.025 -13.637  41.597  1.00  0.00     0.099 C 
HETATM   12  C3  UNL     1      13.860 -14.847  40.719  1.00  0.00     0.026 C 
HETATM   13  C2  UNL     1      12.495 -14.783  40.104  1.00  0.00     0.002 C 
HETATM   14  C1  UNL     1      12.063 -13.351  40.339  1.00  0.00     0.002 C 
HETATM   15  C7  UNL     1      12.622 -13.106  41.747  1.00  0.00     0.026 C 
ENDBRANCH   9  11
ENDBRANCH   1   9
TORSDOF 2
ENDMDL
MODEL 3
REMARK VINA RESULT: -5.500608344      1.115      1.814
REMARK  2 active torsions:
REMARK  status: ('A' for Active; 'I' for Inactive)
REMARK    1  A    between atoms: C4_4  and  N1_5 
REMARK    2  A    between atoms: N1_5  and  C5_7 
ROOT
HETATM    1  C5  UNL     1      14.786 -12.419  44.070  1.00  0.00     0.690 A 
HETATM    2  N2  UNL     1      14.790 -11.788  45.188  1.00  0.00    -0.208 N 
ATOM      3  H2  UNL     1      13.997 -11.672  45.819  1.00  0.00     0.179 HD
HETATM    4  C6  UNL     1      16.122 -11.275  45.386  1.00  0.00     0.279 A 
HETATM    5  N3  UNL     1      16.867 -11.701  44.229  1.00  0.00    -0.304 N 
ATOM      6  H3  UNL     1      17.851 -11.509  44.040  1.00  0.00     0.182 HD
HETATM    7  N4  UNL     1      16.080 -12.354  43.492  1.00  0.00    -0.135 N 
ATOM      8  H4  UNL     1      16.338 -12.778  42.601  1.00  0.00     0.205 HD
ENDROOT
BRANCH   1   9
HETATM    9  N1  UNL     1      13.666 -13.079  43.498  1.00  0.00    -0.220 N 
ATOM     10  H1  UNL     1      13.034 -13.625  44.083  1.00  0.00     0.178 HD
BRANCH   9  11
HETATM   11  C4  UNL     1      13.431 -12.968  42.071  1.00  0.00     0.099 C 
HETATM   12  C3  UNL     1      13.853 -14.195  41.312  1.00  0.00     0.026 C 
HETATM   13  C2  UNL     1      12.769 -14.519  40.328  1.00  0.00     0.002 C 
HETATM   14  C1  UNL     1      11.939 -13.254  40.281  1.00  0.00     0.002 C 
HETATM   15  C7  UNL     1      11.963 -12.835  41.758  1.00  0.00     0.026 C 
ENDBRANCH   9  11
ENDBRANCH   1   9
TORSDOF 2
ENDMDL
MODEL 4
REMARK VINA RESULT: -5.405040200      0.976      1.543
REMARK  2 active torsions:
REMARK  status: ('A' for Active; 'I' for Inactive)
REMARK    1  A    between atoms: C4_4  and  N1_5 
REMARK    2  A    between atoms: N1_5  and  C5_7 
ROOT
HETATM    1  C5  UNL     1      14.326 -13.019  43.396  1.00  0.00     0.690 A 
HETATM    2  N2  UNL     1      15.181 -13.976  43.383  1.00  0.00    -0.208 N 
ATOM      3  H2  UNL     1      15.428 -14.556  42.581  1.00  0.00     0.179 HD
HETATM    4  C6  UNL     1      15.727 -14.080  44.713  1.00  0.00     0.279 A 
HETATM    5  N3  UNL     1      15.064 -13.053  45.475  1.00  0.00    -0.304 N 
ATOM      6  H3  UNL     1      15.211 -12.845  46.462  1.00  0.00     0.182 HD
HETATM    7  N4  UNL     1      14.267 -12.461  44.698  1.00  0.00    -0.135 N 
ATOM      8  H4  UNL     1      13.663 -11.685  44.969  1.00  0.00     0.205 HD
ENDROOT
BRANCH   1   9
HETATM    9  N1  UNL     1      13.556 -12.584  42.283  1.00  0.00    -0.220 N 
ATOM     10  H1  UNL     1      13.805 -11.729  41.786  1.00  0.00     0.178 HD
BRANCH   9  11
HETATM   11  C4  UNL     1      12.413 -13.371  41.863  1.00  0.00     0.099 C 
HETATM   12  C3  UNL     1      11.140 -12.967  42.553  1.00  0.00     0.026 C 
HETATM   13  C2  UNL     1      10.058 -12.903  41.518  1.00  0.00     0.002 C 
HETATM   14  C1  UNL     1      10.649 -13.642  40.337  1.00  0.00     0.002 C 
HETATM   15  C7  UNL     1      12.109 -13.172  40.400  1.00  0.00     0.026 C 
ENDBRANCH   9  11
ENDBRANCH   1   9
TORSDOF 2
ENDMDL
MODEL 5
REMARK VINA RESULT: -5.282995704      1.359      1.916
REMARK  2 active torsions:
REMARK  status: ('A' for Active; 'I' for Inactive)
REMARK    1  A    between atoms: C4_4  and  N1_5 
REMARK    2  A    between atoms: N1_5  and  C5_7 
ROOT
HETATM    1  C5  UNL     1      14.827 -12.884  44.023  1.00  0.00     0.690 A 
HETATM    2  N2  UNL     1      15.392 -14.005  44.289  1.00  0.00    -0.208 N 
ATOM      3  H2  UNL     1      15.511 -14.790  43.648  1.00  0.00     0.179 HD
HETATM    4  C6  UNL     1      15.827 -13.951  45.662  1.00  0.00     0.279 A 
HETATM    5  N3  UNL     1      15.430 -12.649  46.133  1.00  0.00    -0.304 N 
ATOM      6  H3  UNL     1      15.582 -12.273  47.069  1.00  0.00     0.182 HD
HETATM    7  N4  UNL     1      14.861 -12.058  45.175  1.00  0.00    -0.135 N 
ATOM      8  H4  UNL     1      14.476 -11.114  45.223  1.00  0.00     0.205 HD
ENDROOT
BRANCH   1   9
HETATM    9  N1  UNL     1      14.257 -12.522  42.773  1.00  0.00    -0.220 N 
ATOM     10  H1  UNL     1      14.534 -11.656  42.310  1.00  0.00     0.178 HD
BRANCH   9  11
HETATM   11  C4  UNL     1      13.277 -13.399  42.162  1.00  0.00     0.099 C 
HETATM   12  C3  UNL     1      12.158 -12.649  41.494  1.00  0.00     0.026 C 
HETATM   13  C2  UNL     1      11.907 -13.292  40.163  1.00  0.00     0.002 C 
HETATM   14  C1  UNL     1      12.622 -14.622  40.268  1.00  0.00     0.002 C 
HETATM   15  C7  UNL     1      13.880 -14.216  41.048  1.00  0.00     0.026 C 
ENDBRANCH   9  11
ENDBRANCH   1   9
TORSDOF 2
ENDMDL
