MODEL 1
REMARK VINA RESULT: -8.342789052      0.000      0.000
REMARK  16 active torsions:
REMARK  status: ('A' for Active; 'I' for Inactive)
REMARK    1  A    between atoms: C2_2  and  C3_3 
REMARK    2  A    between atoms: C3_3  and  C5_5 
REMARK    3  A    between atoms: C7_10  and  C8_11 
REMARK    4  A    between atoms: C8_11  and  C9_12 
REMARK    5  A    between atoms: C9_12  and  C10_13 
REMARK    6  A    between atoms: C11_18  and  O4_19 
REMARK    7  A    between atoms: C14_23  and  C15_24 
REMARK       I    between atoms: C15_24  and  N3_26 
REMARK    8  A    between atoms: N3_26  and  C16_28 
REMARK    9  A    between atoms: C16_28  and  C17_29 
REMARK   10  A    between atoms: C16_28  and  C22_37 
REMARK   11  A    between atoms: C17_29  and  O6_30 
REMARK   12  A    between atoms: O6_30  and  C18_31 
REMARK   13  A    between atoms: C18_31  and  C19_32 
REMARK   14  A    between atoms: C19_32  and  C20_33 
REMARK   15  A    between atoms: C22_37  and  C23_38 
REMARK   16  A    between atoms: C27_45  and  C28_46 
ROOT
HETATM    1  C5  UNL     1      37.717  -4.980  -5.401  1.00  0.00     0.180 C 
HETATM    2  N1  UNL     1      38.548  -4.451  -4.359  1.00  0.00    -0.346 N 
ATOM      3  H1  UNL     1      38.987  -3.571  -4.630  1.00  0.00     0.163 HD
HETATM    4  C6  UNL     1      38.907  -4.835  -3.068  1.00  0.00     0.241 C 
HETATM    5  O1  UNL     1      40.109  -5.272  -2.836  1.00  0.00    -0.271 OA
HETATM    6  C7  UNL     1      38.161  -4.859  -1.781  1.00  0.00     0.176 C 
HETATM    7  N2  UNL     1      36.894  -4.208  -1.791  1.00  0.00    -0.361 N 
ATOM      8  H2  UNL     1      36.806  -3.522  -2.542  1.00  0.00     0.162 HD
HETATM    9  C11 UNL     1      35.760  -4.299  -1.013  1.00  0.00     0.118 C 
HETATM   10  C12 UNL     1      34.768  -5.300  -0.671  1.00  0.00     0.088 C 
HETATM   11  C13 UNL     1      33.399  -4.594  -0.413  1.00  0.00     0.021 C 
HETATM   12  C14 UNL     1      34.531  -6.533  -1.388  1.00  0.00     0.188 C 
HETATM   13  N4  UNL     1      35.278  -6.940  -2.527  1.00  0.00    -0.345 N 
ATOM     14  H4  UNL     1      36.230  -7.241  -2.320  1.00  0.00     0.163 HD
HETATM   15  C26 UNL     1      34.930  -7.001  -3.899  1.00  0.00     0.241 C 
HETATM   16  O7  UNL     1      35.124  -8.113  -4.530  1.00  0.00    -0.271 OA
HETATM   17  C27 UNL     1      34.349  -5.909  -4.727  1.00  0.00     0.180 C 
HETATM   18  N5  UNL     1      35.152  -4.772  -4.908  1.00  0.00    -0.346 N 
ATOM     19  H5  UNL     1      34.742  -3.955  -4.455  1.00  0.00     0.163 HD
HETATM   20  C31 UNL     1      36.361  -4.449  -5.538  1.00  0.00     0.241 C 
HETATM   21  O8  UNL     1      36.228  -3.496  -6.404  1.00  0.00    -0.271 OA
ENDROOT
BRANCH  12  22
HETATM   22  C15 UNL     1      34.452  -7.688  -0.409  1.00  0.00     0.241 C 
HETATM   23  O5  UNL     1      33.374  -8.354  -0.443  1.00  0.00    -0.271 OA
HETATM   24  N3  UNL     1      35.471  -8.032   0.489  1.00  0.00    -0.353 N 
ATOM     25  H3  UNL     1      36.341  -7.498   0.507  1.00  0.00     0.163 HD
BRANCH  24  26
HETATM   26  C16 UNL     1      35.285  -9.142   1.385  1.00  0.00     0.108 C 
BRANCH  26  27
HETATM   27  C17 UNL     1      35.674 -10.393   0.622  1.00  0.00     0.192 C 
BRANCH  27  28
HETATM   28  O6  UNL     1      34.669 -11.296   0.637  1.00  0.00    -0.389 OA
BRANCH  28  29
HETATM   29  C18 UNL     1      34.248 -11.725  -0.586  1.00  0.00     0.173 C 
BRANCH  29  30
HETATM   30  C19 UNL     1      32.791 -12.193  -0.497  1.00  0.00     0.105 C 
BRANCH  30  31
HETATM   31  C20 UNL     1      32.766 -13.657  -0.813  1.00  0.00     0.242 C 
HETATM   32  C21 UNL     1      33.097 -13.888  -2.287  1.00  0.00     0.090 C 
HETATM   33  F1  UNL     1      31.533 -14.219  -0.586  1.00  0.00    -0.207 F 
HETATM   34  F2  UNL     1      33.749 -14.262  -0.026  1.00  0.00    -0.207 F 
ENDBRANCH  30  31
ENDBRANCH  29  30
ENDBRANCH  28  29
ENDBRANCH  27  28
ENDBRANCH  26  27
BRANCH  26  35
HETATM   35  C22 UNL     1      35.927  -9.042   2.708  1.00  0.00     0.031 C 
BRANCH  35  36
HETATM   36  C23 UNL     1      35.602 -10.048   3.749  1.00  0.00    -0.021 C 
HETATM   37  C24 UNL     1      35.433  -9.233   5.062  1.00  0.00     0.009 C 
HETATM   38  C25 UNL     1      36.687 -11.044   4.061  1.00  0.00     0.009 C 
ENDBRANCH  35  36
ENDBRANCH  26  35
ENDBRANCH  24  26
ENDBRANCH  12  22
BRANCH   9  39
HETATM   39  O4  UNL     1      35.478  -3.171  -0.398  1.00  0.00    -0.349 OA
ATOM     40  H4  UNL     1      35.292  -2.462  -1.003  1.00  0.00     0.219 HD
ENDBRANCH   9  39
BRANCH  17  41
HETATM   41  C28 UNL     1      33.671  -6.456  -5.961  1.00  0.00     0.009 C 
HETATM   42  C29 UNL     1      34.442  -6.289  -7.233  1.00  0.00     0.012 C 
HETATM   43  C30 UNL     1      32.235  -6.052  -6.037  1.00  0.00     0.012 C 
ENDBRANCH  17  41
BRANCH   6  44
HETATM   44  C8  UNL     1      39.049  -4.538  -0.598  1.00  0.00     0.045 C 
BRANCH  44  45
HETATM   45  C9  UNL     1      38.468  -4.496   0.738  1.00  0.00     0.116 C 
BRANCH  45  46
HETATM   46  C10 UNL     1      38.189  -5.815   1.324  1.00  0.00     0.172 C 
HETATM   47  O2  UNL     1      37.215  -6.065   2.056  1.00  0.00    -0.648 OA
HETATM   48  O3  UNL     1      39.093  -6.856   1.030  1.00  0.00    -0.648 OA
ENDBRANCH  45  46
ENDBRANCH  44  45
ENDBRANCH   6  44
BRANCH   1  49
HETATM   49  C3  UNL     1      38.494  -4.849  -6.714  1.00  0.00     0.013 C 
HETATM   50  C4  UNL     1      38.338  -6.089  -7.560  1.00  0.00     0.012 C 
BRANCH  49  51
HETATM   51  C2  UNL     1      39.923  -4.534  -6.610  1.00  0.00     0.002 C 
HETATM   52  C1  UNL     1      40.304  -3.788  -7.905  1.00  0.00     0.005 C 
ENDBRANCH  49  51
ENDBRANCH   1  49
TORSDOF 16
ENDMDL
MODEL 2
REMARK VINA RESULT: -7.861768726      3.753      7.797
REMARK  16 active torsions:
REMARK  status: ('A' for Active; 'I' for Inactive)
REMARK    1  A    between atoms: C2_2  and  C3_3 
REMARK    2  A    between atoms: C3_3  and  C5_5 
REMARK    3  A    between atoms: C7_10  and  C8_11 
REMARK    4  A    between atoms: C8_11  and  C9_12 
REMARK    5  A    between atoms: C9_12  and  C10_13 
REMARK    6  A    between atoms: C11_18  and  O4_19 
REMARK    7  A    between atoms: C14_23  and  C15_24 
REMARK       I    between atoms: C15_24  and  N3_26 
REMARK    8  A    between atoms: N3_26  and  C16_28 
REMARK    9  A    between atoms: C16_28  and  C17_29 
REMARK   10  A    between atoms: C16_28  and  C22_37 
REMARK   11  A    between atoms: C17_29  and  O6_30 
REMARK   12  A    between atoms: O6_30  and  C18_31 
REMARK   13  A    between atoms: C18_31  and  C19_32 
REMARK   14  A    between atoms: C19_32  and  C20_33 
REMARK   15  A    between atoms: C22_37  and  C23_38 
REMARK   16  A    between atoms: C27_45  and  C28_46 
ROOT
HETATM    1  C5  UNL     1      35.628  -6.729  -0.389  1.00  0.00     0.180 C 
HETATM    2  N1  UNL     1      35.001  -7.857   0.238  1.00  0.00    -0.346 N 
ATOM      3  H1  UNL     1      34.621  -7.622   1.155  1.00  0.00     0.163 HD
HETATM    4  C6  UNL     1      34.781  -9.194  -0.090  1.00  0.00     0.241 C 
HETATM    5  O1  UNL     1      35.453 -10.126   0.516  1.00  0.00    -0.271 OA
HETATM    6  C7  UNL     1      33.866  -9.854  -1.061  1.00  0.00     0.176 C 
HETATM    7  N2  UNL     1      32.890  -9.007  -1.662  1.00  0.00    -0.361 N 
ATOM      8  H2  UNL     1      32.706  -8.165  -1.116  1.00  0.00     0.162 HD
HETATM    9  C11 UNL     1      32.141  -9.074  -2.816  1.00  0.00     0.118 C 
HETATM   10  C12 UNL     1      32.371  -9.113  -4.248  1.00  0.00     0.088 C 
HETATM   11  C13 UNL     1      31.179  -8.415  -4.976  1.00  0.00     0.021 C 
HETATM   12  C14 UNL     1      33.603  -8.751  -4.913  1.00  0.00     0.188 C 
HETATM   13  N4  UNL     1      34.776  -8.330  -4.231  1.00  0.00    -0.345 N 
ATOM     14  H4  UNL     1      35.263  -9.075  -3.732  1.00  0.00     0.163 HD
HETATM   15  C26 UNL     1      35.388  -7.057  -4.122  1.00  0.00     0.241 C 
HETATM   16  O7  UNL     1      36.644  -6.956  -4.416  1.00  0.00    -0.271 OA
HETATM   17  C27 UNL     1      34.743  -5.784  -3.702  1.00  0.00     0.180 C 
HETATM   18  N5  UNL     1      34.253  -5.740  -2.387  1.00  0.00    -0.346 N 
ATOM     19  H5  UNL     1      33.236  -5.667  -2.374  1.00  0.00     0.163 HD
HETATM   20  C31 UNL     1      34.776  -5.768  -1.088  1.00  0.00     0.241 C 
HETATM   21  O8  UNL     1      34.426  -4.735  -0.392  1.00  0.00    -0.271 OA
ENDROOT
BRANCH  12  22
HETATM   22  C15 UNL     1      33.973  -9.822  -5.922  1.00  0.00     0.241 C 
HETATM   23  O5  UNL     1      35.174  -9.794  -6.325  1.00  0.00    -0.271 OA
HETATM   24  N3  UNL     1      33.084 -10.793  -6.402  1.00  0.00    -0.353 N 
ATOM     25  H3  UNL     1      32.121 -10.817  -6.068  1.00  0.00     0.163 HD
BRANCH  24  26
HETATM   26  C16 UNL     1      33.539 -11.756  -7.370  1.00  0.00     0.108 C 
BRANCH  26  27
HETATM   27  C17 UNL     1      32.726 -13.017  -7.151  1.00  0.00     0.192 C 
BRANCH  27  28
HETATM   28  O6  UNL     1      31.446 -12.714  -6.841  1.00  0.00    -0.389 OA
BRANCH  28  29
HETATM   29  C18 UNL     1      30.520 -13.644  -7.203  1.00  0.00     0.173 C 
BRANCH  29  30
HETATM   30  C19 UNL     1      31.049 -15.049  -6.893  1.00  0.00     0.105 C 
BRANCH  30  31
HETATM   31  C20 UNL     1      29.940 -16.020  -7.164  1.00  0.00     0.242 C 
HETATM   32  C21 UNL     1      30.503 -17.332  -7.708  1.00  0.00     0.090 C 
HETATM   33  F1  UNL     1      29.050 -15.548  -8.099  1.00  0.00    -0.207 F 
HETATM   34  F2  UNL     1      29.306 -16.267  -5.944  1.00  0.00    -0.207 F 
ENDBRANCH  30  31
ENDBRANCH  29  30
ENDBRANCH  28  29
ENDBRANCH  27  28
ENDBRANCH  26  27
BRANCH  26  35
HETATM   35  C22 UNL     1      33.571 -11.318  -8.777  1.00  0.00     0.031 C 
BRANCH  35  36
HETATM   36  C23 UNL     1      32.397 -10.605  -9.340  1.00  0.00    -0.021 C 
HETATM   37  C24 UNL     1      32.399 -10.953 -10.855  1.00  0.00     0.009 C 
HETATM   38  C25 UNL     1      32.460  -9.101  -9.299  1.00  0.00     0.009 C 
ENDBRANCH  35  36
ENDBRANCH  26  35
ENDBRANCH  24  26
ENDBRANCH  12  22
BRANCH   9  39
HETATM   39  O4  UNL     1      30.848  -9.112  -2.577  1.00  0.00    -0.349 OA
ATOM     40  H4  UNL     1      30.344  -8.618  -3.214  1.00  0.00     0.219 HD
ENDBRANCH   9  39
BRANCH  17  41
HETATM   41  C28 UNL     1      35.538  -4.585  -4.165  1.00  0.00     0.009 C 
HETATM   42  C29 UNL     1      36.263  -3.852  -3.081  1.00  0.00     0.012 C 
HETATM   43  C30 UNL     1      34.756  -3.720  -5.097  1.00  0.00     0.012 C 
ENDBRANCH  17  41
BRANCH   6  44
HETATM   44  C8  UNL     1      33.351 -11.183  -0.550  1.00  0.00     0.045 C 
BRANCH  44  45
HETATM   45  C9  UNL     1      32.896 -12.184  -1.506  1.00  0.00     0.116 C 
BRANCH  45  46
HETATM   46  C10 UNL     1      33.845 -12.467  -2.593  1.00  0.00     0.172 C 
HETATM   47  O2  UNL     1      33.576 -12.366  -3.803  1.00  0.00    -0.648 OA
HETATM   48  O3  UNL     1      35.143 -12.878  -2.225  1.00  0.00    -0.648 OA
ENDBRANCH  45  46
ENDBRANCH  44  45
ENDBRANCH   6  44
BRANCH   1  49
HETATM   49  C3  UNL     1      36.484  -6.035   0.674  1.00  0.00     0.013 C 
HETATM   50  C4  UNL     1      37.669  -5.343   0.046  1.00  0.00     0.012 C 
BRANCH  49  51
HETATM   51  C2  UNL     1      36.964  -6.864   1.785  1.00  0.00     0.002 C 
HETATM   52  C1  UNL     1      38.401  -6.396   2.094  1.00  0.00     0.005 C 
ENDBRANCH  49  51
ENDBRANCH   1  49
TORSDOF 16
ENDMDL
MODEL 3
REMARK VINA RESULT: -7.773449297      3.304      7.226
REMARK  16 active torsions:
REMARK  status: ('A' for Active; 'I' for Inactive)
REMARK    1  A    between atoms: C2_2  and  C3_3 
REMARK    2  A    between atoms: C3_3  and  C5_5 
REMARK    3  A    between atoms: C7_10  and  C8_11 
REMARK    4  A    between atoms: C8_11  and  C9_12 
REMARK    5  A    between atoms: C9_12  and  C10_13 
REMARK    6  A    between atoms: C11_18  and  O4_19 
REMARK    7  A    between atoms: C14_23  and  C15_24 
REMARK       I    between atoms: C15_24  and  N3_26 
REMARK    8  A    between atoms: N3_26  and  C16_28 
REMARK    9  A    between atoms: C16_28  and  C17_29 
REMARK   10  A    between atoms: C16_28  and  C22_37 
REMARK   11  A    between atoms: C17_29  and  O6_30 
REMARK   12  A    between atoms: O6_30  and  C18_31 
REMARK   13  A    between atoms: C18_31  and  C19_32 
REMARK   14  A    between atoms: C19_32  and  C20_33 
REMARK   15  A    between atoms: C22_37  and  C23_38 
REMARK   16  A    between atoms: C27_45  and  C28_46 
ROOT
HETATM    1  C5  UNL     1      35.874  -6.415  -0.113  1.00  0.00     0.180 C 
HETATM    2  N1  UNL     1      35.335  -7.556   0.570  1.00  0.00    -0.346 N 
ATOM      3  H1  UNL     1      34.954  -7.309   1.484  1.00  0.00     0.163 HD
HETATM    4  C6  UNL     1      35.199  -8.916   0.299  1.00  0.00     0.241 C 
HETATM    5  O1  UNL     1      35.941  -9.777   0.929  1.00  0.00    -0.271 OA
HETATM    6  C7  UNL     1      34.315  -9.675  -0.627  1.00  0.00     0.176 C 
HETATM    7  N2  UNL     1      33.275  -8.920  -1.243  1.00  0.00    -0.361 N 
ATOM      8  H2  UNL     1      33.044  -8.070  -0.728  1.00  0.00     0.162 HD
HETATM    9  C11 UNL     1      32.513  -9.083  -2.379  1.00  0.00     0.118 C 
HETATM   10  C12 UNL     1      32.723  -9.164  -3.812  1.00  0.00     0.088 C 
HETATM   11  C13 UNL     1      31.475  -8.578  -4.545  1.00  0.00     0.021 C 
HETATM   12  C14 UNL     1      33.916  -8.750  -4.515  1.00  0.00     0.188 C 
HETATM   13  N4  UNL     1      35.070  -8.224  -3.872  1.00  0.00    -0.345 N 
ATOM     14  H4  UNL     1      35.614  -8.915  -3.353  1.00  0.00     0.163 HD
HETATM   15  C26 UNL     1      35.597  -6.910  -3.825  1.00  0.00     0.241 C 
HETATM   16  O7  UNL     1      36.838  -6.738  -4.146  1.00  0.00    -0.271 OA
HETATM   17  C27 UNL     1      34.875  -5.667  -3.444  1.00  0.00     0.180 C 
HETATM   18  N5  UNL     1      34.405  -5.601  -2.123  1.00  0.00    -0.346 N 
ATOM     19  H5  UNL     1      33.385  -5.596  -2.094  1.00  0.00     0.163 HD
HETATM   20  C31 UNL     1      34.949  -5.541  -0.833  1.00  0.00     0.241 C 
HETATM   21  O8  UNL     1      34.542  -4.507  -0.172  1.00  0.00    -0.271 OA
ENDROOT
BRANCH  12  22
HETATM   22  C15 UNL     1      34.341  -9.834  -5.487  1.00  0.00     0.241 C 
HETATM   23  O5  UNL     1      35.002  -9.433  -6.491  1.00  0.00    -0.271 OA
HETATM   24  N3  UNL     1      34.047 -11.194  -5.328  1.00  0.00    -0.353 N 
ATOM     25  H3  UNL     1      33.522 -11.514  -4.513  1.00  0.00     0.163 HD
BRANCH  24  26
HETATM   26  C16 UNL     1      34.489 -12.138  -6.320  1.00  0.00     0.108 C 
BRANCH  26  27
HETATM   27  C17 UNL     1      35.141 -13.286  -5.575  1.00  0.00     0.192 C 
BRANCH  27  28
HETATM   28  O6  UNL     1      34.611 -14.468  -5.958  1.00  0.00    -0.389 OA
BRANCH  28  29
HETATM   29  C18 UNL     1      34.210 -15.287  -4.945  1.00  0.00     0.173 C 
BRANCH  29  30
HETATM   30  C19 UNL     1      32.681 -15.259  -4.832  1.00  0.00     0.105 C 
BRANCH  30  31
HETATM   31  C20 UNL     1      32.152 -16.448  -5.574  1.00  0.00     0.242 C 
HETATM   32  C21 UNL     1      32.946 -17.701  -5.208  1.00  0.00     0.090 C 
HETATM   33  F1  UNL     1      32.248 -16.297  -6.937  1.00  0.00    -0.207 F 
HETATM   34  F2  UNL     1      30.823 -16.618  -5.178  1.00  0.00    -0.207 F 
ENDBRANCH  30  31
ENDBRANCH  29  30
ENDBRANCH  28  29
ENDBRANCH  27  28
ENDBRANCH  26  27
BRANCH  26  35
HETATM   35  C22 UNL     1      33.489 -12.577  -7.309  1.00  0.00     0.031 C 
BRANCH  35  36
HETATM   36  C23 UNL     1      32.092 -12.092  -7.191  1.00  0.00    -0.021 C 
HETATM   37  C24 UNL     1      31.214 -13.233  -7.779  1.00  0.00     0.009 C 
HETATM   38  C25 UNL     1      31.742 -10.885  -8.020  1.00  0.00     0.009 C 
ENDBRANCH  35  36
ENDBRANCH  26  35
ENDBRANCH  24  26
ENDBRANCH  12  22
BRANCH   9  39
HETATM   39  O4  UNL     1      31.230  -9.197  -2.115  1.00  0.00    -0.349 OA
ATOM     40  H4  UNL     1      30.784  -9.785  -2.713  1.00  0.00     0.219 HD
ENDBRANCH   9  39
BRANCH  17  41
HETATM   41  C28 UNL     1      35.580  -4.438  -3.968  1.00  0.00     0.009 C 
HETATM   42  C29 UNL     1      36.377  -3.683  -2.950  1.00  0.00     0.012 C 
HETATM   43  C30 UNL     1      34.685  -3.597  -4.817  1.00  0.00     0.012 C 
ENDBRANCH  17  41
BRANCH   6  44
HETATM   44  C8  UNL     1      33.898 -11.013  -0.055  1.00  0.00     0.045 C 
BRANCH  44  45
HETATM   45  C9  UNL     1      34.290 -12.235  -0.745  1.00  0.00     0.116 C 
BRANCH  45  46
HETATM   46  C10 UNL     1      33.262 -12.788  -1.639  1.00  0.00     0.172 C 
HETATM   47  O2  UNL     1      33.135 -12.479  -2.837  1.00  0.00    -0.648 OA
HETATM   48  O3  UNL     1      32.367 -13.729  -1.089  1.00  0.00    -0.648 OA
ENDBRANCH  45  46
ENDBRANCH  44  45
ENDBRANCH   6  44
BRANCH   1  49
HETATM   49  C3  UNL     1      36.699  -5.623   0.906  1.00  0.00     0.013 C 
HETATM   50  C4  UNL     1      37.916  -5.011   0.256  1.00  0.00     0.012 C 
BRANCH  49  51
HETATM   51  C2  UNL     1      37.127  -6.338   2.113  1.00  0.00     0.002 C 
HETATM   52  C1  UNL     1      38.664  -6.225   2.170  1.00  0.00     0.005 C 
ENDBRANCH  49  51
ENDBRANCH   1  49
TORSDOF 16
ENDMDL
MODEL 4
REMARK VINA RESULT: -7.686740060      1.263      1.754
REMARK  16 active torsions:
REMARK  status: ('A' for Active; 'I' for Inactive)
REMARK    1  A    between atoms: C2_2  and  C3_3 
REMARK    2  A    between atoms: C3_3  and  C5_5 
REMARK    3  A    between atoms: C7_10  and  C8_11 
REMARK    4  A    between atoms: C8_11  and  C9_12 
REMARK    5  A    between atoms: C9_12  and  C10_13 
REMARK    6  A    between atoms: C11_18  and  O4_19 
REMARK    7  A    between atoms: C14_23  and  C15_24 
REMARK       I    between atoms: C15_24  and  N3_26 
REMARK    8  A    between atoms: N3_26  and  C16_28 
REMARK    9  A    between atoms: C16_28  and  C17_29 
REMARK   10  A    between atoms: C16_28  and  C22_37 
REMARK   11  A    between atoms: C17_29  and  O6_30 
REMARK   12  A    between atoms: O6_30  and  C18_31 
REMARK   13  A    between atoms: C18_31  and  C19_32 
REMARK   14  A    between atoms: C19_32  and  C20_33 
REMARK   15  A    between atoms: C22_37  and  C23_38 
REMARK   16  A    between atoms: C27_45  and  C28_46 
ROOT
HETATM    1  C5  UNL     1      37.729  -5.008  -5.416  1.00  0.00     0.180 C 
HETATM    2  N1  UNL     1      38.561  -4.518  -4.356  1.00  0.00    -0.346 N 
ATOM      3  H1  UNL     1      39.014  -3.638  -4.603  1.00  0.00     0.163 HD
HETATM    4  C6  UNL     1      38.907  -4.940  -3.074  1.00  0.00     0.241 C 
HETATM    5  O1  UNL     1      40.101  -5.400  -2.846  1.00  0.00    -0.271 OA
HETATM    6  C7  UNL     1      38.153  -4.986  -1.792  1.00  0.00     0.176 C 
HETATM    7  N2  UNL     1      36.896  -4.316  -1.793  1.00  0.00    -0.361 N 
ATOM      8  H2  UNL     1      36.822  -3.611  -2.526  1.00  0.00     0.162 HD
HETATM    9  C11 UNL     1      35.756  -4.411  -1.023  1.00  0.00     0.118 C 
HETATM   10  C12 UNL     1      34.747  -5.405  -0.712  1.00  0.00     0.088 C 
HETATM   11  C13 UNL     1      33.387  -4.687  -0.444  1.00  0.00     0.021 C 
HETATM   12  C14 UNL     1      34.498  -6.616  -1.462  1.00  0.00     0.188 C 
HETATM   13  N4  UNL     1      35.245  -7.005  -2.607  1.00  0.00    -0.345 N 
ATOM     14  H4  UNL     1      36.192  -7.325  -2.403  1.00  0.00     0.163 HD
HETATM   15  C26 UNL     1      34.905  -7.026  -3.982  1.00  0.00     0.241 C 
HETATM   16  O7  UNL     1      35.086  -8.125  -4.639  1.00  0.00    -0.271 OA
HETATM   17  C27 UNL     1      34.345  -5.905  -4.785  1.00  0.00     0.180 C 
HETATM   18  N5  UNL     1      35.165  -4.776  -4.932  1.00  0.00    -0.346 N 
ATOM     19  H5  UNL     1      34.764  -3.965  -4.461  1.00  0.00     0.163 HD
HETATM   20  C31 UNL     1      36.381  -4.454  -5.547  1.00  0.00     0.241 C 
HETATM   21  O8  UNL     1      36.268  -3.478  -6.389  1.00  0.00    -0.271 OA
ENDROOT
BRANCH  12  22
HETATM   22  C15 UNL     1      34.396  -7.794  -0.513  1.00  0.00     0.241 C 
HETATM   23  O5  UNL     1      33.269  -8.375  -0.488  1.00  0.00    -0.271 OA
HETATM   24  N3  UNL     1      35.445  -8.246   0.299  1.00  0.00    -0.353 N 
ATOM     25  H3  UNL     1      36.353  -7.782   0.269  1.00  0.00     0.163 HD
BRANCH  24  26
HETATM   26  C16 UNL     1      35.235  -9.369   1.174  1.00  0.00     0.108 C 
BRANCH  26  27
HETATM   27  C17 UNL     1      35.186 -10.605   0.298  1.00  0.00     0.192 C 
BRANCH  27  28
HETATM   28  O6  UNL     1      34.146 -11.396   0.643  1.00  0.00    -0.389 OA
BRANCH  28  29
HETATM   29  C18 UNL     1      34.480 -12.609   1.165  1.00  0.00     0.173 C 
BRANCH  29  30
HETATM   30  C19 UNL     1      34.100 -12.655   2.650  1.00  0.00     0.105 C 
BRANCH  30  31
HETATM   31  C20 UNL     1      34.728 -13.881   3.239  1.00  0.00     0.242 C 
HETATM   32  C21 UNL     1      33.986 -14.303   4.507  1.00  0.00     0.090 C 
HETATM   33  F1  UNL     1      36.041 -13.677   3.592  1.00  0.00    -0.207 F 
HETATM   34  F2  UNL     1      34.614 -14.897   2.286  1.00  0.00    -0.207 F 
ENDBRANCH  30  31
ENDBRANCH  29  30
ENDBRANCH  28  29
ENDBRANCH  27  28
ENDBRANCH  26  27
BRANCH  26  35
HETATM   35  C22 UNL     1      36.154  -9.499   2.318  1.00  0.00     0.031 C 
BRANCH  35  36
HETATM   36  C23 UNL     1      35.617  -9.928   3.633  1.00  0.00    -0.021 C 
HETATM   37  C24 UNL     1      35.182  -8.615   4.343  1.00  0.00     0.009 C 
HETATM   38  C25 UNL     1      36.611 -10.553   4.577  1.00  0.00     0.009 C 
ENDBRANCH  35  36
ENDBRANCH  26  35
ENDBRANCH  24  26
ENDBRANCH  12  22
BRANCH   9  39
HETATM   39  O4  UNL     1      35.486  -3.295  -0.381  1.00  0.00    -0.349 OA
ATOM     40  H4  UNL     1      36.018  -3.184   0.398  1.00  0.00     0.219 HD
ENDBRANCH   9  39
BRANCH  17  41
HETATM   41  C28 UNL     1      33.665  -6.411  -6.036  1.00  0.00     0.009 C 
HETATM   42  C29 UNL     1      34.470  -6.276  -7.291  1.00  0.00     0.012 C 
HETATM   43  C30 UNL     1      32.254  -5.936  -6.139  1.00  0.00     0.012 C 
ENDBRANCH  17  41
BRANCH   6  44
HETATM   44  C8  UNL     1      39.039  -4.708  -0.596  1.00  0.00     0.045 C 
BRANCH  44  45
HETATM   45  C9  UNL     1      38.464  -4.756   0.742  1.00  0.00     0.116 C 
BRANCH  45  46
HETATM   46  C10 UNL     1      38.203  -6.112   1.246  1.00  0.00     0.172 C 
HETATM   47  O2  UNL     1      38.953  -7.087   1.057  1.00  0.00    -0.648 OA
HETATM   48  O3  UNL     1      37.022  -6.308   1.992  1.00  0.00    -0.648 OA
ENDBRANCH  45  46
ENDBRANCH  44  45
ENDBRANCH   6  44
BRANCH   1  49
HETATM   49  C3  UNL     1      38.516  -4.856  -6.721  1.00  0.00     0.013 C 
HETATM   50  C4  UNL     1      38.416  -6.105  -7.561  1.00  0.00     0.012 C 
BRANCH  49  51
HETATM   51  C2  UNL     1      39.930  -4.486  -6.603  1.00  0.00     0.002 C 
HETATM   52  C1  UNL     1      40.309  -3.768  -7.915  1.00  0.00     0.005 C 
ENDBRANCH  49  51
ENDBRANCH   1  49
TORSDOF 16
ENDMDL
MODEL 5
REMARK VINA RESULT: -7.660600314      3.105      7.178
REMARK  16 active torsions:
REMARK  status: ('A' for Active; 'I' for Inactive)
REMARK    1  A    between atoms: C2_2  and  C3_3 
REMARK    2  A    between atoms: C3_3  and  C5_5 
REMARK    3  A    between atoms: C7_10  and  C8_11 
REMARK    4  A    between atoms: C8_11  and  C9_12 
REMARK    5  A    between atoms: C9_12  and  C10_13 
REMARK    6  A    between atoms: C11_18  and  O4_19 
REMARK    7  A    between atoms: C14_23  and  C15_24 
REMARK       I    between atoms: C15_24  and  N3_26 
REMARK    8  A    between atoms: N3_26  and  C16_28 
REMARK    9  A    between atoms: C16_28  and  C17_29 
REMARK   10  A    between atoms: C16_28  and  C22_37 
REMARK   11  A    between atoms: C17_29  and  O6_30 
REMARK   12  A    between atoms: O6_30  and  C18_31 
REMARK   13  A    between atoms: C18_31  and  C19_32 
REMARK   14  A    between atoms: C19_32  and  C20_33 
REMARK   15  A    between atoms: C22_37  and  C23_38 
REMARK   16  A    between atoms: C27_45  and  C28_46 
ROOT
HETATM    1  C5  UNL     1      35.584  -6.681  -0.360  1.00  0.00     0.180 C 
HETATM    2  N1  UNL     1      34.963  -7.840   0.213  1.00  0.00    -0.346 N 
ATOM      3  H1  UNL     1      34.559  -7.643   1.129  1.00  0.00     0.163 HD
HETATM    4  C6  UNL     1      34.772  -9.168  -0.166  1.00  0.00     0.241 C 
HETATM    5  O1  UNL     1      35.446 -10.110   0.422  1.00  0.00    -0.271 OA
HETATM    6  C7  UNL     1      33.890  -9.808  -1.179  1.00  0.00     0.176 C 
HETATM    7  N2  UNL     1      32.913  -8.956  -1.772  1.00  0.00    -0.361 N 
ATOM      8  H2  UNL     1      32.703  -8.136  -1.202  1.00  0.00     0.162 HD
HETATM    9  C11 UNL     1      32.190  -8.994  -2.945  1.00  0.00     0.118 C 
HETATM   10  C12 UNL     1      32.452  -8.979  -4.371  1.00  0.00     0.088 C 
HETATM   11  C13 UNL     1      31.265  -8.275  -5.101  1.00  0.00     0.021 C 
HETATM   12  C14 UNL     1      33.692  -8.575  -4.997  1.00  0.00     0.188 C 
HETATM   13  N4  UNL     1      34.843  -8.159  -4.274  1.00  0.00    -0.345 N 
ATOM     14  H4  UNL     1      35.331  -8.914  -3.790  1.00  0.00     0.163 HD
HETATM   15  C26 UNL     1      35.431  -6.882  -4.107  1.00  0.00     0.241 C 
HETATM   16  O7  UNL     1      36.691  -6.750  -4.369  1.00  0.00    -0.271 OA
HETATM   17  C27 UNL     1      34.756  -5.634  -3.658  1.00  0.00     0.180 C 
HETATM   18  N5  UNL     1      34.238  -5.644  -2.353  1.00  0.00    -0.346 N 
ATOM     19  H5  UNL     1      33.219  -5.588  -2.361  1.00  0.00     0.163 HD
HETATM   20  C31 UNL     1      34.732  -5.709  -1.045  1.00  0.00     0.241 C 
HETATM   21  O8  UNL     1      34.350  -4.707  -0.321  1.00  0.00    -0.271 OA
ENDROOT
BRANCH  12  22
HETATM   22  C15 UNL     1      34.102  -9.603  -6.033  1.00  0.00     0.241 C 
HETATM   23  O5  UNL     1      34.351  -9.141  -7.186  1.00  0.00    -0.271 OA
HETATM   24  N3  UNL     1      34.210 -10.977  -5.780  1.00  0.00    -0.353 N 
ATOM     25  H3  UNL     1      34.017 -11.344  -4.848  1.00  0.00     0.163 HD
BRANCH  24  26
HETATM   26  C16 UNL     1      34.596 -11.867  -6.842  1.00  0.00     0.108 C 
BRANCH  26  27
HETATM   27  C17 UNL     1      35.723 -12.729  -6.307  1.00  0.00     0.192 C 
BRANCH  27  28
HETATM   28  O6  UNL     1      35.752 -12.694  -4.956  1.00  0.00    -0.389 OA
BRANCH  28  29
HETATM   29  C18 UNL     1      35.865 -13.904  -4.341  1.00  0.00     0.173 C 
BRANCH  29  30
HETATM   30  C19 UNL     1      35.099 -14.965  -5.140  1.00  0.00     0.105 C 
BRANCH  30  31
HETATM   31  C20 UNL     1      33.883 -15.336  -4.348  1.00  0.00     0.242 C 
HETATM   32  C21 UNL     1      33.080 -16.412  -5.077  1.00  0.00     0.090 C 
HETATM   33  F1  UNL     1      33.039 -14.268  -4.156  1.00  0.00    -0.207 F 
HETATM   34  F2  UNL     1      34.331 -15.850  -3.129  1.00  0.00    -0.207 F 
ENDBRANCH  30  31
ENDBRANCH  29  30
ENDBRANCH  28  29
ENDBRANCH  27  28
ENDBRANCH  26  27
BRANCH  26  35
HETATM   35  C22 UNL     1      33.518 -12.645  -7.479  1.00  0.00     0.031 C 
BRANCH  35  36
HETATM   36  C23 UNL     1      32.143 -12.563  -6.929  1.00  0.00    -0.021 C 
HETATM   37  C24 UNL     1      31.467 -13.906  -7.323  1.00  0.00     0.009 C 
HETATM   38  C25 UNL     1      31.256 -11.505  -7.530  1.00  0.00     0.009 C 
ENDBRANCH  35  36
ENDBRANCH  26  35
ENDBRANCH  24  26
ENDBRANCH  12  22
BRANCH   9  39
HETATM   39  O4  UNL     1      30.893  -9.061  -2.737  1.00  0.00    -0.349 OA
ATOM     40  H4  UNL     1      30.389  -8.692  -3.453  1.00  0.00     0.219 HD
ENDBRANCH   9  39
BRANCH  17  41
HETATM   41  C28 UNL     1      35.541  -4.407  -4.061  1.00  0.00     0.009 C 
HETATM   42  C29 UNL     1      36.304  -3.753  -2.952  1.00  0.00     0.012 C 
HETATM   43  C30 UNL     1      34.734  -3.477  -4.904  1.00  0.00     0.012 C 
ENDBRANCH  17  41
BRANCH   6  44
HETATM   44  C8  UNL     1      33.386 -11.162  -0.727  1.00  0.00     0.045 C 
BRANCH  44  45
HETATM   45  C9  UNL     1      33.698 -12.340  -1.525  1.00  0.00     0.116 C 
BRANCH  45  46
HETATM   46  C10 UNL     1      33.411 -13.620  -0.862  1.00  0.00     0.172 C 
HETATM   47  O2  UNL     1      34.282 -14.403  -0.442  1.00  0.00    -0.648 OA
HETATM   48  O3  UNL     1      32.056 -13.972  -0.697  1.00  0.00    -0.648 OA
ENDBRANCH  45  46
ENDBRANCH  44  45
ENDBRANCH   6  44
BRANCH   1  49
HETATM   49  C3  UNL     1      36.405  -6.011   0.745  1.00  0.00     0.013 C 
HETATM   50  C4  UNL     1      37.589  -5.275   0.168  1.00  0.00     0.012 C 
BRANCH  49  51
HETATM   51  C2  UNL     1      36.879  -6.872   1.834  1.00  0.00     0.002 C 
HETATM   52  C1  UNL     1      38.323  -6.431   2.148  1.00  0.00     0.005 C 
ENDBRANCH  49  51
ENDBRANCH   1  49
TORSDOF 16
ENDMDL
