MODEL 1
REMARK VINA RESULT: -8.111634987      0.000      0.000
REMARK  18 active torsions:
REMARK  status: ('A' for Active; 'I' for Inactive)
REMARK    1  A    between atoms: C2_2  and  C3_3 
REMARK    2  A    between atoms: C3_3  and  C4_7 
REMARK    3  A    between atoms: C4_7  and  O1_8 
REMARK    4  A    between atoms: C4_7  and  C5_10 
REMARK    5  A    between atoms: C6_11  and  C7_12 
REMARK    6  A    between atoms: C7_12  and  C8_14 
REMARK    7  A    between atoms: C9_15  and  C10_16 
REMARK    8  A    between atoms: C11_17  and  N2_18 
REMARK    9  A    between atoms: N3_27  and  C16_28 
REMARK   10  A    between atoms: C16_28  and  C17_29 
REMARK   11  A    between atoms: C17_29  and  C19_31 
REMARK       I    between atoms: C19_31  and  N4_33 
REMARK       I    between atoms: N4_33  and  C20_35 
REMARK   12  A    between atoms: C20_35  and  C21_37 
REMARK   13  A    between atoms: C21_37  and  N5_38 
REMARK   14  A    between atoms: C21_37  and  C22_46 
REMARK   15  A    between atoms: N5_38  and  S1_40 
REMARK   16  A    between atoms: S1_40  and  N6_41 
REMARK   17  A    between atoms: C25_49  and  C26_50 
REMARK   18  A    between atoms: C27_51  and  C28_52 
ROOT
HETATM    1  C10 UNL     1      38.373  -4.999  -1.266  1.00  0.00     0.068 C 
HETATM    2  C11 UNL     1      38.199  -3.569  -0.947  1.00  0.00     0.229 C 
HETATM    3  C12 UNL     1      36.931  -2.943  -1.367  1.00  0.00     0.228 C 
HETATM    4  F2  UNL     1      37.085  -2.266  -2.583  1.00  0.00    -0.245 F 
HETATM    5  C13 UNL     1      35.734  -3.864  -1.486  1.00  0.00     0.058 C 
HETATM    6  C14 UNL     1      35.091  -3.999  -0.128  1.00  0.00     0.041 C 
HETATM    7  C15 UNL     1      34.726  -3.044  -2.310  1.00  0.00     0.041 C 
HETATM    8  N3  UNL     1      36.017  -5.115  -2.034  1.00  0.00    -0.372 N 
HETATM    9  C25 UNL     1      37.336  -5.540  -2.235  1.00  0.00     0.116 C 
ENDROOT
BRANCH   8  10
HETATM   10  C16 UNL     1      35.090  -5.782  -2.860  1.00  0.00     0.073 C 
BRANCH  10  11
HETATM   11  C17 UNL     1      34.126  -6.717  -2.192  1.00  0.00     0.112 C 
HETATM   12  C18 UNL     1      34.737  -7.313  -0.973  1.00  0.00     0.025 C 
BRANCH  11  13
HETATM   13  C19 UNL     1      33.662  -7.732  -3.201  1.00  0.00     0.233 C 
HETATM   14  O2  UNL     1      32.481  -8.205  -3.024  1.00  0.00    -0.272 OA
HETATM   15  N4  UNL     1      34.472  -8.132  -4.261  1.00  0.00    -0.295 N 
HETATM   16  C20 UNL     1      34.178  -9.049  -5.248  1.00  0.00     0.248 C 
ATOM     17  H4  UNL     1      35.393  -7.695  -4.312  1.00  0.00     0.171 HD
HETATM   18  O3  UNL     1      35.123  -9.275  -6.110  1.00  0.00    -0.271 OA
BRANCH  16  19
HETATM   19  C21 UNL     1      32.929  -9.792  -5.429  1.00  0.00     0.190 C 
BRANCH  19  20
HETATM   20  N5  UNL     1      33.322 -11.212  -5.753  1.00  0.00    -0.289 N 
ATOM     21  H5  UNL     1      33.358 -11.595  -6.698  1.00  0.00     0.174 HD
BRANCH  20  22
HETATM   22  S1  UNL     1      33.699 -12.095  -4.348  1.00  0.00     0.313 S 
HETATM   23  O4  UNL     1      35.204 -12.257  -4.304  1.00  0.00    -0.183 OA
HETATM   24  O5  UNL     1      33.080 -13.477  -4.376  1.00  0.00    -0.183 OA
BRANCH  22  25
HETATM   25  N6  UNL     1      33.226 -11.339  -2.879  1.00  0.00    -0.312 N 
ATOM     26  H62 UNL     1      33.136 -10.326  -2.802  1.00  0.00     0.170 HD
ATOM     27  H61 UNL     1      33.048 -11.982  -2.108  1.00  0.00     0.170 HD
ENDBRANCH  22  25
ENDBRANCH  20  22
ENDBRANCH  19  20
BRANCH  19  28
HETATM   28  C22 UNL     1      32.092  -9.322  -6.579  1.00  0.00     0.010 C 
HETATM   29  C23 UNL     1      31.372 -10.498  -7.206  1.00  0.00     0.012 C 
HETATM   30  C24 UNL     1      31.119  -8.274  -6.209  1.00  0.00     0.012 C 
ENDBRANCH  19  28
ENDBRANCH  16  19
ENDBRANCH  11  13
ENDBRANCH  10  11
ENDBRANCH   8  10
BRANCH   9  31
HETATM   31  C26 UNL     1      37.796  -5.414  -3.662  1.00  0.00    -0.004 C 
HETATM   32  C27 UNL     1      38.339  -6.427  -4.288  1.00  0.00    -0.020 C 
BRANCH  32  33
HETATM   33  C28 UNL     1      38.772  -6.220  -5.713  1.00  0.00    -0.034 C 
HETATM   34  C29 UNL     1      39.377  -4.861  -5.920  1.00  0.00     0.018 C 
HETATM   35  C30 UNL     1      37.465  -6.248  -6.514  1.00  0.00     0.018 C 
HETATM   36  C31 UNL     1      39.673  -7.313  -6.196  1.00  0.00     0.018 C 
ENDBRANCH  32  33
ENDBRANCH   9  31
BRANCH   1  37
HETATM   37  C9  UNL     1      38.521  -5.923  -0.117  1.00  0.00    -0.019 C 
HETATM   38  C8  UNL     1      37.775  -6.037   0.935  1.00  0.00     0.010 C 
BRANCH  38  39
HETATM   39  C7  UNL     1      38.036  -7.024   2.042  1.00  0.00     0.215 C 
HETATM   40  F1  UNL     1      38.957  -6.362   2.875  1.00  0.00    -0.241 F 
BRANCH  39  41
HETATM   41  C6  UNL     1      36.850  -7.273   2.877  1.00  0.00     0.013 C 
HETATM   42  C5  UNL     1      36.713  -8.444   3.474  1.00  0.00     0.010 C 
BRANCH  42  43
HETATM   43  C4  UNL     1      35.541  -8.799   4.346  1.00  0.00     0.190 C 
BRANCH  43  44
HETATM   44  C3  UNL     1      35.689 -10.196   4.791  1.00  0.00     0.034 C 
HETATM   45  N1  UNL     1      34.865 -10.715   5.621  1.00  0.00    -0.400 N 
ATOM     46  H12 UNL     1      34.968 -11.682   5.928  1.00  0.00     0.156 HD
ATOM     47  H11 UNL     1      34.092 -10.155   5.983  1.00  0.00     0.156 HD
BRANCH  44  48
HETATM   48  C2  UNL     1      36.789 -10.994   4.276  1.00  0.00     0.017 C 
HETATM   49  C1  UNL     1      37.458 -11.826   5.083  1.00  0.00     0.013 C 
ENDBRANCH  44  48
ENDBRANCH  43  44
BRANCH  43  50
HETATM   50  O1  UNL     1      34.332  -8.605   3.656  1.00  0.00    -0.386 OA
ATOM     51  H1  UNL     1      34.257  -9.194   2.915  1.00  0.00     0.210 HD
ENDBRANCH  43  50
ENDBRANCH  42  43
ENDBRANCH  39  41
ENDBRANCH  38  39
ENDBRANCH   1  37
BRANCH   2  52
HETATM   52  N2  UNL     1      39.274  -2.805  -1.629  1.00  0.00    -0.071 N 
ATOM     53  H23 UNL     1      39.293  -1.823  -1.354  1.00  0.00     0.274 HD
ATOM     54  H22 UNL     1      40.205  -3.060  -1.300  1.00  0.00     0.274 HD
ATOM     55  H21 UNL     1      39.166  -2.929  -2.636  1.00  0.00     0.274 HD
ENDBRANCH   2  52
TORSDOF 18
ENDMDL
MODEL 2
REMARK VINA RESULT: -7.944127133      0.998      1.037
REMARK  18 active torsions:
REMARK  status: ('A' for Active; 'I' for Inactive)
REMARK    1  A    between atoms: C2_2  and  C3_3 
REMARK    2  A    between atoms: C3_3  and  C4_7 
REMARK    3  A    between atoms: C4_7  and  O1_8 
REMARK    4  A    between atoms: C4_7  and  C5_10 
REMARK    5  A    between atoms: C6_11  and  C7_12 
REMARK    6  A    between atoms: C7_12  and  C8_14 
REMARK    7  A    between atoms: C9_15  and  C10_16 
REMARK    8  A    between atoms: C11_17  and  N2_18 
REMARK    9  A    between atoms: N3_27  and  C16_28 
REMARK   10  A    between atoms: C16_28  and  C17_29 
REMARK   11  A    between atoms: C17_29  and  C19_31 
REMARK       I    between atoms: C19_31  and  N4_33 
REMARK       I    between atoms: N4_33  and  C20_35 
REMARK   12  A    between atoms: C20_35  and  C21_37 
REMARK   13  A    between atoms: C21_37  and  N5_38 
REMARK   14  A    between atoms: C21_37  and  C22_46 
REMARK   15  A    between atoms: N5_38  and  S1_40 
REMARK   16  A    between atoms: S1_40  and  N6_41 
REMARK   17  A    between atoms: C25_49  and  C26_50 
REMARK   18  A    between atoms: C27_51  and  C28_52 
ROOT
HETATM    1  C10 UNL     1      38.283  -5.257  -1.235  1.00  0.00     0.068 C 
HETATM    2  C11 UNL     1      38.448  -3.791  -1.182  1.00  0.00     0.229 C 
HETATM    3  C12 UNL     1      37.324  -2.977  -1.683  1.00  0.00     0.228 C 
HETATM    4  F2  UNL     1      37.549  -2.575  -3.006  1.00  0.00    -0.245 F 
HETATM    5  C13 UNL     1      35.949  -3.608  -1.605  1.00  0.00     0.058 C 
HETATM    6  C14 UNL     1      35.377  -3.354  -0.234  1.00  0.00     0.041 C 
HETATM    7  C15 UNL     1      35.098  -2.737  -2.546  1.00  0.00     0.041 C 
HETATM    8  N3  UNL     1      35.917  -4.966  -1.920  1.00  0.00    -0.372 N 
HETATM    9  C25 UNL     1      37.095  -5.709  -2.066  1.00  0.00     0.116 C 
ENDROOT
BRANCH   8  10
HETATM   10  C16 UNL     1      34.816  -5.539  -2.589  1.00  0.00     0.073 C 
BRANCH  10  11
HETATM   11  C17 UNL     1      34.007  -6.552  -1.836  1.00  0.00     0.112 C 
HETATM   12  C18 UNL     1      34.712  -6.961  -0.590  1.00  0.00     0.025 C 
BRANCH  11  13
HETATM   13  C19 UNL     1      33.684  -7.695  -2.759  1.00  0.00     0.233 C 
HETATM   14  O2  UNL     1      32.475  -8.127  -2.721  1.00  0.00    -0.272 OA
HETATM   15  N4  UNL     1      34.646  -8.247  -3.601  1.00  0.00    -0.295 N 
HETATM   16  C20 UNL     1      34.490  -9.292  -4.488  1.00  0.00     0.248 C 
ATOM     17  H4  UNL     1      35.576  -7.830  -3.556  1.00  0.00     0.171 HD
HETATM   18  O3  UNL     1      35.558  -9.645  -5.138  1.00  0.00    -0.271 OA
BRANCH  16  19
HETATM   19  C21 UNL     1      33.266 -10.043  -4.773  1.00  0.00     0.190 C 
BRANCH  19  20
HETATM   20  N5  UNL     1      33.654 -11.500  -4.790  1.00  0.00    -0.289 N 
ATOM     21  H5  UNL     1      33.899 -12.018  -5.634  1.00  0.00     0.174 HD
BRANCH  20  22
HETATM   22  S1  UNL     1      33.634 -12.172  -3.227  1.00  0.00     0.313 S 
HETATM   23  O4  UNL     1      35.074 -12.350  -2.790  1.00  0.00    -0.183 OA
HETATM   24  O5  UNL     1      32.970 -13.534  -3.214  1.00  0.00    -0.183 OA
BRANCH  22  25
HETATM   25  N6  UNL     1      32.859 -11.201  -2.040  1.00  0.00    -0.312 N 
ATOM     26  H62 UNL     1      32.136 -10.526  -2.287  1.00  0.00     0.170 HD
ATOM     27  H61 UNL     1      33.181 -11.359  -1.085  1.00  0.00     0.170 HD
ENDBRANCH  22  25
ENDBRANCH  20  22
ENDBRANCH  19  20
BRANCH  19  28
HETATM   28  C22 UNL     1      32.666  -9.759  -6.116  1.00  0.00     0.010 C 
HETATM   29  C23 UNL     1      32.452 -11.056  -6.869  1.00  0.00     0.012 C 
HETATM   30  C24 UNL     1      31.401  -9.001  -6.048  1.00  0.00     0.012 C 
ENDBRANCH  19  28
ENDBRANCH  16  19
ENDBRANCH  11  13
ENDBRANCH  10  11
ENDBRANCH   8  10
BRANCH   9  31
HETATM   31  C26 UNL     1      37.483  -5.941  -3.501  1.00  0.00    -0.004 C 
HETATM   32  C27 UNL     1      38.660  -6.422  -3.812  1.00  0.00    -0.020 C 
BRANCH  32  33
HETATM   33  C28 UNL     1      38.971  -6.627  -5.269  1.00  0.00    -0.034 C 
HETATM   34  C29 UNL     1      39.501  -5.374  -5.906  1.00  0.00     0.018 C 
HETATM   35  C30 UNL     1      37.608  -6.907  -5.911  1.00  0.00     0.018 C 
HETATM   36  C31 UNL     1      39.876  -7.796  -5.496  1.00  0.00     0.018 C 
ENDBRANCH  32  33
ENDBRANCH   9  31
BRANCH   1  37
HETATM   37  C9  UNL     1      38.295  -5.974   0.061  1.00  0.00    -0.019 C 
HETATM   38  C8  UNL     1      37.922  -5.552   1.227  1.00  0.00     0.010 C 
BRANCH  38  39
HETATM   39  C7  UNL     1      37.985  -6.387   2.479  1.00  0.00     0.215 C 
HETATM   40  F1  UNL     1      37.230  -5.654   3.413  1.00  0.00    -0.241 F 
BRANCH  39  41
HETATM   41  C6  UNL     1      37.299  -7.681   2.339  1.00  0.00     0.013 C 
HETATM   42  C5  UNL     1      36.553  -8.129   3.333  1.00  0.00     0.010 C 
BRANCH  42  43
HETATM   43  C4  UNL     1      35.812  -9.437   3.292  1.00  0.00     0.190 C 
BRANCH  43  44
HETATM   44  C3  UNL     1      35.479  -9.835   4.670  1.00  0.00     0.034 C 
HETATM   45  N1  UNL     1      34.930  -9.010   5.481  1.00  0.00    -0.400 N 
ATOM     46  H12 UNL     1      34.700  -9.286   6.435  1.00  0.00     0.156 HD
ATOM     47  H11 UNL     1      34.721  -8.061   5.171  1.00  0.00     0.156 HD
BRANCH  44  48
HETATM   48  C2  UNL     1      35.777 -11.187   5.113  1.00  0.00     0.017 C 
HETATM   49  C1  UNL     1      34.797 -11.987   5.550  1.00  0.00     0.013 C 
ENDBRANCH  44  48
ENDBRANCH  43  44
BRANCH  43  50
HETATM   50  O1  UNL     1      36.577 -10.421   2.643  1.00  0.00    -0.386 OA
ATOM     51  H1  UNL     1      36.253 -10.593   1.767  1.00  0.00     0.210 HD
ENDBRANCH  43  50
ENDBRANCH  42  43
ENDBRANCH  39  41
ENDBRANCH  38  39
ENDBRANCH   1  37
BRANCH   2  52
HETATM   52  N2  UNL     1      39.620  -3.423  -2.014  1.00  0.00    -0.071 N 
ATOM     53  H23 UNL     1      40.496  -3.449  -1.492  1.00  0.00     0.274 HD
ATOM     54  H22 UNL     1      39.849  -4.137  -2.706  1.00  0.00     0.274 HD
ATOM     55  H21 UNL     1      39.440  -2.511  -2.436  1.00  0.00     0.274 HD
ENDBRANCH   2  52
TORSDOF 18
ENDMDL
MODEL 3
REMARK VINA RESULT: -7.943563807      3.482      6.410
REMARK  18 active torsions:
REMARK  status: ('A' for Active; 'I' for Inactive)
REMARK    1  A    between atoms: C2_2  and  C3_3 
REMARK    2  A    between atoms: C3_3  and  C4_7 
REMARK    3  A    between atoms: C4_7  and  O1_8 
REMARK    4  A    between atoms: C4_7  and  C5_10 
REMARK    5  A    between atoms: C6_11  and  C7_12 
REMARK    6  A    between atoms: C7_12  and  C8_14 
REMARK    7  A    between atoms: C9_15  and  C10_16 
REMARK    8  A    between atoms: C11_17  and  N2_18 
REMARK    9  A    between atoms: N3_27  and  C16_28 
REMARK   10  A    between atoms: C16_28  and  C17_29 
REMARK   11  A    between atoms: C17_29  and  C19_31 
REMARK       I    between atoms: C19_31  and  N4_33 
REMARK       I    between atoms: N4_33  and  C20_35 
REMARK   12  A    between atoms: C20_35  and  C21_37 
REMARK   13  A    between atoms: C21_37  and  N5_38 
REMARK   14  A    between atoms: C21_37  and  C22_46 
REMARK   15  A    between atoms: N5_38  and  S1_40 
REMARK   16  A    between atoms: S1_40  and  N6_41 
REMARK   17  A    between atoms: C25_49  and  C26_50 
REMARK   18  A    between atoms: C27_51  and  C28_52 
ROOT
HETATM    1  C10 UNL     1      34.911  -5.959  -1.592  1.00  0.00     0.068 C 
HETATM    2  C11 UNL     1      33.916  -4.879  -1.733  1.00  0.00     0.229 C 
HETATM    3  C12 UNL     1      34.436  -3.530  -2.026  1.00  0.00     0.228 C 
HETATM    4  F2  UNL     1      34.539  -2.768  -0.856  1.00  0.00    -0.245 F 
HETATM    5  C13 UNL     1      35.763  -3.464  -2.754  1.00  0.00     0.058 C 
HETATM    6  C14 UNL     1      35.507  -3.568  -4.236  1.00  0.00     0.041 C 
HETATM    7  C15 UNL     1      36.220  -2.010  -2.542  1.00  0.00     0.041 C 
HETATM    8  N3  UNL     1      36.699  -4.410  -2.338  1.00  0.00    -0.372 N 
HETATM    9  C25 UNL     1      36.342  -5.462  -1.485  1.00  0.00     0.116 C 
ENDROOT
BRANCH   8  10
HETATM   10  C16 UNL     1      38.077  -4.114  -2.303  1.00  0.00     0.073 C 
BRANCH  10  11
HETATM   11  C17 UNL     1      39.029  -5.263  -2.450  1.00  0.00     0.112 C 
HETATM   12  C18 UNL     1      40.383  -4.884  -1.961  1.00  0.00     0.025 C 
BRANCH  11  13
HETATM   13  C19 UNL     1      39.003  -5.731  -3.879  1.00  0.00     0.233 C 
HETATM   14  O2  UNL     1      38.502  -6.896  -4.083  1.00  0.00    -0.272 OA
HETATM   15  N4  UNL     1      39.499  -4.942  -4.914  1.00  0.00    -0.295 N 
HETATM   16  C20 UNL     1      39.542  -5.246  -6.259  1.00  0.00     0.248 C 
ATOM     17  H4  UNL     1      39.875  -4.033  -4.646  1.00  0.00     0.171 HD
HETATM   18  O3  UNL     1      40.090  -4.350  -7.023  1.00  0.00    -0.271 OA
BRANCH  16  19
HETATM   19  C21 UNL     1      39.047  -6.458  -6.914  1.00  0.00     0.190 C 
BRANCH  19  20
HETATM   20  N5  UNL     1      40.256  -7.315  -7.195  1.00  0.00    -0.289 N 
ATOM     21  H5  UNL     1      41.013  -7.048  -7.824  1.00  0.00     0.174 HD
BRANCH  20  22
HETATM   22  S1  UNL     1      40.200  -8.780  -6.333  1.00  0.00     0.313 S 
HETATM   23  O4  UNL     1      41.092  -9.767  -7.058  1.00  0.00    -0.183 OA
HETATM   24  O5  UNL     1      38.798  -9.354  -6.300  1.00  0.00    -0.183 OA
BRANCH  22  25
HETATM   25  N6  UNL     1      40.763  -8.681  -4.713  1.00  0.00    -0.312 N 
ATOM     26  H62 UNL     1      41.404  -7.947  -4.412  1.00  0.00     0.170 HD
ATOM     27  H61 UNL     1      40.405  -9.408  -4.093  1.00  0.00     0.170 HD
ENDBRANCH  22  25
ENDBRANCH  20  22
ENDBRANCH  19  20
BRANCH  19  28
HETATM   28  C22 UNL     1      38.393  -6.219  -8.241  1.00  0.00     0.010 C 
HETATM   29  C23 UNL     1      39.207  -6.867  -9.341  1.00  0.00     0.012 C 
HETATM   30  C24 UNL     1      36.995  -6.694  -8.302  1.00  0.00     0.012 C 
ENDBRANCH  19  28
ENDBRANCH  16  19
ENDBRANCH  11  13
ENDBRANCH  10  11
ENDBRANCH   8  10
BRANCH   9  31
HETATM   31  C26 UNL     1      36.741  -5.235  -0.053  1.00  0.00    -0.004 C 
HETATM   32  C27 UNL     1      37.041  -6.238   0.732  1.00  0.00    -0.020 C 
BRANCH  32  33
HETATM   33  C28 UNL     1      37.431  -5.928   2.151  1.00  0.00    -0.034 C 
HETATM   34  C29 UNL     1      36.949  -4.571   2.577  1.00  0.00     0.018 C 
HETATM   35  C30 UNL     1      38.962  -5.863   2.116  1.00  0.00     0.018 C 
HETATM   36  C31 UNL     1      37.002  -6.999   3.103  1.00  0.00     0.018 C 
ENDBRANCH  32  33
ENDBRANCH   9  31
BRANCH   1  37
HETATM   37  C9  UNL     1      34.833  -7.067  -2.572  1.00  0.00    -0.019 C 
HETATM   38  C8  UNL     1      33.794  -7.731  -2.968  1.00  0.00     0.010 C 
BRANCH  38  39
HETATM   39  C7  UNL     1      33.847  -8.845  -3.980  1.00  0.00     0.215 C 
HETATM   40  F1  UNL     1      34.866  -8.448  -4.866  1.00  0.00    -0.241 F 
BRANCH  39  41
HETATM   41  C6  UNL     1      34.296 -10.121  -3.402  1.00  0.00     0.013 C 
HETATM   42  C5  UNL     1      33.979 -10.414  -2.154  1.00  0.00     0.010 C 
BRANCH  42  43
HETATM   43  C4  UNL     1      34.389 -11.689  -1.469  1.00  0.00     0.190 C 
BRANCH  43  44
HETATM   44  C3  UNL     1      33.180 -12.370  -0.975  1.00  0.00     0.034 C 
HETATM   45  N1  UNL     1      32.431 -11.826  -0.091  1.00  0.00    -0.400 N 
ATOM     46  H12 UNL     1      31.594 -12.298   0.251  1.00  0.00     0.156 HD
ATOM     47  H11 UNL     1      32.674 -10.907   0.280  1.00  0.00     0.156 HD
BRANCH  44  48
HETATM   48  C2  UNL     1      32.833 -13.679  -1.503  1.00  0.00     0.017 C 
HETATM   49  C1  UNL     1      33.207 -14.030  -2.739  1.00  0.00     0.013 C 
ENDBRANCH  44  48
ENDBRANCH  43  44
BRANCH  43  50
HETATM   50  O1  UNL     1      35.293 -11.425  -0.426  1.00  0.00    -0.386 OA
ATOM     51  H1  UNL     1      36.165 -11.250  -0.759  1.00  0.00     0.210 HD
ENDBRANCH  43  50
ENDBRANCH  42  43
ENDBRANCH  39  41
ENDBRANCH  38  39
ENDBRANCH   1  37
BRANCH   2  52
HETATM   52  N2  UNL     1      33.173  -4.759  -0.454  1.00  0.00    -0.071 N 
ATOM     53  H23 UNL     1      33.787  -4.579   0.341  1.00  0.00     0.274 HD
ATOM     54  H22 UNL     1      32.621  -3.903  -0.400  1.00  0.00     0.274 HD
ATOM     55  H21 UNL     1      32.608  -5.599  -0.332  1.00  0.00     0.274 HD
ENDBRANCH   2  52
TORSDOF 18
ENDMDL
MODEL 4
REMARK VINA RESULT: -7.878482473      1.731      2.385
REMARK  18 active torsions:
REMARK  status: ('A' for Active; 'I' for Inactive)
REMARK    1  A    between atoms: C2_2  and  C3_3 
REMARK    2  A    between atoms: C3_3  and  C4_7 
REMARK    3  A    between atoms: C4_7  and  O1_8 
REMARK    4  A    between atoms: C4_7  and  C5_10 
REMARK    5  A    between atoms: C6_11  and  C7_12 
REMARK    6  A    between atoms: C7_12  and  C8_14 
REMARK    7  A    between atoms: C9_15  and  C10_16 
REMARK    8  A    between atoms: C11_17  and  N2_18 
REMARK    9  A    between atoms: N3_27  and  C16_28 
REMARK   10  A    between atoms: C16_28  and  C17_29 
REMARK   11  A    between atoms: C17_29  and  C19_31 
REMARK       I    between atoms: C19_31  and  N4_33 
REMARK       I    between atoms: N4_33  and  C20_35 
REMARK   12  A    between atoms: C20_35  and  C21_37 
REMARK   13  A    between atoms: C21_37  and  N5_38 
REMARK   14  A    between atoms: C21_37  and  C22_46 
REMARK   15  A    between atoms: N5_38  and  S1_40 
REMARK   16  A    between atoms: S1_40  and  N6_41 
REMARK   17  A    between atoms: C25_49  and  C26_50 
REMARK   18  A    between atoms: C27_51  and  C28_52 
ROOT
HETATM    1  C10 UNL     1      37.769  -4.890  -1.432  1.00  0.00     0.068 C 
HETATM    2  C11 UNL     1      37.565  -3.433  -1.318  1.00  0.00     0.229 C 
HETATM    3  C12 UNL     1      36.349  -2.880  -1.945  1.00  0.00     0.228 C 
HETATM    4  F2  UNL     1      36.632  -2.361  -3.215  1.00  0.00    -0.245 F 
HETATM    5  C13 UNL     1      35.169  -3.822  -2.068  1.00  0.00     0.058 C 
HETATM    6  C14 UNL     1      34.388  -3.790  -0.779  1.00  0.00     0.041 C 
HETATM    7  C15 UNL     1      34.256  -3.125  -3.092  1.00  0.00     0.041 C 
HETATM    8  N3  UNL     1      35.506  -5.129  -2.420  1.00  0.00    -0.372 N 
HETATM    9  C25 UNL     1      36.838  -5.561  -2.426  1.00  0.00     0.116 C 
ENDROOT
BRANCH   8  10
HETATM   10  C16 UNL     1      34.669  -5.906  -3.245  1.00  0.00     0.073 C 
BRANCH  10  11
HETATM   11  C17 UNL     1      33.945  -7.052  -2.603  1.00  0.00     0.112 C 
HETATM   12  C18 UNL     1      34.429  -7.260  -1.211  1.00  0.00     0.025 C 
BRANCH  11  13
HETATM   13  C19 UNL     1      34.080  -8.263  -3.485  1.00  0.00     0.233 C 
HETATM   14  O2  UNL     1      34.522  -8.051  -4.672  1.00  0.00    -0.272 OA
HETATM   15  N4  UNL     1      33.742  -9.536  -3.033  1.00  0.00    -0.295 N 
HETATM   16  C20 UNL     1      33.812 -10.724  -3.731  1.00  0.00     0.248 C 
ATOM     17  H4  UNL     1      33.401  -9.597  -2.073  1.00  0.00     0.171 HD
HETATM   18  O3  UNL     1      33.402 -11.779  -3.092  1.00  0.00    -0.271 OA
BRANCH  16  19
HETATM   19  C21 UNL     1      34.289 -10.926  -5.100  1.00  0.00     0.190 C 
BRANCH  19  20
HETATM   20  N5  UNL     1      33.095 -11.377  -5.904  1.00  0.00    -0.289 N 
ATOM     21  H5  UNL     1      32.815 -12.352  -6.015  1.00  0.00     0.174 HD
BRANCH  20  22
HETATM   22  S1  UNL     1      32.275 -10.060  -6.603  1.00  0.00     0.313 S 
HETATM   23  O4  UNL     1      31.441  -9.416  -5.514  1.00  0.00    -0.183 OA
HETATM   24  O5  UNL     1      31.340 -10.507  -7.707  1.00  0.00    -0.183 OA
BRANCH  22  25
HETATM   25  N6  UNL     1      33.299  -8.839  -7.247  1.00  0.00    -0.312 N 
ATOM     26  H62 UNL     1      34.096  -8.477  -6.725  1.00  0.00     0.170 HD
ATOM     27  H61 UNL     1      33.041  -8.517  -8.180  1.00  0.00     0.170 HD
ENDBRANCH  22  25
ENDBRANCH  20  22
ENDBRANCH  19  20
BRANCH  19  28
HETATM   28  C22 UNL     1      35.316 -12.007  -5.243  1.00  0.00     0.010 C 
HETATM   29  C23 UNL     1      34.682 -13.244  -5.846  1.00  0.00     0.012 C 
HETATM   30  C24 UNL     1      36.490 -11.601  -6.042  1.00  0.00     0.012 C 
ENDBRANCH  19  28
ENDBRANCH  16  19
ENDBRANCH  11  13
ENDBRANCH  10  11
ENDBRANCH   8  10
BRANCH   9  31
HETATM   31  C26 UNL     1      37.445  -5.613  -3.801  1.00  0.00    -0.004 C 
HETATM   32  C27 UNL     1      37.958  -6.721  -4.272  1.00  0.00    -0.020 C 
BRANCH  32  33
HETATM   33  C28 UNL     1      38.545  -6.691  -5.656  1.00  0.00    -0.034 C 
HETATM   34  C29 UNL     1      39.657  -7.689  -5.810  1.00  0.00     0.018 C 
HETATM   35  C30 UNL     1      39.180  -5.300  -5.767  1.00  0.00     0.018 C 
HETATM   36  C31 UNL     1      37.503  -6.847  -6.717  1.00  0.00     0.018 C 
ENDBRANCH  32  33
ENDBRANCH   9  31
BRANCH   1  37
HETATM   37  C9  UNL     1      37.794  -5.657  -0.165  1.00  0.00    -0.019 C 
HETATM   38  C8  UNL     1      38.815  -6.041   0.533  1.00  0.00     0.010 C 
BRANCH  38  39
HETATM   39  C7  UNL     1      38.706  -6.823   1.815  1.00  0.00     0.215 C 
HETATM   40  F1  UNL     1      39.102  -5.905   2.806  1.00  0.00    -0.241 F 
BRANCH  39  41
HETATM   41  C6  UNL     1      37.320  -7.192   2.145  1.00  0.00     0.013 C 
HETATM   42  C5  UNL     1      36.972  -8.466   2.146  1.00  0.00     0.010 C 
BRANCH  42  43
HETATM   43  C4  UNL     1      35.584  -8.948   2.467  1.00  0.00     0.190 C 
BRANCH  43  44
HETATM   44  C3  UNL     1      35.446  -9.052   3.930  1.00  0.00     0.034 C 
HETATM   45  N1  UNL     1      34.621  -8.311   4.569  1.00  0.00    -0.400 N 
ATOM     46  H12 UNL     1      34.526  -8.383   5.582  1.00  0.00     0.156 HD
ATOM     47  H11 UNL     1      34.050  -7.636   4.060  1.00  0.00     0.156 HD
BRANCH  44  48
HETATM   48  C2  UNL     1      36.260 -10.013   4.656  1.00  0.00     0.017 C 
HETATM   49  C1  UNL     1      35.692 -11.070   5.248  1.00  0.00     0.013 C 
ENDBRANCH  44  48
ENDBRANCH  43  44
BRANCH  43  50
HETATM   50  O1  UNL     1      35.328 -10.179   1.838  1.00  0.00    -0.386 OA
ATOM     51  H1  UNL     1      35.605 -10.169   0.930  1.00  0.00     0.210 HD
ENDBRANCH  43  50
ENDBRANCH  42  43
ENDBRANCH  39  41
ENDBRANCH  38  39
ENDBRANCH   1  37
BRANCH   2  52
HETATM   52  N2  UNL     1      38.707  -2.750  -1.977  1.00  0.00    -0.071 N 
ATOM     53  H23 UNL     1      39.149  -3.326  -2.694  1.00  0.00     0.274 HD
ATOM     54  H22 UNL     1      38.411  -1.982  -2.579  1.00  0.00     0.274 HD
ATOM     55  H21 UNL     1      39.362  -2.452  -1.254  1.00  0.00     0.274 HD
ENDBRANCH   2  52
TORSDOF 18
ENDMDL
MODEL 5
REMARK VINA RESULT: -7.837024730      3.552      7.689
REMARK  18 active torsions:
REMARK  status: ('A' for Active; 'I' for Inactive)
REMARK    1  A    between atoms: C2_2  and  C3_3 
REMARK    2  A    between atoms: C3_3  and  C4_7 
REMARK    3  A    between atoms: C4_7  and  O1_8 
REMARK    4  A    between atoms: C4_7  and  C5_10 
REMARK    5  A    between atoms: C6_11  and  C7_12 
REMARK    6  A    between atoms: C7_12  and  C8_14 
REMARK    7  A    between atoms: C9_15  and  C10_16 
REMARK    8  A    between atoms: C11_17  and  N2_18 
REMARK    9  A    between atoms: N3_27  and  C16_28 
REMARK   10  A    between atoms: C16_28  and  C17_29 
REMARK   11  A    between atoms: C17_29  and  C19_31 
REMARK       I    between atoms: C19_31  and  N4_33 
REMARK       I    between atoms: N4_33  and  C20_35 
REMARK   12  A    between atoms: C20_35  and  C21_37 
REMARK   13  A    between atoms: C21_37  and  N5_38 
REMARK   14  A    between atoms: C21_37  and  C22_46 
REMARK   15  A    between atoms: N5_38  and  S1_40 
REMARK   16  A    between atoms: S1_40  and  N6_41 
REMARK   17  A    between atoms: C25_49  and  C26_50 
REMARK   18  A    between atoms: C27_51  and  C28_52 
ROOT
HETATM    1  C10 UNL     1      35.089  -6.189  -1.604  1.00  0.00     0.068 C 
HETATM    2  C11 UNL     1      34.007  -5.199  -1.771  1.00  0.00     0.229 C 
HETATM    3  C12 UNL     1      34.414  -3.810  -2.053  1.00  0.00     0.228 C 
HETATM    4  F2  UNL     1      34.422  -3.042  -0.882  1.00  0.00    -0.245 F 
HETATM    5  C13 UNL     1      35.748  -3.628  -2.749  1.00  0.00     0.058 C 
HETATM    6  C14 UNL     1      35.538  -3.754  -4.237  1.00  0.00     0.041 C 
HETATM    7  C15 UNL     1      36.071  -2.140  -2.528  1.00  0.00     0.041 C 
HETATM    8  N3  UNL     1      36.752  -4.489  -2.309  1.00  0.00    -0.372 N 
HETATM    9  C25 UNL     1      36.468  -5.569  -1.463  1.00  0.00     0.116 C 
ENDROOT
BRANCH   8  10
HETATM   10  C16 UNL     1      38.098  -4.074  -2.241  1.00  0.00     0.073 C 
BRANCH  10  11
HETATM   11  C17 UNL     1      39.150  -5.125  -2.435  1.00  0.00     0.112 C 
HETATM   12  C18 UNL     1      40.491  -4.594  -2.066  1.00  0.00     0.025 C 
BRANCH  11  13
HETATM   13  C19 UNL     1      39.064  -5.639  -3.847  1.00  0.00     0.233 C 
HETATM   14  O2  UNL     1      38.587  -6.823  -3.988  1.00  0.00    -0.272 OA
HETATM   15  N4  UNL     1      39.481  -4.871  -4.930  1.00  0.00    -0.295 N 
HETATM   16  C20 UNL     1      39.463  -5.216  -6.266  1.00  0.00     0.248 C 
ATOM     17  H4  UNL     1      39.844  -3.943  -4.710  1.00  0.00     0.171 HD
HETATM   18  O3  UNL     1      39.943  -4.330  -7.085  1.00  0.00    -0.271 OA
BRANCH  16  19
HETATM   19  C21 UNL     1      38.970  -6.462  -6.856  1.00  0.00     0.190 C 
BRANCH  19  20
HETATM   20  N5  UNL     1      40.186  -7.307  -7.144  1.00  0.00    -0.289 N 
ATOM     21  H5  UNL     1      40.935  -7.034  -7.780  1.00  0.00     0.174 HD
BRANCH  20  22
HETATM   22  S1  UNL     1      40.152  -8.770  -6.276  1.00  0.00     0.313 S 
HETATM   23  O4  UNL     1      41.018  -9.762  -7.025  1.00  0.00    -0.183 OA
HETATM   24  O5  UNL     1      38.751  -9.340  -6.198  1.00  0.00    -0.183 OA
BRANCH  22  25
HETATM   25  N6  UNL     1      40.765  -8.667  -4.675  1.00  0.00    -0.312 N 
ATOM     26  H62 UNL     1      41.643  -8.192  -4.465  1.00  0.00     0.170 HD
ATOM     27  H61 UNL     1      40.184  -9.116  -3.967  1.00  0.00     0.170 HD
ENDBRANCH  22  25
ENDBRANCH  20  22
ENDBRANCH  19  20
BRANCH  19  28
HETATM   28  C22 UNL     1      38.268  -6.288  -8.168  1.00  0.00     0.010 C 
HETATM   29  C23 UNL     1      39.057  -6.966  -9.269  1.00  0.00     0.012 C 
HETATM   30  C24 UNL     1      36.877  -6.787  -8.162  1.00  0.00     0.012 C 
ENDBRANCH  19  28
ENDBRANCH  16  19
ENDBRANCH  11  13
ENDBRANCH  10  11
ENDBRANCH   8  10
BRANCH   9  31
HETATM   31  C26 UNL     1      36.811  -5.308  -0.022  1.00  0.00    -0.004 C 
HETATM   32  C27 UNL     1      37.107  -6.291   0.790  1.00  0.00    -0.020 C 
BRANCH  32  33
HETATM   33  C28 UNL     1      37.439  -5.948   2.216  1.00  0.00    -0.034 C 
HETATM   34  C29 UNL     1      36.875  -4.615   2.614  1.00  0.00     0.018 C 
HETATM   35  C30 UNL     1      38.966  -5.803   2.224  1.00  0.00     0.018 C 
HETATM   36  C31 UNL     1      37.040  -7.031   3.167  1.00  0.00     0.018 C 
ENDBRANCH  32  33
ENDBRANCH   9  31
BRANCH   1  37
HETATM   37  C9  UNL     1      35.131  -7.299  -2.584  1.00  0.00    -0.019 C 
HETATM   38  C8  UNL     1      35.207  -7.240  -3.875  1.00  0.00     0.010 C 
BRANCH  38  39
HETATM   39  C7  UNL     1      35.243  -8.453  -4.767  1.00  0.00     0.215 C 
HETATM   40  F1  UNL     1      34.832  -9.504  -3.926  1.00  0.00    -0.241 F 
BRANCH  39  41
HETATM   41  C6  UNL     1      34.248  -8.397  -5.850  1.00  0.00     0.013 C 
HETATM   42  C5  UNL     1      33.026  -7.972  -5.584  1.00  0.00     0.010 C 
BRANCH  42  43
HETATM   43  C4  UNL     1      31.936  -7.878  -6.616  1.00  0.00     0.190 C 
BRANCH  43  44
HETATM   44  C3  UNL     1      31.220  -6.604  -6.432  1.00  0.00     0.034 C 
HETATM   45  N1  UNL     1      31.778  -5.612  -5.847  1.00  0.00    -0.400 N 
ATOM     46  H12 UNL     1      31.281  -4.730  -5.719  1.00  0.00     0.156 HD
ATOM     47  H11 UNL     1      32.733  -5.702  -5.500  1.00  0.00     0.156 HD
BRANCH  44  48
HETATM   48  C2  UNL     1      29.859  -6.475  -6.925  1.00  0.00     0.017 C 
HETATM   49  C1  UNL     1      29.619  -6.405  -8.240  1.00  0.00     0.013 C 
ENDBRANCH  44  48
ENDBRANCH  43  44
BRANCH  43  50
HETATM   50  O1  UNL     1      31.065  -8.976  -6.520  1.00  0.00    -0.386 OA
ATOM     51  H1  UNL     1      30.898  -9.209  -5.615  1.00  0.00     0.210 HD
ENDBRANCH  43  50
ENDBRANCH  42  43
ENDBRANCH  39  41
ENDBRANCH  38  39
ENDBRANCH   1  37
BRANCH   2  52
HETATM   52  N2  UNL     1      33.226  -5.145  -0.510  1.00  0.00    -0.071 N 
ATOM     53  H23 UNL     1      33.762  -5.464   0.298  1.00  0.00     0.274 HD
ATOM     54  H22 UNL     1      33.055  -4.190  -0.195  1.00  0.00     0.274 HD
ATOM     55  H21 UNL     1      32.364  -5.675  -0.643  1.00  0.00     0.274 HD
ENDBRANCH   2  52
TORSDOF 18
ENDMDL
