MODEL 1
REMARK VINA RESULT: -8.271509344      0.000      0.000
REMARK  15 active torsions:
REMARK  status: ('A' for Active; 'I' for Inactive)
REMARK    1  A    between atoms: C3_4  and  O1_5 
REMARK    2  A    between atoms: O1_5  and  C4_6 
REMARK    3  A    between atoms: C4_6  and  C5_7 
REMARK    4  A    between atoms: C5_7  and  C6_8 
REMARK    5  A    between atoms: C6_8  and  O2_9 
REMARK    6  A    between atoms: O2_9  and  C7_10 
REMARK    7  A    between atoms: C16_21  and  C17_22 
REMARK       I    between atoms: C17_22  and  N2_24 
REMARK    8  A    between atoms: C19_27  and  C20_28 
REMARK    9  A    between atoms: C20_28  and  C21_29 
REMARK   10  A    between atoms: C21_29  and  C22_30 
REMARK   11  A    between atoms: C22_30  and  N3_31 
REMARK       I    between atoms: N3_31  and  C23_33 
REMARK   12  A    between atoms: C25_42  and  C26_43 
REMARK   13  A    between atoms: C26_43  and  C27_44 
REMARK   14  A    between atoms: C27_44  and  C28_45 
REMARK   15  A    between atoms: C28_45  and  N7_46 
ROOT
HETATM    1  N1  UNL     1      33.228  -6.543  -1.290  1.00  0.00    -0.191 NA
HETATM    2  C1  UNL     1      33.466  -7.643  -1.450  1.00  0.00     0.103 C 
HETATM    3  C2  UNL     1      33.783  -9.043  -1.632  1.00  0.00     0.093 A 
HETATM    4  C3  UNL     1      34.418  -9.747  -0.612  1.00  0.00     0.090 A 
HETATM    5  C13 UNL     1      34.738 -11.082  -0.713  1.00  0.00     0.038 A 
HETATM    6  C14 UNL     1      34.417 -11.753  -1.871  1.00  0.00     0.004 A 
HETATM    7  C15 UNL     1      33.795 -11.100  -2.891  1.00  0.00     0.019 A 
HETATM    8  C16 UNL     1      33.475  -9.745  -2.781  1.00  0.00     0.056 A 
ENDROOT
BRANCH   4   9
HETATM    9  O1  UNL     1      34.730  -9.041   0.540  1.00  0.00    -0.349 OA
BRANCH   9  10
HETATM   10  C4  UNL     1      35.766  -9.480   1.362  1.00  0.00     0.178 C 
BRANCH  10  11
HETATM   11  C5  UNL     1      35.513  -9.054   2.803  1.00  0.00     0.053 C 
BRANCH  11  12
HETATM   12  C6  UNL     1      36.819  -8.596   3.383  1.00  0.00     0.178 C 
BRANCH  12  13
HETATM   13  O2  UNL     1      37.060  -7.254   3.276  1.00  0.00    -0.349 OA
BRANCH  13  14
HETATM   14  C7  UNL     1      37.529  -6.442   2.319  1.00  0.00     0.090 A 
HETATM   15  C8  UNL     1      38.371  -6.765   1.281  1.00  0.00     0.040 A 
HETATM   16  C9  UNL     1      38.802  -5.848   0.338  1.00  0.00     0.026 A 
HETATM   17  C10 UNL     1      38.381  -4.542   0.424  1.00  0.00     0.035 A 
HETATM   18 CL1  UNL     1      38.927  -3.388  -0.770  1.00  0.00    -0.084 Cl
HETATM   19  C11 UNL     1      37.536  -4.170   1.448  1.00  0.00     0.050 A 
HETATM   20  C12 UNL     1      37.126  -5.100   2.363  1.00  0.00     0.069 A 
HETATM   21 CL2  UNL     1      36.058  -4.564   3.633  1.00  0.00    -0.081 Cl
ENDBRANCH  13  14
ENDBRANCH  12  13
ENDBRANCH  11  12
ENDBRANCH  10  11
ENDBRANCH   9  10
ENDBRANCH   4   9
BRANCH   8  22
HETATM   22  C17 UNL     1      32.820  -9.086  -3.894  1.00  0.00     0.263 C 
HETATM   23  O3  UNL     1      31.576  -9.192  -3.950  1.00  0.00    -0.267 OA
HETATM   24  N2  UNL     1      33.470  -8.338  -4.924  1.00  0.00    -0.268 N 
HETATM   25  C18 UNL     1      34.890  -8.343  -4.831  1.00  0.00     0.250 C 
HETATM   26  C25 UNL     1      32.834  -7.683  -5.992  1.00  0.00     0.188 C 
HETATM   27  O4  UNL     1      35.561  -8.515  -3.806  1.00  0.00    -0.271 OA
HETATM   28  C19 UNL     1      35.678  -8.108  -6.146  1.00  0.00     0.177 C 
HETATM   29  N6  UNL     1      35.134  -6.766  -6.443  1.00  0.00    -0.346 N 
HETATM   30  C24 UNL     1      33.740  -6.694  -6.632  1.00  0.00     0.241 C 
ATOM     31  H6  UNL     1      35.732  -5.941  -6.507  1.00  0.00     0.163 HD
HETATM   32  O5  UNL     1      33.262  -5.765  -7.363  1.00  0.00    -0.271 OA
BRANCH  28  33
HETATM   33  C20 UNL     1      37.107  -8.169  -5.871  1.00  0.00     0.036 C 
BRANCH  33  34
HETATM   34  C21 UNL     1      37.814  -6.864  -5.919  1.00  0.00     0.022 C 
BRANCH  34  35
HETATM   35  C22 UNL     1      38.171  -6.292  -4.609  1.00  0.00     0.122 C 
BRANCH  35  36
HETATM   36  N3  UNL     1      37.261  -5.166  -4.332  1.00  0.00    -0.365 N 
HETATM   37  C23 UNL     1      36.588  -5.097  -3.109  1.00  0.00     0.181 C 
HETATM   38  N4  UNL     1      36.382  -6.126  -2.352  1.00  0.00    -0.374 N 
HETATM   39  N5  UNL     1      36.099  -3.840  -2.664  1.00  0.00    -0.064 NA
ATOM     40  H42 UNL     1      36.733  -7.028  -2.671  1.00  0.00     0.158 HD
ATOM     41  H41 UNL     1      35.891  -6.074  -1.459  1.00  0.00     0.158 HD
ATOM     42  H3  UNL     1      37.122  -4.439  -5.034  1.00  0.00     0.162 HD
ENDBRANCH  35  36
ENDBRANCH  34  35
ENDBRANCH  33  34
ENDBRANCH  28  33
BRANCH  26  43
HETATM   43  C26 UNL     1      31.463  -7.129  -5.829  1.00  0.00     0.037 C 
BRANCH  43  44
HETATM   44  C27 UNL     1      30.398  -7.590  -6.736  1.00  0.00     0.022 C 
BRANCH  44  45
HETATM   45  C28 UNL     1      29.648  -6.327  -7.206  1.00  0.00     0.122 C 
BRANCH  45  46
HETATM   46  N7  UNL     1      30.510  -5.502  -8.021  1.00  0.00    -0.367 N 
HETATM   47  C29 UNL     1      30.156  -5.308  -9.247  1.00  0.00     0.196 C 
HETATM   48  N8  UNL     1      31.037  -4.481 -10.032  1.00  0.00    -0.067 NA
HETATM   49  N9  UNL     1      28.999  -5.838  -9.847  1.00  0.00    -0.067 NA
ATOM     50  H7  UNL     1      31.363  -5.090  -7.644  1.00  0.00     0.161 HD
ENDBRANCH  45  46
ENDBRANCH  44  45
ENDBRANCH  43  44
ENDBRANCH  26  43
ENDBRANCH   8  22
TORSDOF 15
ENDMDL
MODEL 2
REMARK VINA RESULT: -8.182063240      5.722      9.725
REMARK  15 active torsions:
REMARK  status: ('A' for Active; 'I' for Inactive)
REMARK    1  A    between atoms: C3_4  and  O1_5 
REMARK    2  A    between atoms: O1_5  and  C4_6 
REMARK    3  A    between atoms: C4_6  and  C5_7 
REMARK    4  A    between atoms: C5_7  and  C6_8 
REMARK    5  A    between atoms: C6_8  and  O2_9 
REMARK    6  A    between atoms: O2_9  and  C7_10 
REMARK    7  A    between atoms: C16_21  and  C17_22 
REMARK       I    between atoms: C17_22  and  N2_24 
REMARK    8  A    between atoms: C19_27  and  C20_28 
REMARK    9  A    between atoms: C20_28  and  C21_29 
REMARK   10  A    between atoms: C21_29  and  C22_30 
REMARK   11  A    between atoms: C22_30  and  N3_31 
REMARK       I    between atoms: N3_31  and  C23_33 
REMARK   12  A    between atoms: C25_42  and  C26_43 
REMARK   13  A    between atoms: C26_43  and  C27_44 
REMARK   14  A    between atoms: C27_44  and  C28_45 
REMARK   15  A    between atoms: C28_45  and  N7_46 
ROOT
HETATM    1  N1  UNL     1      35.877 -10.787   0.280  1.00  0.00    -0.191 NA
HETATM    2  C1  UNL     1      35.856 -10.503   1.381  1.00  0.00     0.103 C 
HETATM    3  C2  UNL     1      35.843 -10.121   2.777  1.00  0.00     0.093 A 
HETATM    4  C3  UNL     1      36.349  -8.881   3.161  1.00  0.00     0.090 A 
HETATM    5  C13 UNL     1      36.356  -8.449   4.467  1.00  0.00     0.038 A 
HETATM    6  C14 UNL     1      35.843  -9.276   5.439  1.00  0.00     0.004 A 
HETATM    7  C15 UNL     1      35.339 -10.497   5.105  1.00  0.00     0.019 A 
HETATM    8  C16 UNL     1      35.335 -10.928   3.777  1.00  0.00     0.056 A 
ENDROOT
BRANCH   4   9
HETATM    9  O1  UNL     1      36.861  -8.073   2.156  1.00  0.00    -0.349 OA
BRANCH   9  10
HETATM   10  C4  UNL     1      37.048  -6.713   2.391  1.00  0.00     0.178 C 
BRANCH  10  11
HETATM   11  C5  UNL     1      38.527  -6.357   2.279  1.00  0.00     0.053 C 
BRANCH  11  12
HETATM   12  C6  UNL     1      38.863  -6.246   0.821  1.00  0.00     0.178 C 
BRANCH  12  13
HETATM   13  O2  UNL     1      38.788  -4.981   0.306  1.00  0.00    -0.349 OA
BRANCH  13  14
HETATM   14  C7  UNL     1      37.922  -4.317  -0.471  1.00  0.00     0.090 A 
HETATM   15  C8  UNL     1      36.684  -3.829  -0.123  1.00  0.00     0.040 A 
HETATM   16  C9  UNL     1      35.858  -3.152  -1.003  1.00  0.00     0.026 A 
HETATM   17  C10 UNL     1      36.274  -2.946  -2.298  1.00  0.00     0.035 A 
HETATM   18 CL1  UNL     1      35.229  -2.090  -3.406  1.00  0.00    -0.084 Cl
HETATM   19  C11 UNL     1      37.509  -3.417  -2.694  1.00  0.00     0.050 A 
HETATM   20  C12 UNL     1      38.302  -4.080  -1.800  1.00  0.00     0.069 A 
HETATM   21 CL2  UNL     1      39.850  -4.650  -2.365  1.00  0.00    -0.081 Cl
ENDBRANCH  13  14
ENDBRANCH  12  13
ENDBRANCH  11  12
ENDBRANCH  10  11
ENDBRANCH   9  10
ENDBRANCH   4   9
BRANCH   8  22
HETATM   22  C17 UNL     1      34.797 -12.237   3.465  1.00  0.00     0.263 C 
HETATM   23  O3  UNL     1      33.673 -12.261   2.920  1.00  0.00    -0.267 OA
HETATM   24  N2  UNL     1      35.433 -13.488   3.731  1.00  0.00    -0.268 N 
HETATM   25  C18 UNL     1      36.665 -13.371   4.432  1.00  0.00     0.250 C 
HETATM   26  C25 UNL     1      34.919 -14.758   3.412  1.00  0.00     0.188 C 
HETATM   27  O4  UNL     1      37.419 -12.389   4.440  1.00  0.00    -0.271 OA
HETATM   28  C19 UNL     1      37.114 -14.597   5.270  1.00  0.00     0.177 C 
HETATM   29  N6  UNL     1      37.187 -15.561   4.151  1.00  0.00    -0.346 N 
HETATM   30  C24 UNL     1      35.983 -15.795   3.459  1.00  0.00     0.241 C 
ATOM     31  H6  UNL     1      38.058 -16.028   3.896  1.00  0.00     0.163 HD
HETATM   32  O5  UNL     1      35.814 -16.914   2.871  1.00  0.00    -0.271 OA
BRANCH  28  33
HETATM   33  C20 UNL     1      38.375 -14.294   5.934  1.00  0.00     0.036 C 
BRANCH  33  34
HETATM   34  C21 UNL     1      38.250 -13.560   7.218  1.00  0.00     0.022 C 
BRANCH  34  35
HETATM   35  C22 UNL     1      39.194 -12.443   7.401  1.00  0.00     0.122 C 
BRANCH  35  36
HETATM   36  N3  UNL     1      38.979 -11.872   8.743  1.00  0.00    -0.365 N 
HETATM   37  C23 UNL     1      40.062 -11.694   9.608  1.00  0.00     0.181 C 
HETATM   38  N4  UNL     1      41.175 -12.346   9.496  1.00  0.00    -0.374 N 
HETATM   39  N5  UNL     1      39.949 -10.757  10.668  1.00  0.00    -0.064 NA
ATOM     40  H42 UNL     1      41.257 -13.019   8.735  1.00  0.00     0.158 HD
ATOM     41  H41 UNL     1      41.966 -12.216  10.128  1.00  0.00     0.158 HD
ATOM     42  H3  UNL     1      38.040 -11.607   9.039  1.00  0.00     0.162 HD
ENDBRANCH  35  36
ENDBRANCH  34  35
ENDBRANCH  33  34
ENDBRANCH  28  33
BRANCH  26  43
HETATM   43  C26 UNL     1      34.044 -14.940   2.224  1.00  0.00     0.037 C 
BRANCH  43  44
HETATM   44  C27 UNL     1      34.585 -14.634   0.888  1.00  0.00     0.022 C 
BRANCH  44  45
HETATM   45  C28 UNL     1      33.380 -14.248   0.007  1.00  0.00     0.122 C 
BRANCH  45  46
HETATM   46  N7  UNL     1      33.097 -12.836   0.129  1.00  0.00    -0.367 N 
HETATM   47  C29 UNL     1      32.943 -12.168  -0.964  1.00  0.00     0.196 C 
HETATM   48  N8  UNL     1      32.661 -10.763  -0.808  1.00  0.00    -0.067 NA
HETATM   49  N9  UNL     1      33.030 -12.709  -2.261  1.00  0.00    -0.067 NA
ATOM     50  H7  UNL     1      33.022 -12.386   1.040  1.00  0.00     0.161 HD
ENDBRANCH  45  46
ENDBRANCH  44  45
ENDBRANCH  43  44
ENDBRANCH  26  43
ENDBRANCH   8  22
TORSDOF 15
ENDMDL
MODEL 3
REMARK VINA RESULT: -8.004383778      5.722      9.698
REMARK  15 active torsions:
REMARK  status: ('A' for Active; 'I' for Inactive)
REMARK    1  A    between atoms: C3_4  and  O1_5 
REMARK    2  A    between atoms: O1_5  and  C4_6 
REMARK    3  A    between atoms: C4_6  and  C5_7 
REMARK    4  A    between atoms: C5_7  and  C6_8 
REMARK    5  A    between atoms: C6_8  and  O2_9 
REMARK    6  A    between atoms: O2_9  and  C7_10 
REMARK    7  A    between atoms: C16_21  and  C17_22 
REMARK       I    between atoms: C17_22  and  N2_24 
REMARK    8  A    between atoms: C19_27  and  C20_28 
REMARK    9  A    between atoms: C20_28  and  C21_29 
REMARK   10  A    between atoms: C21_29  and  C22_30 
REMARK   11  A    between atoms: C22_30  and  N3_31 
REMARK       I    between atoms: N3_31  and  C23_33 
REMARK   12  A    between atoms: C25_42  and  C26_43 
REMARK   13  A    between atoms: C26_43  and  C27_44 
REMARK   14  A    between atoms: C27_44  and  C28_45 
REMARK   15  A    between atoms: C28_45  and  N7_46 
ROOT
HETATM    1  N1  UNL     1      35.909 -10.810   0.301  1.00  0.00    -0.191 NA
HETATM    2  C1  UNL     1      35.873 -10.523   1.401  1.00  0.00     0.103 C 
HETATM    3  C2  UNL     1      35.841 -10.138   2.795  1.00  0.00     0.093 A 
HETATM    4  C3  UNL     1      36.328  -8.890   3.180  1.00  0.00     0.090 A 
HETATM    5  C13 UNL     1      36.317  -8.454   4.485  1.00  0.00     0.038 A 
HETATM    6  C14 UNL     1      35.802  -9.284   5.454  1.00  0.00     0.004 A 
HETATM    7  C15 UNL     1      35.316 -10.511   5.119  1.00  0.00     0.019 A 
HETATM    8  C16 UNL     1      35.331 -10.946   3.793  1.00  0.00     0.056 A 
ENDROOT
BRANCH   4   9
HETATM    9  O1  UNL     1      36.842  -8.080   2.179  1.00  0.00    -0.349 OA
BRANCH   9  10
HETATM   10  C4  UNL     1      36.989  -6.713   2.403  1.00  0.00     0.178 C 
BRANCH  10  11
HETATM   11  C5  UNL     1      38.460  -6.321   2.327  1.00  0.00     0.053 C 
BRANCH  11  12
HETATM   12  C6  UNL     1      38.947  -6.628   0.942  1.00  0.00     0.178 C 
BRANCH  12  13
HETATM   13  O2  UNL     1      39.066  -5.543   0.117  1.00  0.00    -0.349 OA
BRANCH  13  14
HETATM   14  C7  UNL     1      38.824  -5.297  -1.177  1.00  0.00     0.090 A 
HETATM   15  C8  UNL     1      39.548  -5.728  -2.264  1.00  0.00     0.040 A 
HETATM   16  C9  UNL     1      39.216  -5.417  -3.571  1.00  0.00     0.026 A 
HETATM   17  C10 UNL     1      38.111  -4.638  -3.820  1.00  0.00     0.035 A 
HETATM   18 CL1  UNL     1      37.694  -4.249  -5.472  1.00  0.00    -0.084 Cl
HETATM   19  C11 UNL     1      37.353  -4.182  -2.762  1.00  0.00     0.050 A 
HETATM   20  C12 UNL     1      37.707  -4.507  -1.482  1.00  0.00     0.069 A 
HETATM   21 CL2  UNL     1      36.706  -3.897  -0.190  1.00  0.00    -0.081 Cl
ENDBRANCH  13  14
ENDBRANCH  12  13
ENDBRANCH  11  12
ENDBRANCH  10  11
ENDBRANCH   9  10
ENDBRANCH   4   9
BRANCH   8  22
HETATM   22  C17 UNL     1      34.811 -12.263   3.479  1.00  0.00     0.263 C 
HETATM   23  O3  UNL     1      33.686 -12.302   2.937  1.00  0.00    -0.267 OA
HETATM   24  N2  UNL     1      35.466 -13.505   3.740  1.00  0.00    -0.268 N 
HETATM   25  C18 UNL     1      36.699 -13.372   4.437  1.00  0.00     0.250 C 
HETATM   26  C25 UNL     1      34.970 -14.781   3.419  1.00  0.00     0.188 C 
HETATM   27  O4  UNL     1      37.438 -12.379   4.446  1.00  0.00    -0.271 OA
HETATM   28  C19 UNL     1      37.168 -14.593   5.271  1.00  0.00     0.177 C 
HETATM   29  N6  UNL     1      37.252 -15.553   4.150  1.00  0.00    -0.346 N 
HETATM   30  C24 UNL     1      36.049 -15.803   3.461  1.00  0.00     0.241 C 
ATOM     31  H6  UNL     1      38.128 -16.007   3.891  1.00  0.00     0.163 HD
HETATM   32  O5  UNL     1      35.895 -16.923   2.870  1.00  0.00    -0.271 OA
BRANCH  28  33
HETATM   33  C20 UNL     1      38.427 -14.274   5.931  1.00  0.00     0.036 C 
BRANCH  33  34
HETATM   34  C21 UNL     1      38.294 -13.551   7.222  1.00  0.00     0.022 C 
BRANCH  34  35
HETATM   35  C22 UNL     1      39.186 -12.390   7.390  1.00  0.00     0.122 C 
BRANCH  35  36
HETATM   36  N3  UNL     1      38.973 -11.835   8.738  1.00  0.00    -0.365 N 
HETATM   37  C23 UNL     1      40.058 -11.667   9.604  1.00  0.00     0.181 C 
HETATM   38  N4  UNL     1      41.171 -12.316   9.482  1.00  0.00    -0.374 N 
HETATM   39  N5  UNL     1      39.946 -10.742  10.675  1.00  0.00    -0.064 NA
ATOM     40  H42 UNL     1      41.252 -12.980   8.713  1.00  0.00     0.158 HD
ATOM     41  H41 UNL     1      41.963 -12.193  10.114  1.00  0.00     0.158 HD
ATOM     42  H3  UNL     1      38.035 -11.574   9.040  1.00  0.00     0.162 HD
ENDBRANCH  35  36
ENDBRANCH  34  35
ENDBRANCH  33  34
ENDBRANCH  28  33
BRANCH  26  43
HETATM   43  C26 UNL     1      34.094 -14.973   2.233  1.00  0.00     0.037 C 
BRANCH  43  44
HETATM   44  C27 UNL     1      34.639 -14.694   0.894  1.00  0.00     0.022 C 
BRANCH  44  45
HETATM   45  C28 UNL     1      33.442 -14.288   0.011  1.00  0.00     0.122 C 
BRANCH  45  46
HETATM   46  N7  UNL     1      33.178 -12.873   0.139  1.00  0.00    -0.367 N 
HETATM   47  C29 UNL     1      32.971 -12.210  -0.948  1.00  0.00     0.196 C 
HETATM   48  N8  UNL     1      32.710 -10.801  -0.786  1.00  0.00    -0.067 NA
HETATM   49  N9  UNL     1      32.985 -12.758  -2.244  1.00  0.00    -0.067 NA
ATOM     50  H7  UNL     1      33.156 -12.417   1.051  1.00  0.00     0.161 HD
ENDBRANCH  45  46
ENDBRANCH  44  45
ENDBRANCH  43  44
ENDBRANCH  26  43
ENDBRANCH   8  22
TORSDOF 15
ENDMDL
MODEL 4
REMARK VINA RESULT: -7.902570816      1.499      1.993
REMARK  15 active torsions:
REMARK  status: ('A' for Active; 'I' for Inactive)
REMARK    1  A    between atoms: C3_4  and  O1_5 
REMARK    2  A    between atoms: O1_5  and  C4_6 
REMARK    3  A    between atoms: C4_6  and  C5_7 
REMARK    4  A    between atoms: C5_7  and  C6_8 
REMARK    5  A    between atoms: C6_8  and  O2_9 
REMARK    6  A    between atoms: O2_9  and  C7_10 
REMARK    7  A    between atoms: C16_21  and  C17_22 
REMARK       I    between atoms: C17_22  and  N2_24 
REMARK    8  A    between atoms: C19_27  and  C20_28 
REMARK    9  A    between atoms: C20_28  and  C21_29 
REMARK   10  A    between atoms: C21_29  and  C22_30 
REMARK   11  A    between atoms: C22_30  and  N3_31 
REMARK       I    between atoms: N3_31  and  C23_33 
REMARK   12  A    between atoms: C25_42  and  C26_43 
REMARK   13  A    between atoms: C26_43  and  C27_44 
REMARK   14  A    between atoms: C27_44  and  C28_45 
REMARK   15  A    between atoms: C28_45  and  N7_46 
ROOT
HETATM    1  N1  UNL     1      33.281  -6.602  -1.258  1.00  0.00    -0.191 NA
HETATM    2  C1  UNL     1      33.500  -7.691  -1.501  1.00  0.00     0.103 C 
HETATM    3  C2  UNL     1      33.792  -9.078  -1.789  1.00  0.00     0.093 A 
HETATM    4  C3  UNL     1      34.392  -9.876  -0.816  1.00  0.00     0.090 A 
HETATM    5  C13 UNL     1      34.686 -11.205  -1.017  1.00  0.00     0.038 A 
HETATM    6  C14 UNL     1      34.374 -11.774  -2.231  1.00  0.00     0.004 A 
HETATM    7  C15 UNL     1      33.787 -11.028  -3.208  1.00  0.00     0.019 A 
HETATM    8  C16 UNL     1      33.493  -9.680  -2.996  1.00  0.00     0.056 A 
ENDROOT
BRANCH   4   9
HETATM    9  O1  UNL     1      34.694  -9.270   0.394  1.00  0.00    -0.349 OA
BRANCH   9  10
HETATM   10  C4  UNL     1      35.353  -9.995   1.385  1.00  0.00     0.178 C 
BRANCH  10  11
HETATM   11  C5  UNL     1      36.689  -9.342   1.719  1.00  0.00     0.053 C 
BRANCH  11  12
HETATM   12  C6  UNL     1      36.467  -8.405   2.869  1.00  0.00     0.178 C 
BRANCH  12  13
HETATM   13  O2  UNL     1      37.299  -7.320   2.899  1.00  0.00    -0.349 OA
BRANCH  13  14
HETATM   14  C7  UNL     1      37.696  -6.396   2.014  1.00  0.00     0.090 A 
HETATM   15  C8  UNL     1      38.520  -6.573   0.928  1.00  0.00     0.040 A 
HETATM   16  C9  UNL     1      38.875  -5.549   0.067  1.00  0.00     0.026 A 
HETATM   17  C10 UNL     1      38.391  -4.281   0.290  1.00  0.00     0.035 A 
HETATM   18 CL1  UNL     1      38.840  -2.991  -0.799  1.00  0.00    -0.084 Cl
HETATM   19  C11 UNL     1      37.560  -4.054   1.367  1.00  0.00     0.050 A 
HETATM   20  C12 UNL     1      37.227  -5.088   2.199  1.00  0.00     0.069 A 
HETATM   21 CL2  UNL     1      36.173  -4.734   3.542  1.00  0.00    -0.081 Cl
ENDBRANCH  13  14
ENDBRANCH  12  13
ENDBRANCH  11  12
ENDBRANCH  10  11
ENDBRANCH   9  10
ENDBRANCH   4   9
BRANCH   8  22
HETATM   22  C17 UNL     1      32.874  -8.920  -4.064  1.00  0.00     0.263 C 
HETATM   23  O3  UNL     1      31.626  -8.944  -4.114  1.00  0.00    -0.267 OA
HETATM   24  N2  UNL     1      33.564  -8.159  -5.057  1.00  0.00    -0.268 N 
HETATM   25  C18 UNL     1      34.981  -8.258  -4.979  1.00  0.00     0.250 C 
HETATM   26  C25 UNL     1      32.964  -7.406  -6.082  1.00  0.00     0.188 C 
HETATM   27  O4  UNL     1      35.647  -8.529  -3.971  1.00  0.00    -0.271 OA
HETATM   28  C19 UNL     1      35.775  -8.000  -6.285  1.00  0.00     0.177 C 
HETATM   29  N6  UNL     1      35.315  -6.612  -6.503  1.00  0.00    -0.346 N 
HETATM   30  C24 UNL     1      33.927  -6.442  -6.675  1.00  0.00     0.241 C 
ATOM     31  H6  UNL     1      35.964  -5.825  -6.527  1.00  0.00     0.163 HD
HETATM   32  O5  UNL     1      33.505  -5.445  -7.349  1.00  0.00    -0.271 OA
BRANCH  28  33
HETATM   33  C20 UNL     1      37.199  -8.166  -6.028  1.00  0.00     0.036 C 
BRANCH  33  34
HETATM   34  C21 UNL     1      38.007  -6.924  -6.132  1.00  0.00     0.022 C 
BRANCH  34  35
HETATM   35  C22 UNL     1      38.866  -6.631  -4.972  1.00  0.00     0.122 C 
BRANCH  35  36
HETATM   36  N3  UNL     1      38.006  -6.500  -3.782  1.00  0.00    -0.365 N 
HETATM   37  C23 UNL     1      37.446  -5.261  -3.459  1.00  0.00     0.181 C 
HETATM   38  N4  UNL     1      37.925  -4.133  -3.877  1.00  0.00    -0.374 N 
HETATM   39  N5  UNL     1      36.294  -5.223  -2.629  1.00  0.00    -0.064 NA
ATOM     40  H42 UNL     1      38.752  -4.161  -4.473  1.00  0.00     0.158 HD
ATOM     41  H41 UNL     1      37.515  -3.229  -3.641  1.00  0.00     0.158 HD
ATOM     42  H3  UNL     1      37.821  -7.313  -3.195  1.00  0.00     0.162 HD
ENDBRANCH  35  36
ENDBRANCH  34  35
ENDBRANCH  33  34
ENDBRANCH  28  33
BRANCH  26  43
HETATM   43  C26 UNL     1      31.633  -6.777  -5.876  1.00  0.00     0.037 C 
BRANCH  43  44
HETATM   44  C27 UNL     1      30.506  -7.205  -6.722  1.00  0.00     0.022 C 
BRANCH  44  45
HETATM   45  C28 UNL     1      31.056  -8.296  -7.663  1.00  0.00     0.122 C 
BRANCH  45  46
HETATM   46  N7  UNL     1      30.853  -9.607  -7.090  1.00  0.00    -0.367 N 
HETATM   47  C29 UNL     1      31.651 -10.548  -7.470  1.00  0.00     0.196 C 
HETATM   48  N8  UNL     1      31.422 -11.842  -6.879  1.00  0.00    -0.067 NA
HETATM   49  N9  UNL     1      32.698 -10.394  -8.397  1.00  0.00    -0.067 NA
ATOM     50  H7  UNL     1      30.111  -9.782  -6.413  1.00  0.00     0.161 HD
ENDBRANCH  45  46
ENDBRANCH  44  45
ENDBRANCH  43  44
ENDBRANCH  26  43
ENDBRANCH   8  22
TORSDOF 15
ENDMDL
MODEL 5
REMARK VINA RESULT: -7.798245650      1.563      1.988
REMARK  15 active torsions:
REMARK  status: ('A' for Active; 'I' for Inactive)
REMARK    1  A    between atoms: C3_4  and  O1_5 
REMARK    2  A    between atoms: O1_5  and  C4_6 
REMARK    3  A    between atoms: C4_6  and  C5_7 
REMARK    4  A    between atoms: C5_7  and  C6_8 
REMARK    5  A    between atoms: C6_8  and  O2_9 
REMARK    6  A    between atoms: O2_9  and  C7_10 
REMARK    7  A    between atoms: C16_21  and  C17_22 
REMARK       I    between atoms: C17_22  and  N2_24 
REMARK    8  A    between atoms: C19_27  and  C20_28 
REMARK    9  A    between atoms: C20_28  and  C21_29 
REMARK   10  A    between atoms: C21_29  and  C22_30 
REMARK   11  A    between atoms: C22_30  and  N3_31 
REMARK       I    between atoms: N3_31  and  C23_33 
REMARK   12  A    between atoms: C25_42  and  C26_43 
REMARK   13  A    between atoms: C26_43  and  C27_44 
REMARK   14  A    between atoms: C27_44  and  C28_45 
REMARK   15  A    between atoms: C28_45  and  N7_46 
ROOT
HETATM    1  N1  UNL     1      33.248  -6.601  -1.345  1.00  0.00    -0.191 NA
HETATM    2  C1  UNL     1      33.485  -7.699  -1.519  1.00  0.00     0.103 C 
HETATM    3  C2  UNL     1      33.802  -9.097  -1.718  1.00  0.00     0.093 A 
HETATM    4  C3  UNL     1      34.456  -9.809  -0.715  1.00  0.00     0.090 A 
HETATM    5  C13 UNL     1      34.776 -11.142  -0.833  1.00  0.00     0.038 A 
HETATM    6  C14 UNL     1      34.436 -11.804  -1.990  1.00  0.00     0.004 A 
HETATM    7  C15 UNL     1      33.795 -11.143  -2.994  1.00  0.00     0.019 A 
HETATM    8  C16 UNL     1      33.474  -9.790  -2.868  1.00  0.00     0.056 A 
ENDROOT
BRANCH   4   9
HETATM    9  O1  UNL     1      34.786  -9.112   0.437  1.00  0.00    -0.349 OA
BRANCH   9  10
HETATM   10  C4  UNL     1      35.313  -9.794   1.531  1.00  0.00     0.178 C 
BRANCH  10  11
HETATM   11  C5  UNL     1      36.696  -9.252   1.876  1.00  0.00     0.053 C 
BRANCH  11  12
HETATM   12  C6  UNL     1      36.539  -8.275   3.002  1.00  0.00     0.178 C 
BRANCH  12  13
HETATM   13  O2  UNL     1      37.388  -7.204   2.961  1.00  0.00    -0.349 OA
BRANCH  13  14
HETATM   14  C7  UNL     1      37.756  -6.312   2.031  1.00  0.00     0.090 A 
HETATM   15  C8  UNL     1      38.576  -6.520   0.946  1.00  0.00     0.040 A 
HETATM   16  C9  UNL     1      38.900  -5.527   0.037  1.00  0.00     0.026 A 
HETATM   17  C10 UNL     1      38.388  -4.262   0.207  1.00  0.00     0.035 A 
HETATM   18 CL1  UNL     1      38.798  -3.013  -0.944  1.00  0.00    -0.084 Cl
HETATM   19  C11 UNL     1      37.560  -4.006   1.280  1.00  0.00     0.050 A 
HETATM   20  C12 UNL     1      37.259  -5.008   2.160  1.00  0.00     0.069 A 
HETATM   21 CL2  UNL     1      36.207  -4.617   3.496  1.00  0.00    -0.081 Cl
ENDBRANCH  13  14
ENDBRANCH  12  13
ENDBRANCH  11  12
ENDBRANCH  10  11
ENDBRANCH   9  10
ENDBRANCH   4   9
BRANCH   8  22
HETATM   22  C17 UNL     1      32.799  -9.123  -3.963  1.00  0.00     0.263 C 
HETATM   23  O3  UNL     1      31.551  -9.178  -3.964  1.00  0.00    -0.267 OA
HETATM   24  N2  UNL     1      33.434  -8.421  -5.034  1.00  0.00    -0.268 N 
HETATM   25  C18 UNL     1      34.854  -8.483  -5.002  1.00  0.00     0.250 C 
HETATM   26  C25 UNL     1      32.778  -7.757  -6.086  1.00  0.00     0.188 C 
HETATM   27  O4  UNL     1      35.563  -8.666  -4.004  1.00  0.00    -0.271 OA
HETATM   28  C19 UNL     1      35.593  -8.304  -6.354  1.00  0.00     0.177 C 
HETATM   29  N6  UNL     1      35.092  -6.945  -6.652  1.00  0.00    -0.346 N 
HETATM   30  C24 UNL     1      33.695  -6.818  -6.783  1.00  0.00     0.241 C 
ATOM     31  H6  UNL     1      35.720  -6.148  -6.757  1.00  0.00     0.163 HD
HETATM   32  O5  UNL     1      33.224  -5.882  -7.510  1.00  0.00    -0.271 OA
BRANCH  28  33
HETATM   33  C20 UNL     1      37.029  -8.420  -6.140  1.00  0.00     0.036 C 
BRANCH  33  34
HETATM   34  C21 UNL     1      37.786  -7.147  -6.245  1.00  0.00     0.022 C 
BRANCH  34  35
HETATM   35  C22 UNL     1      39.058  -7.105  -5.501  1.00  0.00     0.122 C 
BRANCH  35  36
HETATM   36  N3  UNL     1      40.080  -7.810  -6.294  1.00  0.00    -0.365 N 
HETATM   37  C23 UNL     1      40.846  -8.820  -5.706  1.00  0.00     0.181 C 
HETATM   38  N4  UNL     1      41.019  -8.928  -4.427  1.00  0.00    -0.374 N 
HETATM   39  N5  UNL     1      41.474  -9.782  -6.541  1.00  0.00    -0.064 NA
ATOM     40  H42 UNL     1      40.568  -8.238  -3.828  1.00  0.00     0.158 HD
ATOM     41  H41 UNL     1      41.578  -9.666  -3.998  1.00  0.00     0.158 HD
ATOM     42  H3  UNL     1      40.229  -7.560  -7.272  1.00  0.00     0.162 HD
ENDBRANCH  35  36
ENDBRANCH  34  35
ENDBRANCH  33  34
ENDBRANCH  28  33
BRANCH  26  43
HETATM   43  C26 UNL     1      31.440  -7.144  -5.874  1.00  0.00     0.037 C 
BRANCH  43  44
HETATM   44  C27 UNL     1      30.341  -7.504  -6.786  1.00  0.00     0.022 C 
BRANCH  44  45
HETATM   45  C28 UNL     1      29.627  -6.186  -7.151  1.00  0.00     0.122 C 
BRANCH  45  46
HETATM   46  N7  UNL     1      30.441  -5.405  -8.054  1.00  0.00    -0.367 N 
HETATM   47  C29 UNL     1      30.076  -5.361  -9.291  1.00  0.00     0.196 C 
HETATM   48  N8  UNL     1      30.909  -4.573 -10.164  1.00  0.00    -0.067 NA
HETATM   49  N9  UNL     1      28.951  -6.016  -9.825  1.00  0.00    -0.067 NA
ATOM     50  H7  UNL     1      31.270  -4.908  -7.727  1.00  0.00     0.161 HD
ENDBRANCH  45  46
ENDBRANCH  44  45
ENDBRANCH  43  44
ENDBRANCH  26  43
ENDBRANCH   8  22
TORSDOF 15
ENDMDL
