MODEL 1
REMARK VINA RESULT: -10.766422018      0.000      0.000
REMARK  6 active torsions:
REMARK  status: ('A' for Active; 'I' for Inactive)
REMARK    1  A    between atoms: C4_4  and  C5_5 
REMARK    2  A    between atoms: C5_5  and  C6_6 
REMARK    3  A    between atoms: C6_6  and  O1_7 
REMARK    4  A    between atoms: O1_7  and  C7_8 
REMARK    5  A    between atoms: C11_12  and  C12_13 
REMARK    6  A    between atoms: C12_13  and  C13_14 
ROOT
HETATM    1  C7  UNL     1      31.720  18.516  50.970  1.00  0.00     0.069 A 
HETATM    2  C8  UNL     1      30.359  18.396  51.128  1.00  0.00     0.037 A 
HETATM    3  C9  UNL     1      29.591  18.218  49.984  1.00  0.00     0.003 A 
HETATM    4  C10 UNL     1      30.135  18.159  48.720  1.00  0.00     0.007 A 
HETATM    5  C11 UNL     1      31.507  18.280  48.546  1.00  0.00    -0.050 A 
HETATM    6  C21 UNL     1      32.256  18.454  49.675  1.00  0.00     0.044 A 
ENDROOT
BRANCH   5   7
HETATM    7  C12 UNL     1      32.118  18.221  47.193  1.00  0.00     0.095 C 
BRANCH   7   8
HETATM    8  C13 UNL     1      31.717  19.439  46.465  1.00  0.00     0.014 A 
HETATM    9  C14 UNL     1      32.020  20.751  46.823  1.00  0.00     0.039 A 
HETATM   10  C15 UNL     1      31.480  21.606  45.910  1.00  0.00    -0.008 A 
HETATM   11  C16 UNL     1      31.460  22.978  45.760  1.00  0.00     0.014 A 
HETATM   12  C20 UNL     1      30.838  20.820  44.978  1.00  0.00     0.042 A 
HETATM   13  C17 UNL     1      30.817  23.592  44.706  1.00  0.00     0.001 A 
HETATM   14  C18 UNL     1      30.174  22.821  43.775  1.00  0.00     0.002 A 
HETATM   15  C19 UNL     1      30.194  21.441  43.926  1.00  0.00     0.030 A 
HETATM   16  N1  UNL     1      31.001  19.530  45.345  1.00  0.00    -0.359 N 
ATOM     17  H1  UNL     1      30.626  18.731  44.833  1.00  0.00     0.166 HD
ENDBRANCH   7   8
ENDBRANCH   5   7
BRANCH   1  18
HETATM   18  O1  UNL     1      32.597  18.690  51.999  1.00  0.00    -0.351 OA
BRANCH  18  19
HETATM   19  C6  UNL     1      33.343  19.748  52.451  1.00  0.00     0.180 C 
BRANCH  19  20
HETATM   20  C5  UNL     1      34.790  19.790  52.072  1.00  0.00     0.065 C 
BRANCH  20  21
HETATM   21  C4  UNL     1      35.655  18.991  52.977  1.00  0.00    -0.056 A 
HETATM   22  C3  UNL     1      36.801  18.363  52.546  1.00  0.00     0.007 A 
HETATM   23  C2  UNL     1      37.582  17.632  53.419  1.00  0.00     0.001 A 
HETATM   24  C1  UNL     1      37.238  17.512  54.736  1.00  0.00     0.000 A 
HETATM   25  C23 UNL     1      36.100  18.129  55.185  1.00  0.00     0.001 A 
HETATM   26  C22 UNL     1      35.326  18.857  54.306  1.00  0.00     0.007 A 
ENDBRANCH  20  21
ENDBRANCH  19  20
ENDBRANCH  18  19
ENDBRANCH   1  18
TORSDOF 6
ENDMDL
MODEL 2
REMARK VINA RESULT: -10.662188503      0.527      1.130
REMARK  6 active torsions:
REMARK  status: ('A' for Active; 'I' for Inactive)
REMARK    1  A    between atoms: C4_4  and  C5_5 
REMARK    2  A    between atoms: C5_5  and  C6_6 
REMARK    3  A    between atoms: C6_6  and  O1_7 
REMARK    4  A    between atoms: O1_7  and  C7_8 
REMARK    5  A    between atoms: C11_12  and  C12_13 
REMARK    6  A    between atoms: C12_13  and  C13_14 
ROOT
HETATM    1  C7  UNL     1      31.697  18.451  51.020  1.00  0.00     0.069 A 
HETATM    2  C8  UNL     1      30.330  18.389  51.148  1.00  0.00     0.037 A 
HETATM    3  C9  UNL     1      29.578  18.278  49.985  1.00  0.00     0.003 A 
HETATM    4  C10 UNL     1      30.145  18.230  48.730  1.00  0.00     0.007 A 
HETATM    5  C11 UNL     1      31.524  18.293  48.587  1.00  0.00    -0.050 A 
HETATM    6  C21 UNL     1      32.257  18.401  49.734  1.00  0.00     0.044 A 
ENDROOT
BRANCH   5   7
HETATM    7  C12 UNL     1      32.159  18.244  47.244  1.00  0.00     0.095 C 
BRANCH   7   8
HETATM    8  C13 UNL     1      31.783  19.475  46.524  1.00  0.00     0.014 A 
HETATM    9  C14 UNL     1      31.098  19.544  45.312  1.00  0.00     0.039 A 
HETATM   10  C15 UNL     1      30.933  20.851  44.960  1.00  0.00    -0.008 A 
HETATM   11  C16 UNL     1      30.346  21.500  43.894  1.00  0.00     0.014 A 
HETATM   12  C20 UNL     1      31.519  21.596  45.960  1.00  0.00     0.042 A 
HETATM   13  C17 UNL     1      30.325  22.876  43.792  1.00  0.00     0.001 A 
HETATM   14  C18 UNL     1      30.904  23.627  44.779  1.00  0.00     0.002 A 
HETATM   15  C19 UNL     1      31.495  22.974  45.852  1.00  0.00     0.030 A 
HETATM   16  N1  UNL     1      32.017  20.738  46.877  1.00  0.00    -0.359 N 
ATOM     17  H1  UNL     1      32.507  21.020  47.726  1.00  0.00     0.166 HD
ENDBRANCH   7   8
ENDBRANCH   5   7
BRANCH   1  18
HETATM   18  O1  UNL     1      32.560  18.556  52.070  1.00  0.00    -0.351 OA
BRANCH  18  19
HETATM   19  C6  UNL     1      33.257  19.593  52.635  1.00  0.00     0.180 C 
BRANCH  19  20
HETATM   20  C5  UNL     1      34.681  19.782  52.216  1.00  0.00     0.065 C 
BRANCH  20  21
HETATM   21  C4  UNL     1      35.641  19.002  53.040  1.00  0.00    -0.056 A 
HETATM   22  C3  UNL     1      36.791  18.453  52.519  1.00  0.00     0.007 A 
HETATM   23  C2  UNL     1      37.661  17.738  53.317  1.00  0.00     0.001 A 
HETATM   24  C1  UNL     1      37.405  17.556  54.648  1.00  0.00     0.000 A 
HETATM   25  C23 UNL     1      36.265  18.094  55.185  1.00  0.00     0.001 A 
HETATM   26  C22 UNL     1      35.402  18.807  54.380  1.00  0.00     0.007 A 
ENDBRANCH  20  21
ENDBRANCH  19  20
ENDBRANCH  18  19
ENDBRANCH   1  18
TORSDOF 6
ENDMDL
MODEL 3
REMARK VINA RESULT: -10.471255516      2.097      8.528
REMARK  6 active torsions:
REMARK  status: ('A' for Active; 'I' for Inactive)
REMARK    1  A    between atoms: C4_4  and  C5_5 
REMARK    2  A    between atoms: C5_5  and  C6_6 
REMARK    3  A    between atoms: C6_6  and  O1_7 
REMARK    4  A    between atoms: O1_7  and  C7_8 
REMARK    5  A    between atoms: C11_12  and  C12_13 
REMARK    6  A    between atoms: C12_13  and  C13_14 
ROOT
HETATM    1  C7  UNL     1      31.677  18.457  48.187  1.00  0.00     0.069 A 
HETATM    2  C8  UNL     1      30.524  17.920  48.711  1.00  0.00     0.037 A 
HETATM    3  C9  UNL     1      30.154  18.314  49.991  1.00  0.00     0.003 A 
HETATM    4  C10 UNL     1      30.888  19.207  50.740  1.00  0.00     0.007 A 
HETATM    5  C11 UNL     1      32.054  19.755  50.223  1.00  0.00    -0.050 A 
HETATM    6  C21 UNL     1      32.412  19.365  48.965  1.00  0.00     0.044 A 
ENDROOT
BRANCH   5   7
HETATM    7  C12 UNL     1      32.863  20.720  51.013  1.00  0.00     0.095 C 
BRANCH   7   8
HETATM    8  C13 UNL     1      33.829  19.946  51.815  1.00  0.00     0.014 A 
HETATM    9  C14 UNL     1      35.117  19.583  51.428  1.00  0.00     0.039 A 
HETATM   10  C15 UNL     1      35.708  18.874  52.431  1.00  0.00    -0.008 A 
HETATM   11  C16 UNL     1      36.941  18.278  52.601  1.00  0.00     0.014 A 
HETATM   12  C20 UNL     1      34.780  18.798  53.447  1.00  0.00     0.042 A 
HETATM   13  C17 UNL     1      37.279  17.606  53.757  1.00  0.00     0.001 A 
HETATM   14  C18 UNL     1      36.366  17.523  54.773  1.00  0.00     0.002 A 
HETATM   15  C19 UNL     1      35.125  18.123  54.602  1.00  0.00     0.030 A 
HETATM   16  N1  UNL     1      33.669  19.450  53.041  1.00  0.00    -0.359 N 
ATOM     17  H1  UNL     1      32.821  19.549  53.598  1.00  0.00     0.166 HD
ENDBRANCH   7   8
ENDBRANCH   5   7
BRANCH   1  18
HETATM   18  O1  UNL     1      32.160  18.167  46.946  1.00  0.00    -0.351 OA
BRANCH  18  19
HETATM   19  C6  UNL     1      32.168  18.827  45.744  1.00  0.00     0.180 C 
BRANCH  19  20
HETATM   20  C5  UNL     1      30.895  19.478  45.301  1.00  0.00     0.065 C 
BRANCH  20  21
HETATM   21  C4  UNL     1      30.953  20.961  45.338  1.00  0.00    -0.056 A 
HETATM   22  C3  UNL     1      31.423  21.660  46.427  1.00  0.00     0.007 A 
HETATM   23  C2  UNL     1      31.466  23.039  46.421  1.00  0.00     0.001 A 
HETATM   24  C1  UNL     1      31.042  23.751  45.334  1.00  0.00     0.000 A 
HETATM   25  C23 UNL     1      30.570  23.074  44.240  1.00  0.00     0.001 A 
HETATM   26  C22 UNL     1      30.531  21.696  44.254  1.00  0.00     0.007 A 
ENDBRANCH  20  21
ENDBRANCH  19  20
ENDBRANCH  18  19
ENDBRANCH   1  18
TORSDOF 6
ENDMDL
MODEL 4
REMARK VINA RESULT: -10.417070149      1.967      8.491
REMARK  6 active torsions:
REMARK  status: ('A' for Active; 'I' for Inactive)
REMARK    1  A    between atoms: C4_4  and  C5_5 
REMARK    2  A    between atoms: C5_5  and  C6_6 
REMARK    3  A    between atoms: C6_6  and  O1_7 
REMARK    4  A    between atoms: O1_7  and  C7_8 
REMARK    5  A    between atoms: C11_12  and  C12_13 
REMARK    6  A    between atoms: C12_13  and  C13_14 
ROOT
HETATM    1  C7  UNL     1      31.607  18.454  48.103  1.00  0.00     0.069 A 
HETATM    2  C8  UNL     1      30.457  17.913  48.629  1.00  0.00     0.037 A 
HETATM    3  C9  UNL     1      30.086  18.308  49.908  1.00  0.00     0.003 A 
HETATM    4  C10 UNL     1      30.817  19.205  50.655  1.00  0.00     0.007 A 
HETATM    5  C11 UNL     1      31.980  19.758  50.136  1.00  0.00    -0.050 A 
HETATM    6  C21 UNL     1      32.339  19.367  48.878  1.00  0.00     0.044 A 
ENDROOT
BRANCH   5   7
HETATM    7  C12 UNL     1      32.786  20.728  50.923  1.00  0.00     0.095 C 
BRANCH   7   8
HETATM    8  C13 UNL     1      33.767  19.961  51.713  1.00  0.00     0.014 A 
HETATM    9  C14 UNL     1      33.591  19.491  53.013  1.00  0.00     0.039 A 
HETATM   10  C15 UNL     1      34.714  18.827  53.410  1.00  0.00    -0.008 A 
HETATM   11  C16 UNL     1      35.096  18.172  54.562  1.00  0.00     0.014 A 
HETATM   12  C20 UNL     1      35.591  18.886  52.349  1.00  0.00     0.042 A 
HETATM   13  C17 UNL     1      36.331  17.572  54.691  1.00  0.00     0.001 A 
HETATM   14  C18 UNL     1      37.211  17.624  53.644  1.00  0.00     0.002 A 
HETATM   15  C19 UNL     1      36.827  18.283  52.484  1.00  0.00     0.030 A 
HETATM   16  N1  UNL     1      34.990  19.573  51.353  1.00  0.00    -0.359 N 
ATOM     17  H1  UNL     1      35.414  19.768  50.447  1.00  0.00     0.166 HD
ENDBRANCH   7   8
ENDBRANCH   5   7
BRANCH   1  18
HETATM   18  O1  UNL     1      32.091  18.164  46.861  1.00  0.00    -0.351 OA
BRANCH  18  19
HETATM   19  C6  UNL     1      32.165  18.853  45.679  1.00  0.00     0.180 C 
BRANCH  19  20
HETATM   20  C5  UNL     1      30.918  19.513  45.180  1.00  0.00     0.065 C 
BRANCH  20  21
HETATM   21  C4  UNL     1      30.970  20.996  45.257  1.00  0.00    -0.056 A 
HETATM   22  C3  UNL     1      31.468  21.666  46.351  1.00  0.00     0.007 A 
HETATM   23  C2  UNL     1      31.504  23.045  46.384  1.00  0.00     0.001 A 
HETATM   24  C1  UNL     1      31.045  23.785  45.329  1.00  0.00     0.000 A 
HETATM   25  C23 UNL     1      30.545  23.136  44.231  1.00  0.00     0.001 A 
HETATM   26  C22 UNL     1      30.513  21.758  44.207  1.00  0.00     0.007 A 
ENDBRANCH  20  21
ENDBRANCH  19  20
ENDBRANCH  18  19
ENDBRANCH   1  18
TORSDOF 6
ENDMDL
MODEL 5
REMARK VINA RESULT: -10.361259725      3.587      7.450
REMARK  6 active torsions:
REMARK  status: ('A' for Active; 'I' for Inactive)
REMARK    1  A    between atoms: C4_4  and  C5_5 
REMARK    2  A    between atoms: C5_5  and  C6_6 
REMARK    3  A    between atoms: C6_6  and  O1_7 
REMARK    4  A    between atoms: O1_7  and  C7_8 
REMARK    5  A    between atoms: C11_12  and  C12_13 
REMARK    6  A    between atoms: C12_13  and  C13_14 
ROOT
HETATM    1  C7  UNL     1      29.690  20.785  43.505  1.00  0.00     0.069 A 
HETATM    2  C8  UNL     1      30.335  21.955  43.182  1.00  0.00     0.037 A 
HETATM    3  C9  UNL     1      30.283  22.995  44.103  1.00  0.00     0.003 A 
HETATM    4  C10 UNL     1      29.619  22.896  45.305  1.00  0.00     0.007 A 
HETATM    5  C11 UNL     1      28.963  21.720  45.643  1.00  0.00    -0.050 A 
HETATM    6  C21 UNL     1      29.018  20.702  44.734  1.00  0.00     0.044 A 
ENDROOT
BRANCH   5   7
HETATM    7  C12 UNL     1      28.238  21.590  46.934  1.00  0.00     0.095 C 
BRANCH   7   8
HETATM    8  C13 UNL     1      29.161  20.978  47.909  1.00  0.00     0.014 A 
HETATM    9  C14 UNL     1      30.337  21.544  48.398  1.00  0.00     0.039 A 
HETATM   10  C15 UNL     1      30.920  20.684  49.279  1.00  0.00    -0.008 A 
HETATM   11  C16 UNL     1      32.066  20.713  50.048  1.00  0.00     0.014 A 
HETATM   12  C20 UNL     1      30.101  19.577  49.337  1.00  0.00     0.042 A 
HETATM   13  C17 UNL     1      32.421  19.669  50.876  1.00  0.00     0.001 A 
HETATM   14  C18 UNL     1      31.616  18.564  50.942  1.00  0.00     0.002 A 
HETATM   15  C19 UNL     1      30.464  18.535  50.168  1.00  0.00     0.030 A 
HETATM   16  N1  UNL     1      29.060  19.790  48.503  1.00  0.00    -0.359 N 
ATOM     17  H1  UNL     1      28.298  19.130  48.349  1.00  0.00     0.166 HD
ENDBRANCH   7   8
ENDBRANCH   5   7
BRANCH   1  18
HETATM   18  O1  UNL     1      29.659  19.682  42.704  1.00  0.00    -0.351 OA
BRANCH  18  19
HETATM   19  C6  UNL     1      30.398  18.530  42.634  1.00  0.00     0.180 C 
BRANCH  19  20
HETATM   20  C5  UNL     1      31.850  18.613  42.990  1.00  0.00     0.065 C 
BRANCH  20  21
HETATM   21  C4  UNL     1      32.095  18.584  44.454  1.00  0.00    -0.056 A 
HETATM   22  C3  UNL     1      31.888  17.459  45.220  1.00  0.00     0.007 A 
HETATM   23  C2  UNL     1      32.132  17.470  46.578  1.00  0.00     0.001 A 
HETATM   24  C1  UNL     1      32.586  18.598  47.202  1.00  0.00     0.000 A 
HETATM   25  C23 UNL     1      32.798  19.729  46.457  1.00  0.00     0.001 A 
HETATM   26  C22 UNL     1      32.552  19.709  45.101  1.00  0.00     0.007 A 
ENDBRANCH  20  21
ENDBRANCH  19  20
ENDBRANCH  18  19
ENDBRANCH   1  18
TORSDOF 6
ENDMDL
