MODEL 1
REMARK VINA RESULT: -7.435002301      0.000      0.000
REMARK  6 active torsions:
REMARK  status: ('A' for Active; 'I' for Inactive)
REMARK    1  A    between atoms: N1_1  and  C1_5 
REMARK    2  A    between atoms: C1_5  and  C2_6 
REMARK    3  A    between atoms: C5_9  and  C6_10 
REMARK    4  A    between atoms: C6_10  and  C7_11 
REMARK    5  A    between atoms: C6_10  and  C13_17 
REMARK    6  A    between atoms: C6_10  and  C19_23 
ROOT
HETATM    1  C6  UNL     1      38.451  15.213  58.620  1.00  0.00     0.068 C 
ENDROOT
BRANCH   1   2
HETATM    2  C5  UNL     1      37.826  14.085  57.882  1.00  0.00    -0.036 A 
HETATM    3  C4  UNL     1      38.408  12.836  58.067  1.00  0.00     0.009 A 
HETATM    4  C3  UNL     1      37.909  11.740  57.417  1.00  0.00     0.009 A 
HETATM    5  C2  UNL     1      36.825  11.834  56.567  1.00  0.00    -0.033 A 
HETATM    6  C26 UNL     1      36.234  13.056  56.370  1.00  0.00     0.009 A 
HETATM    7  C25 UNL     1      36.759  14.163  57.041  1.00  0.00     0.009 A 
BRANCH   5   8
HETATM    8  C1  UNL     1      36.361  10.576  55.913  1.00  0.00     0.268 C 
BRANCH   8   9
HETATM    9  N1  UNL     1      36.352  10.675  54.481  1.00  0.00    -0.075 N 
ATOM     10  H13 UNL     1      37.181  11.163  54.141  1.00  0.00     0.274 HD
ATOM     11  H12 UNL     1      36.511   9.765  54.049  1.00  0.00     0.274 HD
ATOM     12  H11 UNL     1      35.500  11.108  54.126  1.00  0.00     0.274 HD
ENDBRANCH   8   9
ENDBRANCH   5   8
ENDBRANCH   1   2
BRANCH   1  13
HETATM   13  C7  UNL     1      37.790  15.257  59.951  1.00  0.00    -0.036 A 
HETATM   14  C8  UNL     1      38.143  16.127  60.949  1.00  0.00     0.009 A 
HETATM   15  C9  UNL     1      37.462  16.137  62.165  1.00  0.00     0.001 A 
HETATM   16  C10 UNL     1      36.417  15.269  62.383  1.00  0.00     0.000 A 
HETATM   17  C11 UNL     1      36.084  14.407  61.362  1.00  0.00     0.001 A 
HETATM   18  C12 UNL     1      36.735  14.374  60.156  1.00  0.00     0.009 A 
ENDBRANCH   1  13
BRANCH   1  19
HETATM   19  C13 UNL     1      39.946  15.067  58.708  1.00  0.00    -0.036 A 
HETATM   20  C14 UNL     1      40.645  14.957  59.871  1.00  0.00     0.009 A 
HETATM   21  C15 UNL     1      42.027  14.842  59.893  1.00  0.00     0.001 A 
HETATM   22  C16 UNL     1      42.759  14.835  58.718  1.00  0.00     0.000 A 
HETATM   23  C17 UNL     1      42.050  14.947  57.549  1.00  0.00     0.001 A 
HETATM   24  C18 UNL     1      40.688  15.060  57.518  1.00  0.00     0.009 A 
ENDBRANCH   1  19
BRANCH   1  25
HETATM   25  C19 UNL     1      38.265  16.526  57.952  1.00  0.00    -0.036 A 
HETATM   26  C20 UNL     1      37.781  16.646  56.677  1.00  0.00     0.009 A 
HETATM   27  C21 UNL     1      37.636  17.901  56.132  1.00  0.00     0.001 A 
HETATM   28  C22 UNL     1      37.974  19.030  56.855  1.00  0.00     0.000 A 
HETATM   29  C23 UNL     1      38.461  18.912  58.137  1.00  0.00     0.001 A 
HETATM   30  C24 UNL     1      38.610  17.668  58.693  1.00  0.00     0.009 A 
ENDBRANCH   1  25
TORSDOF 6
ENDMDL
MODEL 2
REMARK VINA RESULT: -7.210591146      1.803      5.544
REMARK  6 active torsions:
REMARK  status: ('A' for Active; 'I' for Inactive)
REMARK    1  A    between atoms: N1_1  and  C1_5 
REMARK    2  A    between atoms: C1_5  and  C2_6 
REMARK    3  A    between atoms: C5_9  and  C6_10 
REMARK    4  A    between atoms: C6_10  and  C7_11 
REMARK    5  A    between atoms: C6_10  and  C13_17 
REMARK    6  A    between atoms: C6_10  and  C19_23 
ROOT
HETATM    1  C6  UNL     1      38.474  15.312  58.597  1.00  0.00     0.068 C 
ENDROOT
BRANCH   1   2
HETATM    2  C5  UNL     1      39.947  15.138  58.692  1.00  0.00    -0.036 A 
HETATM    3  C4  UNL     1      40.628  15.027  57.485  1.00  0.00     0.009 A 
HETATM    4  C3  UNL     1      41.985  14.851  57.474  1.00  0.00     0.009 A 
HETATM    5  C2  UNL     1      42.715  14.778  58.643  1.00  0.00    -0.033 A 
HETATM    6  C26 UNL     1      42.064  14.885  59.845  1.00  0.00     0.009 A 
HETATM    7  C25 UNL     1      40.679  15.064  59.836  1.00  0.00     0.009 A 
BRANCH   5   8
HETATM    8  C1  UNL     1      44.190  14.587  58.516  1.00  0.00     0.268 C 
BRANCH   8   9
HETATM    9  N1  UNL     1      44.538  13.733  57.415  1.00  0.00    -0.075 N 
ATOM     10  H13 UNL     1      44.159  12.795  57.543  1.00  0.00     0.274 HD
ATOM     11  H12 UNL     1      44.033  13.999  56.570  1.00  0.00     0.274 HD
ATOM     12  H11 UNL     1      45.544  13.704  57.249  1.00  0.00     0.274 HD
ENDBRANCH   8   9
ENDBRANCH   5   8
ENDBRANCH   1   2
BRANCH   1  13
HETATM   13  C7  UNL     1      38.252  16.617  57.919  1.00  0.00    -0.036 A 
HETATM   14  C8  UNL     1      37.709  16.743  56.668  1.00  0.00     0.009 A 
HETATM   15  C9  UNL     1      37.499  17.999  56.102  1.00  0.00     0.001 A 
HETATM   16  C10 UNL     1      37.835  19.139  56.795  1.00  0.00     0.000 A 
HETATM   17  C11 UNL     1      38.378  18.981  58.051  1.00  0.00     0.001 A 
HETATM   18  C12 UNL     1      38.596  17.760  58.634  1.00  0.00     0.009 A 
ENDBRANCH   1  13
BRANCH   1  19
HETATM   19  C13 UNL     1      37.817  14.160  57.888  1.00  0.00    -0.036 A 
HETATM   20  C14 UNL     1      36.756  14.275  57.042  1.00  0.00     0.009 A 
HETATM   21  C15 UNL     1      36.179  13.174  56.429  1.00  0.00     0.001 A 
HETATM   22  C16 UNL     1      36.664  11.896  56.655  1.00  0.00     0.000 A 
HETATM   23  C17 UNL     1      37.732  11.785  57.508  1.00  0.00     0.001 A 
HETATM   24  C18 UNL     1      38.308  12.866  58.117  1.00  0.00     0.009 A 
ENDBRANCH   1  19
BRANCH   1  25
HETATM   25  C19 UNL     1      37.801  15.341  59.920  1.00  0.00    -0.036 A 
HETATM   26  C20 UNL     1      38.217  16.146  60.946  1.00  0.00     0.009 A 
HETATM   27  C21 UNL     1      37.536  16.115  62.140  1.00  0.00     0.001 A 
HETATM   28  C22 UNL     1      36.445  15.284  62.311  1.00  0.00     0.000 A 
HETATM   29  C23 UNL     1      36.024  14.473  61.281  1.00  0.00     0.001 A 
HETATM   30  C24 UNL     1      36.692  14.494  60.085  1.00  0.00     0.009 A 
ENDBRANCH   1  25
TORSDOF 6
ENDMDL
MODEL 3
REMARK VINA RESULT: -7.019027563      2.173      5.665
REMARK  6 active torsions:
REMARK  status: ('A' for Active; 'I' for Inactive)
REMARK    1  A    between atoms: N1_1  and  C1_5 
REMARK    2  A    between atoms: C1_5  and  C2_6 
REMARK    3  A    between atoms: C5_9  and  C6_10 
REMARK    4  A    between atoms: C6_10  and  C7_11 
REMARK    5  A    between atoms: C6_10  and  C13_17 
REMARK    6  A    between atoms: C6_10  and  C19_23 
ROOT
HETATM    1  C6  UNL     1      38.445  15.138  58.359  1.00  0.00     0.068 C 
ENDROOT
BRANCH   1   2
HETATM    2  C5  UNL     1      39.922  14.997  58.442  1.00  0.00    -0.036 A 
HETATM    3  C4  UNL     1      40.451  14.853  59.719  1.00  0.00     0.009 A 
HETATM    4  C3  UNL     1      41.803  14.730  59.895  1.00  0.00     0.009 A 
HETATM    5  C2  UNL     1      42.675  14.744  58.826  1.00  0.00    -0.033 A 
HETATM    6  C26 UNL     1      42.176  14.884  57.556  1.00  0.00     0.009 A 
HETATM    7  C25 UNL     1      40.794  15.009  57.397  1.00  0.00     0.009 A 
BRANCH   5   8
HETATM    8  C1  UNL     1      44.129  14.600  59.130  1.00  0.00     0.268 C 
BRANCH   8   9
HETATM    9  N1  UNL     1      44.538  15.409  60.243  1.00  0.00    -0.075 N 
ATOM     10  H13 UNL     1      43.789  16.035  60.538  1.00  0.00     0.274 HD
ATOM     11  H12 UNL     1      44.628  14.851  61.091  1.00  0.00     0.274 HD
ATOM     12  H11 UNL     1      45.395  15.928  60.052  1.00  0.00     0.274 HD
ENDBRANCH   8   9
ENDBRANCH   5   8
ENDBRANCH   1   2
BRANCH   1  13
HETATM   13  C7  UNL     1      38.188  16.394  57.605  1.00  0.00    -0.036 A 
HETATM   14  C8  UNL     1      37.675  16.429  56.335  1.00  0.00     0.009 A 
HETATM   15  C9  UNL     1      37.430  17.642  55.695  1.00  0.00     0.001 A 
HETATM   16  C10 UNL     1      37.700  18.832  56.332  1.00  0.00     0.000 A 
HETATM   17  C11 UNL     1      38.214  18.765  57.608  1.00  0.00     0.001 A 
HETATM   18  C12 UNL     1      38.465  17.588  58.264  1.00  0.00     0.009 A 
ENDBRANCH   1  13
BRANCH   1  19
HETATM   19  C13 UNL     1      37.799  13.932  57.734  1.00  0.00    -0.036 A 
HETATM   20  C14 UNL     1      36.663  13.964  56.984  1.00  0.00     0.009 A 
HETATM   21  C15 UNL     1      36.102  12.816  56.446  1.00  0.00     0.001 A 
HETATM   22  C16 UNL     1      36.682  11.576  56.653  1.00  0.00     0.000 A 
HETATM   23  C17 UNL     1      37.827  11.549  57.408  1.00  0.00     0.001 A 
HETATM   24  C18 UNL     1      38.387  12.676  57.943  1.00  0.00     0.009 A 
ENDBRANCH   1  19
BRANCH   1  25
HETATM   25  C19 UNL     1      37.790  15.239  59.688  1.00  0.00    -0.036 A 
HETATM   26  C20 UNL     1      38.178  16.143  60.639  1.00  0.00     0.009 A 
HETATM   27  C21 UNL     1      37.516  16.172  61.845  1.00  0.00     0.001 A 
HETATM   28  C22 UNL     1      36.473  15.303  62.100  1.00  0.00     0.000 A 
HETATM   29  C23 UNL     1      36.080  14.392  61.146  1.00  0.00     0.001 A 
HETATM   30  C24 UNL     1      36.729  14.352  59.939  1.00  0.00     0.009 A 
ENDBRANCH   1  25
TORSDOF 6
ENDMDL
MODEL 4
REMARK VINA RESULT: -7.006321393      2.002      4.944
REMARK  6 active torsions:
REMARK  status: ('A' for Active; 'I' for Inactive)
REMARK    1  A    between atoms: N1_1  and  C1_5 
REMARK    2  A    between atoms: C1_5  and  C2_6 
REMARK    3  A    between atoms: C5_9  and  C6_10 
REMARK    4  A    between atoms: C6_10  and  C7_11 
REMARK    5  A    between atoms: C6_10  and  C13_17 
REMARK    6  A    between atoms: C6_10  and  C19_23 
ROOT
HETATM    1  C6  UNL     1      38.270  14.751  58.232  1.00  0.00     0.068 C 
ENDROOT
BRANCH   1   2
HETATM    2  C5  UNL     1      39.716  14.435  58.357  1.00  0.00    -0.036 A 
HETATM    3  C4  UNL     1      40.562  15.076  57.459  1.00  0.00     0.009 A 
HETATM    4  C3  UNL     1      41.909  14.837  57.490  1.00  0.00     0.009 A 
HETATM    5  C2  UNL     1      42.468  13.963  58.401  1.00  0.00    -0.033 A 
HETATM    6  C26 UNL     1      41.653  13.320  59.297  1.00  0.00     0.009 A 
HETATM    7  C25 UNL     1      40.281  13.576  59.249  1.00  0.00     0.009 A 
BRANCH   5   8
HETATM    8  C1  UNL     1      43.948  13.778  58.348  1.00  0.00     0.268 C 
BRANCH   8   9
HETATM    9  N1  UNL     1      44.538  14.406  57.200  1.00  0.00    -0.075 N 
ATOM     10  H13 UNL     1      43.928  15.132  56.824  1.00  0.00     0.274 HD
ATOM     11  H12 UNL     1      45.335  14.983  57.466  1.00  0.00     0.274 HD
ATOM     12  H11 UNL     1      44.796  13.733  56.479  1.00  0.00     0.274 HD
ENDBRANCH   8   9
ENDBRANCH   5   8
ENDBRANCH   1   2
BRANCH   1  13
HETATM   13  C7  UNL     1      37.777  15.001  59.613  1.00  0.00    -0.036 A 
HETATM   14  C8  UNL     1      38.302  15.951  60.449  1.00  0.00     0.009 A 
HETATM   15  C9  UNL     1      37.773  16.154  61.722  1.00  0.00     0.001 A 
HETATM   16  C10 UNL     1      36.709  15.402  62.162  1.00  0.00     0.000 A 
HETATM   17  C11 UNL     1      36.202  14.455  61.299  1.00  0.00     0.001 A 
HETATM   18  C12 UNL     1      36.700  14.231  60.041  1.00  0.00     0.009 A 
ENDBRANCH   1  13
BRANCH   1  19
HETATM   19  C13 UNL     1      38.026  15.906  57.300  1.00  0.00    -0.036 A 
HETATM   20  C14 UNL     1      37.763  15.785  55.969  1.00  0.00     0.009 A 
HETATM   21  C15 UNL     1      37.562  16.889  55.155  1.00  0.00     0.001 A 
HETATM   22  C16 UNL     1      37.623  18.174  55.667  1.00  0.00     0.000 A 
HETATM   23  C17 UNL     1      37.888  18.290  57.008  1.00  0.00     0.001 A 
HETATM   24  C18 UNL     1      38.087  17.208  57.819  1.00  0.00     0.009 A 
ENDBRANCH   1  19
BRANCH   1  25
HETATM   25  C19 UNL     1      37.477  13.645  57.636  1.00  0.00    -0.036 A 
HETATM   26  C20 UNL     1      38.001  12.402  57.400  1.00  0.00     0.009 A 
HETATM   27  C21 UNL     1      37.197  11.432  56.847  1.00  0.00     0.001 A 
HETATM   28  C22 UNL     1      35.879  11.701  56.530  1.00  0.00     0.000 A 
HETATM   29  C23 UNL     1      35.351  12.950  56.766  1.00  0.00     0.001 A 
HETATM   30  C24 UNL     1      36.138  13.926  57.318  1.00  0.00     0.009 A 
ENDBRANCH   1  25
TORSDOF 6
ENDMDL
MODEL 5
REMARK VINA RESULT: -6.989954962      1.104      4.476
REMARK  6 active torsions:
REMARK  status: ('A' for Active; 'I' for Inactive)
REMARK    1  A    between atoms: N1_1  and  C1_5 
REMARK    2  A    between atoms: C1_5  and  C2_6 
REMARK    3  A    between atoms: C5_9  and  C6_10 
REMARK    4  A    between atoms: C6_10  and  C7_11 
REMARK    5  A    between atoms: C6_10  and  C13_17 
REMARK    6  A    between atoms: C6_10  and  C19_23 
ROOT
HETATM    1  C6  UNL     1      38.247  14.774  58.082  1.00  0.00     0.068 C 
ENDROOT
BRANCH   1   2
HETATM    2  C5  UNL     1      37.456  13.661  57.498  1.00  0.00    -0.036 A 
HETATM    3  C4  UNL     1      36.124  13.941  57.214  1.00  0.00     0.009 A 
HETATM    4  C3  UNL     1      35.314  12.972  56.686  1.00  0.00     0.009 A 
HETATM    5  C2  UNL     1      35.783  11.702  56.421  1.00  0.00    -0.033 A 
HETATM    6  C26 UNL     1      37.094  11.403  56.692  1.00  0.00     0.009 A 
HETATM    7  C25 UNL     1      37.905  12.404  57.231  1.00  0.00     0.009 A 
BRANCH   5   8
HETATM    8  C1  UNL     1      34.815  10.724  55.843  1.00  0.00     0.268 C 
BRANCH   8   9
HETATM    9  N1  UNL     1      33.492  11.267  55.727  1.00  0.00    -0.075 N 
ATOM     10  H13 UNL     1      33.503  12.160  55.233  1.00  0.00     0.274 HD
ATOM     11  H12 UNL     1      32.928  10.726  55.072  1.00  0.00     0.274 HD
ATOM     12  H11 UNL     1      33.026  11.353  56.629  1.00  0.00     0.274 HD
ENDBRANCH   8   9
ENDBRANCH   5   8
ENDBRANCH   1   2
BRANCH   1  13
HETATM   13  C7  UNL     1      38.067  15.936  57.171  1.00  0.00    -0.036 A 
HETATM   14  C8  UNL     1      37.902  15.824  55.815  1.00  0.00     0.009 A 
HETATM   15  C9  UNL     1      37.708  16.952  55.022  1.00  0.00     0.001 A 
HETATM   16  C10 UNL     1      37.678  18.205  55.589  1.00  0.00     0.000 A 
HETATM   17  C11 UNL     1      37.847  18.287  56.954  1.00  0.00     0.001 A 
HETATM   18  C12 UNL     1      38.039  17.196  57.761  1.00  0.00     0.009 A 
ENDBRANCH   1  13
BRANCH   1  19
HETATM   19  C13 UNL     1      37.842  15.069  59.500  1.00  0.00    -0.036 A 
HETATM   20  C14 UNL     1      38.453  15.979  60.307  1.00  0.00     0.009 A 
HETATM   21  C15 UNL     1      38.046  16.197  61.614  1.00  0.00     0.001 A 
HETATM   22  C16 UNL     1      36.989  15.487  62.158  1.00  0.00     0.000 A 
HETATM   23  C17 UNL     1      36.376  14.571  61.342  1.00  0.00     0.001 A 
HETATM   24  C18 UNL     1      36.771  14.350  60.052  1.00  0.00     0.009 A 
ENDBRANCH   1  19
BRANCH   1  25
HETATM   25  C19 UNL     1      39.697  14.472  58.186  1.00  0.00    -0.036 A 
HETATM   26  C20 UNL     1      40.644  15.116  57.437  1.00  0.00     0.009 A 
HETATM   27  C21 UNL     1      41.968  14.777  57.597  1.00  0.00     0.001 A 
HETATM   28  C22 UNL     1      42.345  13.800  58.498  1.00  0.00     0.000 A 
HETATM   29  C23 UNL     1      41.394  13.150  59.253  1.00  0.00     0.001 A 
HETATM   30  C24 UNL     1      40.071  13.477  59.106  1.00  0.00     0.009 A 
ENDBRANCH   1  25
TORSDOF 6
ENDMDL
