MODEL 1
REMARK VINA RESULT: -9.606946972      0.000      0.000
REMARK  6 active torsions:
REMARK  status: ('A' for Active; 'I' for Inactive)
REMARK    1  A    between atoms: C4_4  and  C5_5 
REMARK    2  A    between atoms: C5_5  and  C6_6 
REMARK    3  A    between atoms: C6_6  and  C7_7 
REMARK    4  A    between atoms: C12_14  and  O1_15 
REMARK    5  A    between atoms: O1_15  and  C13_16 
REMARK    6  A    between atoms: C13_16  and  C14_17 
ROOT
HETATM    1  C7  UNL     1      30.333  21.107  43.170  1.00  0.00    -0.030 A 
HETATM    2  C8  UNL     1      30.881  21.253  41.907  1.00  0.00     0.096 A 
HETATM    3  N1  UNL     1      31.783  20.300  41.702  1.00  0.00    -0.365 N 
ATOM      4  H1  UNL     1      32.341  20.168  40.858  1.00  0.00     0.165 HD
HETATM    5  C9  UNL     1      31.826  19.530  42.826  1.00  0.00     0.043 A 
HETATM    6  C10 UNL     1      32.599  18.428  43.092  1.00  0.00     0.033 A 
HETATM    7  C11 UNL     1      32.435  17.834  44.330  1.00  0.00     0.039 A 
HETATM    8  C12 UNL     1      31.550  18.297  45.274  1.00  0.00     0.070 A 
HETATM    9  C20 UNL     1      30.772  19.412  44.994  1.00  0.00     0.051 A 
HETATM   10  C21 UNL     1      30.933  20.006  43.760  1.00  0.00     0.001 A 
ENDROOT
BRANCH   1  11
HETATM   11  C6  UNL     1      29.307  21.978  43.741  1.00  0.00     0.045 C 
BRANCH  11  12
HETATM   12  C5  UNL     1      29.828  23.056  44.657  1.00  0.00     0.043 C 
BRANCH  12  13
HETATM   13  C4  UNL     1      30.054  22.527  46.027  1.00  0.00    -0.058 A 
HETATM   14  C3  UNL     1      31.273  22.630  46.677  1.00  0.00     0.007 A 
HETATM   15  C2  UNL     1      31.423  22.121  47.949  1.00  0.00     0.001 A 
HETATM   16  C1  UNL     1      30.371  21.503  48.596  1.00  0.00     0.000 A 
HETATM   17  C23 UNL     1      29.167  21.404  47.945  1.00  0.00     0.001 A 
HETATM   18  C22 UNL     1      29.011  21.909  46.679  1.00  0.00     0.007 A 
ENDBRANCH  12  13
ENDBRANCH  11  12
ENDBRANCH   1  11
BRANCH   8  19
HETATM   19  O1  UNL     1      31.436  17.667  46.474  1.00  0.00    -0.347 OA
BRANCH  19  20
HETATM   20  C13 UNL     1      32.297  18.019  47.535  1.00  0.00     0.214 C 
BRANCH  20  21
HETATM   21  C14 UNL     1      31.558  18.228  48.805  1.00  0.00    -0.034 A 
HETATM   22  C15 UNL     1      30.196  18.053  48.935  1.00  0.00     0.009 A 
HETATM   23  C16 UNL     1      29.635  18.282  50.175  1.00  0.00     0.001 A 
HETATM   24  C17 UNL     1      30.384  18.677  51.280  1.00  0.00     0.000 A 
HETATM   25  C18 UNL     1      31.741  18.848  51.135  1.00  0.00     0.001 A 
HETATM   26  C19 UNL     1      32.321  18.623  49.904  1.00  0.00     0.009 A 
ENDBRANCH  20  21
ENDBRANCH  19  20
ENDBRANCH   8  19
TORSDOF 6
ENDMDL
MODEL 2
REMARK VINA RESULT: -9.496334987      3.474      5.814
REMARK  6 active torsions:
REMARK  status: ('A' for Active; 'I' for Inactive)
REMARK    1  A    between atoms: C4_4  and  C5_5 
REMARK    2  A    between atoms: C5_5  and  C6_6 
REMARK    3  A    between atoms: C6_6  and  C7_7 
REMARK    4  A    between atoms: C12_14  and  O1_15 
REMARK    5  A    between atoms: O1_15  and  C13_16 
REMARK    6  A    between atoms: C13_16  and  C14_17 
ROOT
HETATM    1  C7  UNL     1      30.457  21.037  48.210  1.00  0.00    -0.030 A 
HETATM    2  C8  UNL     1      29.306  20.299  47.991  1.00  0.00     0.096 A 
HETATM    3  N1  UNL     1      29.233  19.316  48.882  1.00  0.00    -0.365 N 
ATOM      4  H1  UNL     1      28.491  18.620  48.953  1.00  0.00     0.165 HD
HETATM    5  C9  UNL     1      30.331  19.408  49.684  1.00  0.00     0.043 A 
HETATM    6  C10 UNL     1      30.698  18.620  50.745  1.00  0.00     0.033 A 
HETATM    7  C11 UNL     1      31.879  18.947  51.388  1.00  0.00     0.039 A 
HETATM    8  C12 UNL     1      32.673  20.004  51.008  1.00  0.00     0.070 A 
HETATM    9  C20 UNL     1      32.291  20.795  49.934  1.00  0.00     0.051 A 
HETATM   10  C21 UNL     1      31.114  20.472  49.292  1.00  0.00     0.001 A 
ENDROOT
BRANCH   1  11
HETATM   11  C6  UNL     1      30.868  22.197  47.422  1.00  0.00     0.045 C 
BRANCH  11  12
HETATM   12  C5  UNL     1      31.801  21.887  46.278  1.00  0.00     0.043 C 
BRANCH  12  13
HETATM   13  C4  UNL     1      31.043  21.464  45.073  1.00  0.00    -0.058 A 
HETATM   14  C3  UNL     1      30.260  22.339  44.336  1.00  0.00     0.007 A 
HETATM   15  C2  UNL     1      29.579  21.889  43.226  1.00  0.00     0.001 A 
HETATM   16  C1  UNL     1      29.662  20.569  42.827  1.00  0.00     0.000 A 
HETATM   17  C23 UNL     1      30.439  19.710  43.562  1.00  0.00     0.001 A 
HETATM   18  C22 UNL     1      31.120  20.151  44.669  1.00  0.00     0.007 A 
ENDBRANCH  12  13
ENDBRANCH  11  12
ENDBRANCH   1  11
BRANCH   8  19
HETATM   19  O1  UNL     1      33.823  20.272  51.682  1.00  0.00    -0.347 OA
BRANCH  19  20
HETATM   20  C13 UNL     1      35.020  19.624  51.311  1.00  0.00     0.214 C 
BRANCH  20  21
HETATM   21  C14 UNL     1      35.717  19.033  52.481  1.00  0.00    -0.034 A 
HETATM   22  C15 UNL     1      36.915  18.355  52.397  1.00  0.00     0.009 A 
HETATM   23  C16 UNL     1      37.452  17.855  53.565  1.00  0.00     0.001 A 
HETATM   24  C17 UNL     1      36.838  18.009  54.804  1.00  0.00     0.000 A 
HETATM   25  C18 UNL     1      35.644  18.688  54.873  1.00  0.00     0.001 A 
HETATM   26  C19 UNL     1      35.090  19.196  53.717  1.00  0.00     0.009 A 
ENDBRANCH  20  21
ENDBRANCH  19  20
ENDBRANCH   8  19
TORSDOF 6
ENDMDL
MODEL 3
REMARK VINA RESULT: -9.447173302      3.500      5.838
REMARK  6 active torsions:
REMARK  status: ('A' for Active; 'I' for Inactive)
REMARK    1  A    between atoms: C4_4  and  C5_5 
REMARK    2  A    between atoms: C5_5  and  C6_6 
REMARK    3  A    between atoms: C6_6  and  C7_7 
REMARK    4  A    between atoms: C12_14  and  O1_15 
REMARK    5  A    between atoms: O1_15  and  C13_16 
REMARK    6  A    between atoms: C13_16  and  C14_17 
ROOT
HETATM    1  C7  UNL     1      30.473  20.863  48.296  1.00  0.00    -0.030 A 
HETATM    2  C8  UNL     1      29.357  20.069  48.096  1.00  0.00     0.096 A 
HETATM    3  N1  UNL     1      29.324  19.110  49.014  1.00  0.00    -0.365 N 
ATOM      4  H1  UNL     1      28.614  18.384  49.103  1.00  0.00     0.165 HD
HETATM    5  C9  UNL     1      30.415  19.273  49.815  1.00  0.00     0.043 A 
HETATM    6  C10 UNL     1      30.813  18.533  50.899  1.00  0.00     0.033 A 
HETATM    7  C11 UNL     1      31.975  18.930  51.535  1.00  0.00     0.039 A 
HETATM    8  C12 UNL     1      32.723  20.009  51.127  1.00  0.00     0.070 A 
HETATM    9  C20 UNL     1      32.311  20.752  50.030  1.00  0.00     0.051 A 
HETATM   10  C21 UNL     1      31.152  20.359  49.395  1.00  0.00     0.001 A 
ENDROOT
BRANCH   1  11
HETATM   11  C6  UNL     1      30.836  22.017  47.476  1.00  0.00     0.045 C 
BRANCH  11  12
HETATM   12  C5  UNL     1      31.808  21.723  46.361  1.00  0.00     0.043 C 
BRANCH  12  13
HETATM   13  C4  UNL     1      31.092  21.309  45.127  1.00  0.00    -0.058 A 
HETATM   14  C3  UNL     1      31.078  20.000  44.673  1.00  0.00     0.007 A 
HETATM   15  C2  UNL     1      30.395  19.676  43.521  1.00  0.00     0.001 A 
HETATM   16  C1  UNL     1      29.716  20.640  42.801  1.00  0.00     0.000 A 
HETATM   17  C23 UNL     1      29.736  21.934  43.257  1.00  0.00     0.001 A 
HETATM   18  C22 UNL     1      30.413  22.264  44.403  1.00  0.00     0.007 A 
ENDBRANCH  12  13
ENDBRANCH  11  12
ENDBRANCH   1  11
BRANCH   8  19
HETATM   19  O1  UNL     1      33.858  20.348  51.796  1.00  0.00    -0.347 OA
BRANCH  19  20
HETATM   20  C13 UNL     1      35.058  19.651  51.537  1.00  0.00     0.214 C 
BRANCH  20  21
HETATM   21  C14 UNL     1      35.552  18.931  52.738  1.00  0.00    -0.034 A 
HETATM   22  C15 UNL     1      34.836  18.820  53.911  1.00  0.00     0.009 A 
HETATM   23  C16 UNL     1      35.415  18.123  54.952  1.00  0.00     0.001 A 
HETATM   24  C17 UNL     1      36.675  17.539  54.860  1.00  0.00     0.000 A 
HETATM   25  C18 UNL     1      37.378  17.659  53.683  1.00  0.00     0.001 A 
HETATM   26  C19 UNL     1      36.816  18.351  52.630  1.00  0.00     0.009 A 
ENDBRANCH  20  21
ENDBRANCH  19  20
ENDBRANCH   8  19
TORSDOF 6
ENDMDL
MODEL 4
REMARK VINA RESULT: -9.215568731      1.372      4.486
REMARK  6 active torsions:
REMARK  status: ('A' for Active; 'I' for Inactive)
REMARK    1  A    between atoms: C4_4  and  C5_5 
REMARK    2  A    between atoms: C5_5  and  C6_6 
REMARK    3  A    between atoms: C6_6  and  C7_7 
REMARK    4  A    between atoms: C12_14  and  O1_15 
REMARK    5  A    between atoms: O1_15  and  C13_16 
REMARK    6  A    between atoms: C13_16  and  C14_17 
ROOT
HETATM    1  C7  UNL     1      31.748  18.231  44.908  1.00  0.00    -0.030 A 
HETATM    2  C8  UNL     1      32.718  17.758  44.042  1.00  0.00     0.096 A 
HETATM    3  N1  UNL     1      32.659  18.433  42.899  1.00  0.00    -0.365 N 
ATOM      4  H1  UNL     1      33.256  18.294  42.084  1.00  0.00     0.165 HD
HETATM    5  C9  UNL     1      31.653  19.346  43.015  1.00  0.00     0.043 A 
HETATM    6  C10 UNL     1      31.211  20.269  42.102  1.00  0.00     0.033 A 
HETATM    7  C11 UNL     1      30.160  21.080  42.491  1.00  0.00     0.039 A 
HETATM    8  C12 UNL     1      29.561  20.992  43.725  1.00  0.00     0.070 A 
HETATM    9  C20 UNL     1      30.017  20.055  44.642  1.00  0.00     0.051 A 
HETATM   10  C21 UNL     1      31.065  19.246  44.257  1.00  0.00     0.001 A 
ENDROOT
BRANCH   1  11
HETATM   11  C6  UNL     1      31.517  17.724  46.260  1.00  0.00     0.045 C 
BRANCH  11  12
HETATM   12  C5  UNL     1      32.404  18.324  47.322  1.00  0.00     0.043 C 
BRANCH  12  13
HETATM   13  C4  UNL     1      31.703  18.380  48.631  1.00  0.00    -0.058 A 
HETATM   14  C3  UNL     1      32.354  18.678  49.817  1.00  0.00     0.007 A 
HETATM   15  C2  UNL     1      31.651  18.717  51.001  1.00  0.00     0.001 A 
HETATM   16  C1  UNL     1      30.294  18.462  51.030  1.00  0.00     0.000 A 
HETATM   17  C23 UNL     1      29.656  18.168  49.852  1.00  0.00     0.001 A 
HETATM   18  C22 UNL     1      30.350  18.127  48.669  1.00  0.00     0.007 A 
ENDBRANCH  12  13
ENDBRANCH  11  12
ENDBRANCH   1  11
BRANCH   8  19
HETATM   19  O1  UNL     1      28.531  21.819  44.047  1.00  0.00    -0.347 OA
BRANCH  19  20
HETATM   20  C13 UNL     1      28.757  22.924  44.896  1.00  0.00     0.214 C 
BRANCH  20  21
HETATM   21  C14 UNL     1      29.576  22.557  46.078  1.00  0.00    -0.034 A 
HETATM   22  C15 UNL     1      30.912  22.871  46.211  1.00  0.00     0.009 A 
HETATM   23  C16 UNL     1      31.554  22.467  47.364  1.00  0.00     0.001 A 
HETATM   24  C17 UNL     1      30.911  21.766  48.379  1.00  0.00     0.000 A 
HETATM   25  C18 UNL     1      29.578  21.459  48.232  1.00  0.00     0.001 A 
HETATM   26  C19 UNL     1      28.917  21.855  47.088  1.00  0.00     0.009 A 
ENDBRANCH  20  21
ENDBRANCH  19  20
ENDBRANCH   8  19
TORSDOF 6
ENDMDL
MODEL 5
REMARK VINA RESULT: -9.170530378      3.672      5.914
REMARK  6 active torsions:
REMARK  status: ('A' for Active; 'I' for Inactive)
REMARK    1  A    between atoms: C4_4  and  C5_5 
REMARK    2  A    between atoms: C5_5  and  C6_6 
REMARK    3  A    between atoms: C6_6  and  C7_7 
REMARK    4  A    between atoms: C12_14  and  O1_15 
REMARK    5  A    between atoms: O1_15  and  C13_16 
REMARK    6  A    between atoms: C13_16  and  C14_17 
ROOT
HETATM    1  C7  UNL     1      31.793  18.883  47.912  1.00  0.00    -0.030 A 
HETATM    2  C8  UNL     1      30.580  18.216  47.899  1.00  0.00     0.096 A 
HETATM    3  N1  UNL     1      30.168  18.018  49.146  1.00  0.00    -0.365 N 
ATOM      4  H1  UNL     1      29.307  17.552  49.430  1.00  0.00     0.165 HD
HETATM    5  C9  UNL     1      31.107  18.554  49.976  1.00  0.00     0.043 A 
HETATM    6  C10 UNL     1      31.129  18.598  51.347  1.00  0.00     0.033 A 
HETATM    7  C11 UNL     1      32.220  19.211  51.936  1.00  0.00     0.039 A 
HETATM    8  C12 UNL     1      33.252  19.761  51.214  1.00  0.00     0.070 A 
HETATM    9  C20 UNL     1      33.221  19.711  49.828  1.00  0.00     0.051 A 
HETATM   10  C21 UNL     1      32.134  19.101  49.238  1.00  0.00     0.001 A 
ENDROOT
BRANCH   1  11
HETATM   11  C6  UNL     1      32.547  19.269  46.721  1.00  0.00     0.045 C 
BRANCH  11  12
HETATM   12  C5  UNL     1      31.705  19.580  45.510  1.00  0.00     0.043 C 
BRANCH  12  13
HETATM   13  C4  UNL     1      31.384  21.029  45.442  1.00  0.00    -0.058 A 
HETATM   14  C3  UNL     1      31.796  21.932  46.409  1.00  0.00     0.007 A 
HETATM   15  C2  UNL     1      31.470  23.266  46.293  1.00  0.00     0.001 A 
HETATM   16  C1  UNL     1      30.732  23.726  45.220  1.00  0.00     0.000 A 
HETATM   17  C23 UNL     1      30.327  22.826  44.267  1.00  0.00     0.001 A 
HETATM   18  C22 UNL     1      30.649  21.497  44.376  1.00  0.00     0.007 A 
ENDBRANCH  12  13
ENDBRANCH  11  12
ENDBRANCH   1  11
BRANCH   8  19
HETATM   19  O1  UNL     1      34.298  20.350  51.854  1.00  0.00    -0.347 OA
BRANCH  19  20
HETATM   20  C13 UNL     1      35.589  19.789  51.752  1.00  0.00     0.214 C 
BRANCH  20  21
HETATM   21  C14 UNL     1      35.939  18.981  52.947  1.00  0.00    -0.034 A 
HETATM   22  C15 UNL     1      35.195  18.969  54.108  1.00  0.00     0.009 A 
HETATM   23  C16 UNL     1      35.636  18.173  55.144  1.00  0.00     0.001 A 
HETATM   24  C17 UNL     1      36.786  17.394  55.060  1.00  0.00     0.000 A 
HETATM   25  C18 UNL     1      37.519  17.416  53.896  1.00  0.00     0.001 A 
HETATM   26  C19 UNL     1      37.094  18.205  52.848  1.00  0.00     0.009 A 
ENDBRANCH  20  21
ENDBRANCH  19  20
ENDBRANCH   8  19
TORSDOF 6
ENDMDL
