MODEL 1
REMARK VINA RESULT: -11.062217564      0.000      0.000
REMARK  6 active torsions:
REMARK  status: ('A' for Active; 'I' for Inactive)
REMARK    1  A    between atoms: C4_4  and  C5_5 
REMARK    2  A    between atoms: C9_9  and  C10_10 
REMARK    3  A    between atoms: C10_10  and  C11_11 
REMARK    4  A    between atoms: C11_11  and  C12_12 
REMARK    5  A    between atoms: C12_12  and  C13_13 
REMARK    6  A    between atoms: C15_17  and  C16_18 
ROOT
HETATM    1  C11 UNL     1      33.176  19.561  51.658  1.00  0.00     0.011 C 
ENDROOT
BRANCH   1   2
HETATM    2  C10 UNL     1      33.477  19.226  53.118  1.00  0.00     0.039 C 
BRANCH   2   3
HETATM    3  C9  UNL     1      34.902  18.831  53.276  1.00  0.00    -0.057 A 
HETATM    4  C8  UNL     1      35.681  18.688  52.146  1.00  0.00     0.007 A 
HETATM    5  C7  UNL     1      37.019  18.319  52.266  1.00  0.00     0.001 A 
HETATM    6  C6  UNL     1      37.565  18.097  53.513  1.00  0.00     0.012 A 
HETATM    7  C5  UNL     1      36.784  18.240  54.636  1.00  0.00    -0.025 A 
HETATM    8  C22 UNL     1      35.440  18.610  54.532  1.00  0.00     0.019 A 
BRANCH   7   9
HETATM    9  C4  UNL     1      37.394  17.998  55.929  1.00  0.00    -0.026 A 
HETATM   10  C3  UNL     1      37.797  19.076  56.704  1.00  0.00     0.012 A 
HETATM   11  C2  UNL     1      38.385  18.902  57.945  1.00  0.00     0.001 A 
HETATM   12  C1  UNL     1      38.581  17.629  58.437  1.00  0.00     0.000 A 
HETATM   13  C24 UNL     1      38.191  16.533  57.685  1.00  0.00     0.001 A 
HETATM   14  C23 UNL     1      37.607  16.739  56.450  1.00  0.00     0.012 A 
ENDBRANCH   7   9
ENDBRANCH   2   3
ENDBRANCH   1   2
BRANCH   1  15
HETATM   15  C12 UNL     1      32.228  18.496  51.169  1.00  0.00     0.059 C 
BRANCH  15  16
HETATM   16  C13 UNL     1      31.207  19.020  50.228  1.00  0.00     0.026 A 
HETATM   17  C14 UNL     1      29.902  18.585  50.131  1.00  0.00     0.114 A 
HETATM   18  N1  UNL     1      29.308  19.315  49.159  1.00  0.00    -0.350 N 
HETATM   19  C15 UNL     1      30.182  20.189  48.642  1.00  0.00     0.115 A 
ATOM     20  H1  UNL     1      28.337  19.215  48.864  1.00  0.00     0.166 HD
HETATM   21  N2  UNL     1      31.335  19.997  49.304  1.00  0.00    -0.344 N 
ATOM     22  H2  UNL     1      32.194  20.519  49.131  1.00  0.00     0.167 HD
BRANCH  19  23
HETATM   23  C16 UNL     1      29.895  21.145  47.568  1.00  0.00     0.008 A 
HETATM   24  C17 UNL     1      28.633  21.291  47.054  1.00  0.00     0.015 A 
HETATM   25  C18 UNL     1      28.333  22.185  46.038  1.00  0.00     0.001 A 
HETATM   26  C19 UNL     1      29.325  22.979  45.502  1.00  0.00     0.000 A 
HETATM   27  C20 UNL     1      30.596  22.836  46.018  1.00  0.00     0.001 A 
HETATM   28  C21 UNL     1      30.899  21.931  47.042  1.00  0.00     0.015 A 
ENDBRANCH  19  23
ENDBRANCH  15  16
ENDBRANCH   1  15
TORSDOF 6
ENDMDL
MODEL 2
REMARK VINA RESULT: -11.057303194      0.043      1.312
REMARK  6 active torsions:
REMARK  status: ('A' for Active; 'I' for Inactive)
REMARK    1  A    between atoms: C4_4  and  C5_5 
REMARK    2  A    between atoms: C9_9  and  C10_10 
REMARK    3  A    between atoms: C10_10  and  C11_11 
REMARK    4  A    between atoms: C11_11  and  C12_12 
REMARK    5  A    between atoms: C12_12  and  C13_13 
REMARK    6  A    between atoms: C15_17  and  C16_18 
ROOT
HETATM    1  C11 UNL     1      33.181  19.542  51.639  1.00  0.00     0.011 C 
ENDROOT
BRANCH   1   2
HETATM    2  C10 UNL     1      33.477  19.231  53.105  1.00  0.00     0.039 C 
BRANCH   2   3
HETATM    3  C9  UNL     1      34.897  18.825  53.274  1.00  0.00    -0.057 A 
HETATM    4  C8  UNL     1      35.668  18.622  52.147  1.00  0.00     0.007 A 
HETATM    5  C7  UNL     1      37.002  18.241  52.277  1.00  0.00     0.001 A 
HETATM    6  C6  UNL     1      37.552  18.068  53.529  1.00  0.00     0.012 A 
HETATM    7  C5  UNL     1      36.779  18.270  54.648  1.00  0.00    -0.025 A 
HETATM    8  C22 UNL     1      35.440  18.653  54.535  1.00  0.00     0.019 A 
BRANCH   7   9
HETATM    9  C4  UNL     1      37.393  18.077  55.948  1.00  0.00    -0.026 A 
HETATM   10  C3  UNL     1      37.584  16.789  56.426  1.00  0.00     0.012 A 
HETATM   11  C2  UNL     1      38.165  16.547  57.658  1.00  0.00     0.001 A 
HETATM   12  C1  UNL     1      38.570  17.606  58.444  1.00  0.00     0.000 A 
HETATM   13  C24 UNL     1      38.391  18.904  57.994  1.00  0.00     0.001 A 
HETATM   14  C23 UNL     1      37.808  19.113  56.759  1.00  0.00     0.012 A 
ENDBRANCH   7   9
ENDBRANCH   2   3
ENDBRANCH   1   2
BRANCH   1  15
HETATM   15  C12 UNL     1      32.211  18.487  51.172  1.00  0.00     0.059 C 
BRANCH  15  16
HETATM   16  C13 UNL     1      31.194  19.016  50.228  1.00  0.00     0.026 A 
HETATM   17  C14 UNL     1      29.888  18.587  50.128  1.00  0.00     0.114 A 
HETATM   18  N1  UNL     1      29.300  19.319  49.154  1.00  0.00    -0.350 N 
HETATM   19  C15 UNL     1      30.179  20.189  48.638  1.00  0.00     0.115 A 
ATOM     20  H1  UNL     1      28.330  19.223  48.855  1.00  0.00     0.166 HD
HETATM   21  N2  UNL     1      31.329  19.992  49.304  1.00  0.00    -0.344 N 
ATOM     22  H2  UNL     1      32.191  20.510  49.133  1.00  0.00     0.167 HD
BRANCH  19  23
HETATM   23  C16 UNL     1      29.900  21.146  47.564  1.00  0.00     0.008 A 
HETATM   24  C17 UNL     1      30.884  21.940  47.035  1.00  0.00     0.015 A 
HETATM   25  C18 UNL     1      30.650  22.854  46.020  1.00  0.00     0.001 A 
HETATM   26  C19 UNL     1      29.382  22.993  45.496  1.00  0.00     0.000 A 
HETATM   27  C20 UNL     1      28.389  22.195  46.025  1.00  0.00     0.001 A 
HETATM   28  C21 UNL     1      28.626  21.273  47.051  1.00  0.00     0.015 A 
ENDBRANCH  19  23
ENDBRANCH  15  16
ENDBRANCH   1  15
TORSDOF 6
ENDMDL
MODEL 3
REMARK VINA RESULT: -10.951800204      0.778      1.089
REMARK  6 active torsions:
REMARK  status: ('A' for Active; 'I' for Inactive)
REMARK    1  A    between atoms: C4_4  and  C5_5 
REMARK    2  A    between atoms: C9_9  and  C10_10 
REMARK    3  A    between atoms: C10_10  and  C11_11 
REMARK    4  A    between atoms: C11_11  and  C12_12 
REMARK    5  A    between atoms: C12_12  and  C13_13 
REMARK    6  A    between atoms: C15_17  and  C16_18 
ROOT
HETATM    1  C11 UNL     1      33.280  19.944  51.882  1.00  0.00     0.011 C 
ENDROOT
BRANCH   1   2
HETATM    2  C10 UNL     1      33.488  19.222  53.212  1.00  0.00     0.039 C 
BRANCH   2   3
HETATM    3  C9  UNL     1      34.907  18.805  53.361  1.00  0.00    -0.057 A 
HETATM    4  C8  UNL     1      35.673  18.637  52.225  1.00  0.00     0.007 A 
HETATM    5  C7  UNL     1      37.005  18.247  52.336  1.00  0.00     0.001 A 
HETATM    6  C6  UNL     1      37.560  18.029  53.579  1.00  0.00     0.012 A 
HETATM    7  C5  UNL     1      36.792  18.196  54.708  1.00  0.00    -0.025 A 
HETATM    8  C22 UNL     1      35.454  18.587  54.613  1.00  0.00     0.019 A 
BRANCH   7   9
HETATM    9  C4  UNL     1      37.411  17.957  55.997  1.00  0.00    -0.026 A 
HETATM   10  C3  UNL     1      37.813  19.037  56.771  1.00  0.00     0.012 A 
HETATM   11  C2  UNL     1      38.409  18.865  58.008  1.00  0.00     0.001 A 
HETATM   12  C1  UNL     1      38.615  17.592  58.499  1.00  0.00     0.000 A 
HETATM   13  C24 UNL     1      38.226  16.495  57.749  1.00  0.00     0.001 A 
HETATM   14  C23 UNL     1      37.634  16.698  56.516  1.00  0.00     0.012 A 
ENDBRANCH   7   9
ENDBRANCH   2   3
ENDBRANCH   1   2
BRANCH   1  15
HETATM   15  C12 UNL     1      32.293  19.114  51.102  1.00  0.00     0.059 C 
BRANCH  15  16
HETATM   16  C13 UNL     1      32.047  19.642  49.737  1.00  0.00     0.026 A 
HETATM   17  C14 UNL     1      32.874  19.471  48.647  1.00  0.00     0.114 A 
HETATM   18  N1  UNL     1      32.292  20.103  47.601  1.00  0.00    -0.350 N 
HETATM   19  C15 UNL     1      31.138  20.663  47.986  1.00  0.00     0.115 A 
ATOM     20  H1  UNL     1      32.677  20.147  46.658  1.00  0.00     0.166 HD
HETATM   21  N2  UNL     1      31.003  20.373  49.291  1.00  0.00    -0.344 N 
ATOM     22  H2  UNL     1      30.215  20.667  49.869  1.00  0.00     0.167 HD
BRANCH  19  23
HETATM   23  C16 UNL     1      30.235  21.431  47.124  1.00  0.00     0.008 A 
HETATM   24  C17 UNL     1      28.882  21.208  47.122  1.00  0.00     0.015 A 
HETATM   25  C18 UNL     1      28.004  21.917  46.317  1.00  0.00     0.001 A 
HETATM   26  C19 UNL     1      28.481  22.898  45.472  1.00  0.00     0.000 A 
HETATM   27  C20 UNL     1      29.842  23.126  45.473  1.00  0.00     0.001 A 
HETATM   28  C21 UNL     1      30.727  22.408  46.285  1.00  0.00     0.015 A 
ENDBRANCH  19  23
ENDBRANCH  15  16
ENDBRANCH   1  15
TORSDOF 6
ENDMDL
MODEL 4
REMARK VINA RESULT: -10.944508973      2.209     10.913
REMARK  6 active torsions:
REMARK  status: ('A' for Active; 'I' for Inactive)
REMARK    1  A    between atoms: C4_4  and  C5_5 
REMARK    2  A    between atoms: C9_9  and  C10_10 
REMARK    3  A    between atoms: C10_10  and  C11_11 
REMARK    4  A    between atoms: C11_11  and  C12_12 
REMARK    5  A    between atoms: C12_12  and  C13_13 
REMARK    6  A    between atoms: C15_17  and  C16_18 
ROOT
HETATM    1  C11 UNL     1      33.382  19.083  52.535  1.00  0.00     0.011 C 
ENDROOT
BRANCH   1   2
HETATM    2  C10 UNL     1      33.265  20.130  51.430  1.00  0.00     0.039 C 
BRANCH   2   3
HETATM    3  C9  UNL     1      32.050  19.885  50.609  1.00  0.00    -0.057 A 
HETATM    4  C8  UNL     1      31.243  18.808  50.921  1.00  0.00     0.007 A 
HETATM    5  C7  UNL     1      30.099  18.556  50.168  1.00  0.00     0.001 A 
HETATM    6  C6  UNL     1      29.771  19.380  49.112  1.00  0.00     0.012 A 
HETATM    7  C5  UNL     1      30.578  20.450  48.806  1.00  0.00    -0.025 A 
HETATM    8  C22 UNL     1      31.729  20.717  49.551  1.00  0.00     0.019 A 
BRANCH   7   9
HETATM    9  C4  UNL     1      30.199  21.293  47.688  1.00  0.00    -0.026 A 
HETATM   10  C3  UNL     1      28.891  21.264  47.226  1.00  0.00     0.012 A 
HETATM   11  C2  UNL     1      28.476  22.048  46.163  1.00  0.00     0.001 A 
HETATM   12  C1  UNL     1      29.376  22.885  45.537  1.00  0.00     0.000 A 
HETATM   13  C24 UNL     1      30.688  22.934  45.975  1.00  0.00     0.001 A 
HETATM   14  C23 UNL     1      31.073  22.140  47.039  1.00  0.00     0.012 A 
ENDBRANCH   7   9
ENDBRANCH   2   3
ENDBRANCH   1   2
BRANCH   1  15
HETATM   15  C12 UNL     1      34.412  18.088  52.064  1.00  0.00     0.059 C 
BRANCH  15  16
HETATM   16  C13 UNL     1      35.635  18.082  52.905  1.00  0.00     0.026 A 
HETATM   17  C14 UNL     1      36.932  18.157  52.442  1.00  0.00     0.114 A 
HETATM   18  N1  UNL     1      37.745  18.122  53.523  1.00  0.00    -0.350 N 
HETATM   19  C15 UNL     1      37.017  18.028  54.644  1.00  0.00     0.115 A 
ATOM     20  H1  UNL     1      38.764  18.161  53.490  1.00  0.00     0.166 HD
HETATM   21  N2  UNL     1      35.733  18.004  54.251  1.00  0.00    -0.344 N 
ATOM     22  H2  UNL     1      34.936  17.936  54.884  1.00  0.00     0.167 HD
BRANCH  19  23
HETATM   23  C16 UNL     1      37.555  17.964  56.006  1.00  0.00     0.008 A 
HETATM   24  C17 UNL     1      37.822  16.767  56.618  1.00  0.00     0.015 A 
HETATM   25  C18 UNL     1      38.329  16.676  57.904  1.00  0.00     0.001 A 
HETATM   26  C19 UNL     1      38.590  17.822  58.626  1.00  0.00     0.000 A 
HETATM   27  C20 UNL     1      38.323  19.029  58.013  1.00  0.00     0.001 A 
HETATM   28  C21 UNL     1      37.810  19.120  56.714  1.00  0.00     0.015 A 
ENDBRANCH  19  23
ENDBRANCH  15  16
ENDBRANCH   1  15
TORSDOF 6
ENDMDL
MODEL 5
REMARK VINA RESULT: -10.907970744      2.187     10.911
REMARK  6 active torsions:
REMARK  status: ('A' for Active; 'I' for Inactive)
REMARK    1  A    between atoms: C4_4  and  C5_5 
REMARK    2  A    between atoms: C9_9  and  C10_10 
REMARK    3  A    between atoms: C10_10  and  C11_11 
REMARK    4  A    between atoms: C11_11  and  C12_12 
REMARK    5  A    between atoms: C12_12  and  C13_13 
REMARK    6  A    between atoms: C15_17  and  C16_18 
ROOT
HETATM    1  C11 UNL     1      33.303  19.218  52.515  1.00  0.00     0.011 C 
ENDROOT
BRANCH   1   2
HETATM    2  C10 UNL     1      33.245  20.125  51.287  1.00  0.00     0.039 C 
BRANCH   2   3
HETATM    3  C9  UNL     1      32.002  19.870  50.512  1.00  0.00    -0.057 A 
HETATM    4  C8  UNL     1      31.214  18.790  50.856  1.00  0.00     0.007 A 
HETATM    5  C7  UNL     1      30.044  18.529  50.146  1.00  0.00     0.001 A 
HETATM    6  C6  UNL     1      29.673  19.348  49.101  1.00  0.00     0.012 A 
HETATM    7  C5  UNL     1      30.462  20.422  48.762  1.00  0.00    -0.025 A 
HETATM    8  C22 UNL     1      31.638  20.698  49.464  1.00  0.00     0.019 A 
BRANCH   7   9
HETATM    9  C4  UNL     1      30.038  21.260  47.658  1.00  0.00    -0.026 A 
HETATM   10  C3  UNL     1      30.956  22.108  47.054  1.00  0.00     0.012 A 
HETATM   11  C2  UNL     1      30.605  22.929  45.997  1.00  0.00     0.001 A 
HETATM   12  C1  UNL     1      29.311  22.915  45.519  1.00  0.00     0.000 A 
HETATM   13  C24 UNL     1      28.372  22.080  46.102  1.00  0.00     0.001 A 
HETATM   14  C23 UNL     1      28.752  21.272  47.156  1.00  0.00     0.012 A 
ENDBRANCH   7   9
ENDBRANCH   2   3
ENDBRANCH   1   2
BRANCH   1  15
HETATM   15  C12 UNL     1      34.201  18.065  52.145  1.00  0.00     0.059 C 
BRANCH  15  16
HETATM   16  C13 UNL     1      35.452  18.030  52.943  1.00  0.00     0.026 A 
HETATM   17  C14 UNL     1      36.734  18.034  52.433  1.00  0.00     0.114 A 
HETATM   18  N1  UNL     1      37.583  17.994  53.486  1.00  0.00    -0.350 N 
HETATM   19  C15 UNL     1      36.892  17.965  54.634  1.00  0.00     0.115 A 
ATOM     20  H1  UNL     1      38.600  17.987  53.416  1.00  0.00     0.166 HD
HETATM   21  N2  UNL     1      35.595  17.987  54.286  1.00  0.00    -0.344 N 
ATOM     22  H2  UNL     1      34.819  17.973  54.948  1.00  0.00     0.167 HD
BRANCH  19  23
HETATM   23  C16 UNL     1      37.475  17.918  55.977  1.00  0.00     0.008 A 
HETATM   24  C17 UNL     1      37.794  19.062  56.662  1.00  0.00     0.015 A 
HETATM   25  C18 UNL     1      38.347  19.048  57.933  1.00  0.00     0.001 A 
HETATM   26  C19 UNL     1      38.599  17.847  58.564  1.00  0.00     0.000 A 
HETATM   27  C20 UNL     1      38.279  16.694  57.877  1.00  0.00     0.001 A 
HETATM   28  C21 UNL     1      37.721  16.709  56.593  1.00  0.00     0.015 A 
ENDBRANCH  19  23
ENDBRANCH  15  16
ENDBRANCH   1  15
TORSDOF 6
ENDMDL
