MODEL 1
REMARK VINA RESULT: -4.783132432      0.000      0.000
REMARK  3 active torsions:
REMARK  status: ('A' for Active; 'I' for Inactive)
REMARK    1  A    between atoms: C2_2  and  O1_4 
REMARK    2  A    between atoms: O1_4  and  C4_5 
REMARK    3  A    between atoms: C5_10  and  N3_11 
ROOT
HETATM    1  C4  UNL     1      73.675  41.198  44.103  1.00  0.00     0.253 A 
HETATM    2  N1  UNL     1      74.488  41.632  43.128  1.00  0.00    -0.250 N 
ATOM      3  H1  UNL     1      75.497  41.491  43.103  1.00  0.00     0.191 HD
HETATM    4  N2  UNL     1      73.786  42.273  42.201  1.00  0.00    -0.129 N 
ATOM      5  H2  UNL     1      74.158  42.702  41.354  1.00  0.00     0.205 HD
HETATM    6  C5  UNL     1      72.504  42.254  42.579  1.00  0.00     0.693 A 
HETATM    7  N4  UNL     1      72.440  41.593  43.749  1.00  0.00    -0.153 N 
ATOM      8  H4  UNL     1      71.588  41.419  44.282  1.00  0.00     0.188 HD
ENDROOT
BRANCH   1   9
HETATM    9  O1  UNL     1      73.947  40.493  45.257  1.00  0.00    -0.316 OA
BRANCH   9  10
HETATM   10  C2  UNL     1      73.245  39.306  45.568  1.00  0.00     0.123 C 
HETATM   11  C1  UNL     1      72.947  39.159  47.026  1.00  0.00     0.040 C 
HETATM   12  C3  UNL     1      74.107  38.131  45.110  1.00  0.00     0.040 C 
ENDBRANCH   9  10
ENDBRANCH   1   9
BRANCH   6  13
HETATM   13  N3  UNL     1      71.488  42.766  41.962  1.00  0.00    -0.233 N 
ATOM     14  H32 UNL     1      71.443  42.939  40.958  1.00  0.00     0.174 HD
ATOM     15  H31 UNL     1      70.600  43.068  42.364  1.00  0.00     0.174 HD
ENDBRANCH   6  13
TORSDOF 3
ENDMDL
MODEL 2
REMARK VINA RESULT: -4.743276292      1.560      2.299
REMARK  3 active torsions:
REMARK  status: ('A' for Active; 'I' for Inactive)
REMARK    1  A    between atoms: C2_2  and  O1_4 
REMARK    2  A    between atoms: O1_4  and  C4_5 
REMARK    3  A    between atoms: C5_10  and  N3_11 
ROOT
HETATM    1  C4  UNL     1      73.300  39.704  44.634  1.00  0.00     0.253 A 
HETATM    2  N1  UNL     1      73.517  40.822  45.344  1.00  0.00    -0.250 N 
ATOM      3  H1  UNL     1      73.468  40.887  46.361  1.00  0.00     0.191 HD
HETATM    4  N2  UNL     1      73.805  41.831  44.531  1.00  0.00    -0.129 N 
ATOM      5  H2  UNL     1      74.012  42.789  44.810  1.00  0.00     0.205 HD
HETATM    6  C5  UNL     1      73.774  41.362  43.279  1.00  0.00     0.693 A 
HETATM    7  N4  UNL     1      73.464  40.055  43.346  1.00  0.00    -0.153 N 
ATOM      8  H4  UNL     1      73.367  39.429  42.547  1.00  0.00     0.188 HD
ENDROOT
BRANCH   1   9
HETATM    9  O1  UNL     1      72.975  38.427  45.040  1.00  0.00    -0.316 OA
BRANCH   9  10
HETATM   10  C2  UNL     1      73.585  37.847  46.176  1.00  0.00     0.123 C 
HETATM   11  C1  UNL     1      73.892  36.393  46.006  1.00  0.00     0.040 C 
HETATM   12  C3  UNL     1      72.625  38.024  47.351  1.00  0.00     0.040 C 
ENDBRANCH   9  10
ENDBRANCH   1   9
BRANCH   6  13
HETATM   13  N3  UNL     1      73.997  42.014  42.183  1.00  0.00    -0.233 N 
ATOM     14  H32 UNL     1      73.544  41.823  41.289  1.00  0.00     0.174 HD
ATOM     15  H31 UNL     1      74.638  42.795  42.040  1.00  0.00     0.174 HD
ENDBRANCH   6  13
TORSDOF 3
ENDMDL
MODEL 3
REMARK VINA RESULT: -4.733906709      1.670      2.393
REMARK  3 active torsions:
REMARK  status: ('A' for Active; 'I' for Inactive)
REMARK    1  A    between atoms: C2_2  and  O1_4 
REMARK    2  A    between atoms: O1_4  and  C4_5 
REMARK    3  A    between atoms: C5_10  and  N3_11 
ROOT
HETATM    1  C4  UNL     1      73.280  39.268  44.478  1.00  0.00     0.253 A 
HETATM    2  N1  UNL     1      72.619  40.327  44.970  1.00  0.00    -0.250 N 
ATOM      3  H1  UNL     1      72.018  40.310  45.794  1.00  0.00     0.191 HD
HETATM    4  N2  UNL     1      72.860  41.400  44.227  1.00  0.00    -0.129 N 
ATOM      5  H2  UNL     1      72.483  42.335  44.379  1.00  0.00     0.205 HD
HETATM    6  C5  UNL     1      73.687  41.033  43.242  1.00  0.00     0.693 A 
HETATM    7  N4  UNL     1      73.943  39.722  43.400  1.00  0.00    -0.153 N 
ATOM      8  H4  UNL     1      74.545  39.161  42.797  1.00  0.00     0.188 HD
ENDROOT
BRANCH   1   9
HETATM    9  O1  UNL     1      73.334  37.959  44.910  1.00  0.00    -0.316 OA
BRANCH   9  10
HETATM   10  C2  UNL     1      73.623  37.649  46.260  1.00  0.00     0.123 C 
HETATM   11  C1  UNL     1      74.957  38.150  46.710  1.00  0.00     0.040 C 
HETATM   12  C3  UNL     1      73.583  36.128  46.397  1.00  0.00     0.040 C 
ENDBRANCH   9  10
ENDBRANCH   1   9
BRANCH   6  13
HETATM   13  N3  UNL     1      74.172  41.773  42.297  1.00  0.00    -0.233 N 
ATOM     14  H32 UNL     1      73.790  42.673  42.007  1.00  0.00     0.174 HD
ATOM     15  H31 UNL     1      74.984  41.583  41.710  1.00  0.00     0.174 HD
ENDBRANCH   6  13
TORSDOF 3
ENDMDL
MODEL 4
REMARK VINA RESULT: -4.724975233      1.375      1.411
REMARK  3 active torsions:
REMARK  status: ('A' for Active; 'I' for Inactive)
REMARK    1  A    between atoms: C2_2  and  O1_4 
REMARK    2  A    between atoms: O1_4  and  C4_5 
REMARK    3  A    between atoms: C5_10  and  N3_11 
ROOT
HETATM    1  C4  UNL     1      73.755  39.999  44.233  1.00  0.00     0.253 A 
HETATM    2  N1  UNL     1      73.626  39.471  43.007  1.00  0.00    -0.250 N 
ATOM      3  H1  UNL     1      73.803  38.495  42.769  1.00  0.00     0.191 HD
HETATM    4  N2  UNL     1      73.235  40.404  42.147  1.00  0.00    -0.129 N 
ATOM      5  H2  UNL     1      73.061  40.270  41.152  1.00  0.00     0.205 HD
HETATM    6  C5  UNL     1      73.108  41.550  42.824  1.00  0.00     0.693 A 
HETATM    7  N4  UNL     1      73.429  41.297  44.106  1.00  0.00    -0.153 N 
ATOM      8  H4  UNL     1      73.426  41.982  44.861  1.00  0.00     0.188 HD
ENDROOT
BRANCH   1   9
HETATM    9  O1  UNL     1      74.133  39.423  45.428  1.00  0.00    -0.316 OA
BRANCH   9  10
HETATM   10  C2  UNL     1      73.566  38.201  45.859  1.00  0.00     0.123 C 
HETATM   11  C1  UNL     1      72.883  38.300  47.185  1.00  0.00     0.040 C 
HETATM   12  C3  UNL     1      74.698  37.179  45.951  1.00  0.00     0.040 C 
ENDBRANCH   9  10
ENDBRANCH   1   9
BRANCH   6  13
HETATM   13  N3  UNL     1      72.747  42.705  42.366  1.00  0.00    -0.233 N 
ATOM     14  H32 UNL     1      73.291  43.563  42.454  1.00  0.00     0.174 HD
ATOM     15  H31 UNL     1      71.891  42.937  41.862  1.00  0.00     0.174 HD
ENDBRANCH   6  13
TORSDOF 3
ENDMDL
MODEL 5
REMARK VINA RESULT: -4.537724357      1.873      2.487
REMARK  3 active torsions:
REMARK  status: ('A' for Active; 'I' for Inactive)
REMARK    1  A    between atoms: C2_2  and  O1_4 
REMARK    2  A    between atoms: O1_4  and  C4_5 
REMARK    3  A    between atoms: C5_10  and  N3_11 
ROOT
HETATM    1  C4  UNL     1      73.154  41.026  44.942  1.00  0.00     0.253 A 
HETATM    2  N1  UNL     1      72.967  39.963  44.144  1.00  0.00    -0.250 N 
ATOM      3  H1  UNL     1      72.523  39.090  44.429  1.00  0.00     0.191 HD
HETATM    4  N2  UNL     1      73.445  40.214  42.931  1.00  0.00    -0.129 N 
ATOM      5  H2  UNL     1      73.430  39.577  42.135  1.00  0.00     0.205 HD
HETATM    6  C5  UNL     1      73.947  41.453  42.943  1.00  0.00     0.693 A 
HETATM    7  N4  UNL     1      73.767  41.948  44.180  1.00  0.00    -0.153 N 
ATOM      8  H4  UNL     1      74.051  42.877  44.491  1.00  0.00     0.188 HD
ENDROOT
BRANCH   1   9
HETATM    9  O1  UNL     1      72.827  41.227  46.267  1.00  0.00    -0.316 OA
BRANCH   9  10
HETATM   10  C2  UNL     1      71.574  40.816  46.778  1.00  0.00     0.123 C 
HETATM   11  C1  UNL     1      70.879  41.879  47.568  1.00  0.00     0.040 C 
HETATM   12  C3  UNL     1      71.822  39.604  47.675  1.00  0.00     0.040 C 
ENDBRANCH   9  10
ENDBRANCH   1   9
BRANCH   6  13
HETATM   13  N3  UNL     1      74.509  42.089  41.966  1.00  0.00    -0.233 N 
ATOM     14  H32 UNL     1      74.756  43.078  41.980  1.00  0.00     0.174 HD
ATOM     15  H31 UNL     1      74.784  41.719  41.055  1.00  0.00     0.174 HD
ENDBRANCH   6  13
TORSDOF 3
ENDMDL
