MODEL 1
REMARK VINA RESULT: -3.818755202      0.000      0.000
REMARK  6 active torsions:
REMARK  status: ('A' for Active; 'I' for Inactive)
REMARK    1  A    between atoms: C2_2  and  N1_3 
REMARK    2  A    between atoms: C2_2  and  C3_7 
REMARK    3  A    between atoms: C4_8  and  N2_9 
REMARK    4  A    between atoms: C5_13  and  C6_14 
REMARK    5  A    between atoms: C6_14  and  N3_15 
REMARK    6  A    between atoms: C6_14  and  N4_19 
ROOT
HETATM    1  C3  UNL     1      73.002  39.862  44.871  1.00  0.00     0.056 A 
HETATM    2  C4  UNL     1      72.516  41.183  45.298  1.00  0.00     0.198 A 
HETATM    3  C5  UNL     1      73.616  41.144  44.314  1.00  0.00     0.082 A 
ENDROOT
BRANCH   3   4
HETATM    4  C6  UNL     1      73.372  41.335  42.839  1.00  0.00     0.384 C 
BRANCH   4   5
HETATM    5  N3  UNL     1      72.220  42.133  42.556  1.00  0.00    -0.050 N 
ATOM      6  H33 UNL     1      71.438  41.865  43.153  1.00  0.00     0.276 HD
ATOM      7  H32 UNL     1      72.355  43.091  42.876  1.00  0.00     0.276 HD
ATOM      8  H31 UNL     1      71.948  42.113  41.573  1.00  0.00     0.276 HD
ENDBRANCH   4   5
BRANCH   4   9
HETATM    9  N4  UNL     1      74.538  41.957  42.233  1.00  0.00    -0.050 N 
ATOM     10  H43 UNL     1      74.292  42.544  41.437  1.00  0.00     0.276 HD
ATOM     11  H42 UNL     1      74.942  42.680  42.828  1.00  0.00     0.276 HD
ATOM     12  H41 UNL     1      75.216  41.236  41.987  1.00  0.00     0.276 HD
ENDBRANCH   4   9
ENDBRANCH   3   4
BRANCH   1  13
HETATM   13  C2  UNL     1      73.950  39.032  45.663  1.00  0.00     0.186 C 
HETATM   14  C1  UNL     1      73.323  38.403  46.882  1.00  0.00     0.040 C 
BRANCH  13  15
HETATM   15  N1  UNL     1      74.466  37.978  44.806  1.00  0.00    -0.075 N 
ATOM     16  H13 UNL     1      75.437  37.747  45.014  1.00  0.00     0.274 HD
ATOM     17  H12 UNL     1      74.056  37.069  45.018  1.00  0.00     0.274 HD
ATOM     18  H11 UNL     1      74.329  38.251  43.833  1.00  0.00     0.274 HD
ENDBRANCH  13  15
ENDBRANCH   1  13
BRANCH   2  19
HETATM   19  N2  UNL     1      72.821  41.704  46.621  1.00  0.00    -0.074 N 
ATOM     20  H23 UNL     1      73.341  42.574  46.505  1.00  0.00     0.274 HD
ATOM     21  H22 UNL     1      71.951  42.034  47.039  1.00  0.00     0.274 HD
ATOM     22  H21 UNL     1      73.307  41.134  47.313  1.00  0.00     0.274 HD
ENDBRANCH   2  19
TORSDOF 6
ENDMDL
MODEL 2
REMARK VINA RESULT: -3.760262020      1.862      2.469
REMARK  6 active torsions:
REMARK  status: ('A' for Active; 'I' for Inactive)
REMARK    1  A    between atoms: C2_2  and  N1_3 
REMARK    2  A    between atoms: C2_2  and  C3_7 
REMARK    3  A    between atoms: C4_8  and  N2_9 
REMARK    4  A    between atoms: C5_13  and  C6_14 
REMARK    5  A    between atoms: C6_14  and  N3_15 
REMARK    6  A    between atoms: C6_14  and  N4_19 
ROOT
HETATM    1  C3  UNL     1      73.741  40.966  45.805  1.00  0.00     0.056 A 
HETATM    2  C4  UNL     1      72.438  40.463  45.345  1.00  0.00     0.198 A 
HETATM    3  C5  UNL     1      73.155  41.406  44.466  1.00  0.00     0.082 A 
ENDROOT
BRANCH   3   4
HETATM    4  C6  UNL     1      73.954  40.937  43.278  1.00  0.00     0.384 C 
BRANCH   4   5
HETATM    5  N3  UNL     1      73.193  40.145  42.362  1.00  0.00    -0.050 N 
ATOM      6  H33 UNL     1      72.194  40.270  42.520  1.00  0.00     0.276 HD
ATOM      7  H32 UNL     1      73.263  40.518  41.416  1.00  0.00     0.276 HD
ATOM      8  H31 UNL     1      73.442  39.156  42.381  1.00  0.00     0.276 HD
ENDBRANCH   4   5
BRANCH   4   9
HETATM    9  N4  UNL     1      74.492  42.089  42.572  1.00  0.00    -0.050 N 
ATOM     10  H43 UNL     1      73.799  42.531  41.969  1.00  0.00     0.276 HD
ATOM     11  H42 UNL     1      74.667  42.876  43.196  1.00  0.00     0.276 HD
ATOM     12  H41 UNL     1      75.329  41.810  42.058  1.00  0.00     0.276 HD
ENDBRANCH   4   9
ENDBRANCH   3   4
BRANCH   1  13
HETATM   13  C2  UNL     1      73.902  42.072  46.787  1.00  0.00     0.186 C 
HETATM   14  C1  UNL     1      73.539  41.680  48.198  1.00  0.00     0.040 C 
BRANCH  13  15
HETATM   15  N1  UNL     1      75.288  42.507  46.766  1.00  0.00    -0.075 N 
ATOM     16  H13 UNL     1      75.540  42.965  45.890  1.00  0.00     0.274 HD
ATOM     17  H12 UNL     1      75.459  43.294  47.392  1.00  0.00     0.274 HD
ATOM     18  H11 UNL     1      75.886  41.707  46.974  1.00  0.00     0.274 HD
ENDBRANCH  13  15
ENDBRANCH   1  13
BRANCH   2  19
HETATM   19  N2  UNL     1      71.198  40.924  45.951  1.00  0.00    -0.074 N 
ATOM     20  H23 UNL     1      70.494  40.993  45.215  1.00  0.00     0.274 HD
ATOM     21  H22 UNL     1      70.827  40.169  46.526  1.00  0.00     0.274 HD
ATOM     22  H21 UNL     1      71.167  41.783  46.499  1.00  0.00     0.274 HD
ENDBRANCH   2  19
TORSDOF 6
ENDMDL
MODEL 3
REMARK VINA RESULT: -3.729741501      7.027      8.573
REMARK  6 active torsions:
REMARK  status: ('A' for Active; 'I' for Inactive)
REMARK    1  A    between atoms: C2_2  and  N1_3 
REMARK    2  A    between atoms: C2_2  and  C3_7 
REMARK    3  A    between atoms: C4_8  and  N2_9 
REMARK    4  A    between atoms: C5_13  and  C6_14 
REMARK    5  A    between atoms: C6_14  and  N3_15 
REMARK    6  A    between atoms: C6_14  and  N4_19 
ROOT
HETATM    1  C3  UNL     1      73.717  32.338  46.231  1.00  0.00     0.056 A 
HETATM    2  C4  UNL     1      74.198  33.676  46.606  1.00  0.00     0.198 A 
HETATM    3  C5  UNL     1      72.750  33.414  46.718  1.00  0.00     0.082 A 
ENDROOT
BRANCH   3   4
HETATM    4  C6  UNL     1      72.101  33.083  48.038  1.00  0.00     0.384 C 
BRANCH   4   5
HETATM    5  N3  UNL     1      72.729  33.723  49.151  1.00  0.00    -0.050 N 
ATOM      6  H33 UNL     1      73.298  34.511  48.843  1.00  0.00     0.276 HD
ATOM      7  H32 UNL     1      72.042  34.223  49.717  1.00  0.00     0.276 HD
ATOM      8  H31 UNL     1      73.277  33.084  49.727  1.00  0.00     0.276 HD
ENDBRANCH   4   5
BRANCH   4   9
HETATM    9  N4  UNL     1      70.700  33.472  47.998  1.00  0.00    -0.050 N 
ATOM     10  H43 UNL     1      70.420  33.812  47.078  1.00  0.00     0.276 HD
ATOM     11  H42 UNL     1      70.075  32.668  48.052  1.00  0.00     0.276 HD
ATOM     12  H41 UNL     1      70.517  34.154  48.734  1.00  0.00     0.276 HD
ENDBRANCH   4   9
ENDBRANCH   3   4
BRANCH   1  13
HETATM   13  C2  UNL     1      73.483  31.905  44.827  1.00  0.00     0.186 C 
HETATM   14  C1  UNL     1      74.754  31.704  44.040  1.00  0.00     0.040 C 
BRANCH  13  15
HETATM   15  N1  UNL     1      72.745  30.654  44.848  1.00  0.00    -0.075 N 
ATOM     16  H13 UNL     1      71.781  30.775  45.159  1.00  0.00     0.274 HD
ATOM     17  H12 UNL     1      72.548  30.302  43.912  1.00  0.00     0.274 HD
ATOM     18  H11 UNL     1      73.257  29.981  45.418  1.00  0.00     0.274 HD
ENDBRANCH  13  15
ENDBRANCH   1  13
BRANCH   2  19
HETATM   19  N2  UNL     1      74.627  34.631  45.595  1.00  0.00    -0.074 N 
ATOM     20  H23 UNL     1      74.522  34.192  44.680  1.00  0.00     0.274 HD
ATOM     21  H22 UNL     1      73.934  35.378  45.551  1.00  0.00     0.274 HD
ATOM     22  H21 UNL     1      75.551  35.061  45.635  1.00  0.00     0.274 HD
ENDBRANCH   2  19
TORSDOF 6
ENDMDL
MODEL 4
REMARK VINA RESULT: -3.686273768      6.755      8.266
REMARK  6 active torsions:
REMARK  status: ('A' for Active; 'I' for Inactive)
REMARK    1  A    between atoms: C2_2  and  N1_3 
REMARK    2  A    between atoms: C2_2  and  C3_7 
REMARK    3  A    between atoms: C4_8  and  N2_9 
REMARK    4  A    between atoms: C5_13  and  C6_14 
REMARK    5  A    between atoms: C6_14  and  N3_15 
REMARK    6  A    between atoms: C6_14  and  N4_19 
ROOT
HETATM    1  C3  UNL     1      73.539  33.643  45.699  1.00  0.00     0.056 A 
HETATM    2  C4  UNL     1      74.928  33.909  45.298  1.00  0.00     0.198 A 
HETATM    3  C5  UNL     1      74.511  32.498  45.424  1.00  0.00     0.082 A 
ENDROOT
BRANCH   3   4
HETATM    4  C6  UNL     1      74.136  31.669  44.223  1.00  0.00     0.384 C 
BRANCH   4   5
HETATM    5  N3  UNL     1      75.267  31.210  43.478  1.00  0.00    -0.050 N 
ATOM      6  H33 UNL     1      75.030  31.094  42.494  1.00  0.00     0.276 HD
ATOM      7  H32 UNL     1      75.970  31.944  43.397  1.00  0.00     0.276 HD
ATOM      8  H31 UNL     1      75.678  30.355  43.855  1.00  0.00     0.276 HD
ENDBRANCH   4   5
BRANCH   4   9
HETATM    9  N4  UNL     1      73.357  30.519  44.655  1.00  0.00    -0.050 N 
ATOM     10  H43 UNL     1      73.205  30.512  45.663  1.00  0.00     0.276 HD
ATOM     11  H42 UNL     1      72.382  30.581  44.361  1.00  0.00     0.276 HD
ATOM     12  H41 UNL     1      73.806  29.664  44.326  1.00  0.00     0.276 HD
ENDBRANCH   4   9
ENDBRANCH   3   4
BRANCH   1  13
HETATM   13  C2  UNL     1      73.057  33.701  47.106  1.00  0.00     0.186 C 
HETATM   14  C1  UNL     1      72.726  35.098  47.570  1.00  0.00     0.040 C 
BRANCH  13  15
HETATM   15  N1  UNL     1      71.865  32.878  47.219  1.00  0.00    -0.075 N 
ATOM     16  H13 UNL     1      72.083  31.885  47.300  1.00  0.00     0.274 HD
ATOM     17  H12 UNL     1      71.395  32.993  48.117  1.00  0.00     0.274 HD
ATOM     18  H11 UNL     1      71.252  33.079  46.429  1.00  0.00     0.274 HD
ENDBRANCH  13  15
ENDBRANCH   1  13
BRANCH   2  19
HETATM   19  N2  UNL     1      75.905  34.404  46.256  1.00  0.00    -0.074 N 
ATOM     20  H23 UNL     1      75.603  34.125  47.189  1.00  0.00     0.274 HD
ATOM     21  H22 UNL     1      76.762  33.863  46.142  1.00  0.00     0.274 HD
ATOM     22  H21 UNL     1      76.158  35.392  46.287  1.00  0.00     0.274 HD
ENDBRANCH   2  19
TORSDOF 6
ENDMDL
MODEL 5
REMARK VINA RESULT: -3.657605465      6.609      8.164
REMARK  6 active torsions:
REMARK  status: ('A' for Active; 'I' for Inactive)
REMARK    1  A    between atoms: C2_2  and  N1_3 
REMARK    2  A    between atoms: C2_2  and  C3_7 
REMARK    3  A    between atoms: C4_8  and  N2_9 
REMARK    4  A    between atoms: C5_13  and  C6_14 
REMARK    5  A    between atoms: C6_14  and  N3_15 
REMARK    6  A    between atoms: C6_14  and  N4_19 
ROOT
HETATM    1  C3  UNL     1      73.106  33.871  45.931  1.00  0.00     0.056 A 
HETATM    2  C4  UNL     1      72.345  32.618  45.810  1.00  0.00     0.198 A 
HETATM    3  C5  UNL     1      72.553  33.164  47.166  1.00  0.00     0.082 A 
ENDROOT
BRANCH   3   4
HETATM    4  C6  UNL     1      71.484  33.951  47.879  1.00  0.00     0.384 C 
BRANCH   4   5
HETATM    5  N3  UNL     1      70.449  33.130  48.426  1.00  0.00    -0.050 N 
ATOM      6  H33 UNL     1      69.869  32.737  47.686  1.00  0.00     0.276 HD
ATOM      7  H32 UNL     1      70.835  32.269  48.813  1.00  0.00     0.276 HD
ATOM      8  H31 UNL     1      69.875  33.613  49.118  1.00  0.00     0.276 HD
ENDBRANCH   4   5
BRANCH   4   9
HETATM    9  N4  UNL     1      72.090  34.724  48.952  1.00  0.00    -0.050 N 
ATOM     10  H43 UNL     1      73.108  34.729  48.897  1.00  0.00     0.276 HD
ATOM     11  H42 UNL     1      71.933  35.726  48.840  1.00  0.00     0.276 HD
ATOM     12  H41 UNL     1      71.752  34.378  49.850  1.00  0.00     0.276 HD
ENDBRANCH   4   9
ENDBRANCH   3   4
BRANCH   1  13
HETATM   13  C2  UNL     1      74.591  33.946  45.891  1.00  0.00     0.186 C 
HETATM   14  C1  UNL     1      75.191  33.326  44.653  1.00  0.00     0.040 C 
BRANCH  13  15
HETATM   15  N1  UNL     1      74.984  35.343  45.950  1.00  0.00    -0.075 N 
ATOM     16  H13 UNL     1      75.457  35.652  45.101  1.00  0.00     0.274 HD
ATOM     17  H12 UNL     1      74.184  35.975  45.904  1.00  0.00     0.274 HD
ATOM     18  H11 UNL     1      75.549  35.489  46.787  1.00  0.00     0.274 HD
ENDBRANCH  13  15
ENDBRANCH   1  13
BRANCH   2  19
HETATM   19  N2  UNL     1      73.008  31.365  45.485  1.00  0.00    -0.074 N 
ATOM     20  H23 UNL     1      73.275  30.913  46.360  1.00  0.00     0.274 HD
ATOM     21  H22 UNL     1      72.306  30.721  45.121  1.00  0.00     0.274 HD
ATOM     22  H21 UNL     1      73.812  31.341  44.858  1.00  0.00     0.274 HD
ENDBRANCH   2  19
TORSDOF 6
ENDMDL
