MODEL 1
REMARK VINA RESULT: -4.381693674      0.000      0.000
REMARK  4 active torsions:
REMARK  status: ('A' for Active; 'I' for Inactive)
REMARK    1  A    between atoms: N1_1  and  C1_5 
REMARK    2  A    between atoms: C1_5  and  N2_6 
REMARK    3  A    between atoms: C1_5  and  C2_10 
REMARK    4  A    between atoms: C3_11  and  C4_12 
ROOT
HETATM    1  C2  UNL     1      73.817  40.115  42.943  1.00  0.00     0.036 C 
HETATM    2  C3  UNL     1      73.685  39.234  43.863  1.00  0.00     0.032 C 
ENDROOT
BRANCH   1   3
HETATM    3  C1  UNL     1      73.695  41.566  42.909  1.00  0.00     0.401 C 
BRANCH   3   4
HETATM    4  N1  UNL     1      74.647  42.187  41.995  1.00  0.00    -0.047 N 
ATOM      5  H13 UNL     1      74.671  43.206  42.033  1.00  0.00     0.277 HD
ATOM      6  H12 UNL     1      75.626  42.052  42.244  1.00  0.00     0.277 HD
ATOM      7  H11 UNL     1      74.379  41.800  41.091  1.00  0.00     0.277 HD
ENDBRANCH   3   4
BRANCH   3   8
HETATM    8  N2  UNL     1      72.379  41.882  42.285  1.00  0.00    -0.047 N 
ATOM      9  H23 UNL     1      72.281  42.843  41.959  1.00  0.00     0.277 HD
ATOM     10  H22 UNL     1      72.224  41.449  41.375  1.00  0.00     0.277 HD
ATOM     11  H21 UNL     1      71.712  41.607  43.007  1.00  0.00     0.277 HD
ENDBRANCH   3   8
ENDBRANCH   1   3
BRANCH   2  12
HETATM   12  C4  UNL     1      73.348  39.481  45.242  1.00  0.00     0.066 A 
HETATM   13  C5  UNL     1      74.230  39.178  46.317  1.00  0.00     0.139 A 
HETATM   14  N3  UNL     1      73.608  39.534  47.425  1.00  0.00    -0.295 N 
HETATM   15  N4  UNL     1      72.429  40.029  47.154  1.00  0.00    -0.243 N 
ATOM     16  H3  UNL     1      73.995  39.436  48.364  1.00  0.00     0.187 HD
HETATM   17  N5  UNL     1      72.262  40.000  45.831  1.00  0.00    -0.285 N 
ATOM     18  H4  UNL     1      71.754  40.377  47.835  1.00  0.00     0.208 HD
ATOM     19  H5  UNL     1      71.429  40.326  45.339  1.00  0.00     0.188 HD
ENDBRANCH   2  12
TORSDOF 4
ENDMDL
MODEL 2
REMARK VINA RESULT: -4.326855738      0.984      1.107
REMARK  4 active torsions:
REMARK  status: ('A' for Active; 'I' for Inactive)
REMARK    1  A    between atoms: N1_1  and  C1_5 
REMARK    2  A    between atoms: C1_5  and  N2_6 
REMARK    3  A    between atoms: C1_5  and  C2_10 
REMARK    4  A    between atoms: C3_11  and  C4_12 
ROOT
HETATM    1  C2  UNL     1      73.803  40.313  43.487  1.00  0.00     0.036 C 
HETATM    2  C3  UNL     1      73.414  39.666  44.522  1.00  0.00     0.032 C 
ENDROOT
BRANCH   1   3
HETATM    3  C1  UNL     1      73.669  41.696  43.051  1.00  0.00     0.401 C 
BRANCH   3   4
HETATM    4  N1  UNL     1      74.653  42.063  42.040  1.00  0.00    -0.047 N 
ATOM      5  H13 UNL     1      74.577  43.021  41.698  1.00  0.00     0.277 HD
ATOM      6  H12 UNL     1      75.608  42.154  42.388  1.00  0.00     0.277 HD
ATOM      7  H11 UNL     1      74.526  41.345  41.327  1.00  0.00     0.277 HD
ENDBRANCH   3   4
BRANCH   3   8
HETATM    8  N2  UNL     1      72.378  41.801  42.313  1.00  0.00    -0.047 N 
ATOM      9  H23 UNL     1      72.459  41.724  41.299  1.00  0.00     0.277 HD
ATOM     10  H22 UNL     1      71.756  41.001  42.427  1.00  0.00     0.277 HD
ATOM     11  H21 UNL     1      71.998  42.688  42.643  1.00  0.00     0.277 HD
ENDBRANCH   3   8
ENDBRANCH   1   3
BRANCH   2  12
HETATM   12  C4  UNL     1      72.669  40.199  45.633  1.00  0.00     0.066 A 
HETATM   13  C5  UNL     1      73.059  40.003  46.988  1.00  0.00     0.139 A 
HETATM   14  N3  UNL     1      72.163  40.624  47.731  1.00  0.00    -0.295 N 
HETATM   15  N4  UNL     1      71.254  41.190  46.981  1.00  0.00    -0.243 N 
ATOM     16  H3  UNL     1      72.177  40.659  48.750  1.00  0.00     0.187 HD
HETATM   17  N5  UNL     1      71.552  40.937  45.706  1.00  0.00    -0.285 N 
ATOM     18  H4  UNL     1      70.455  41.731  47.312  1.00  0.00     0.208 HD
ATOM     19  H5  UNL     1      71.010  41.257  44.903  1.00  0.00     0.188 HD
ENDBRANCH   2  12
TORSDOF 4
ENDMDL
MODEL 3
REMARK VINA RESULT: -4.297616471      1.633      2.155
REMARK  4 active torsions:
REMARK  status: ('A' for Active; 'I' for Inactive)
REMARK    1  A    between atoms: N1_1  and  C1_5 
REMARK    2  A    between atoms: C1_5  and  N2_6 
REMARK    3  A    between atoms: C1_5  and  C2_10 
REMARK    4  A    between atoms: C3_11  and  C4_12 
ROOT
HETATM    1  C2  UNL     1      73.438  41.736  44.361  1.00  0.00     0.036 C 
HETATM    2  C3  UNL     1      73.496  41.069  45.453  1.00  0.00     0.032 C 
ENDROOT
BRANCH   1   3
HETATM    3  C1  UNL     1      73.424  41.367  42.952  1.00  0.00     0.401 C 
BRANCH   3   4
HETATM    4  N1  UNL     1      72.286  41.931  42.236  1.00  0.00    -0.047 N 
ATOM      5  H13 UNL     1      72.496  42.768  41.691  1.00  0.00     0.277 HD
ATOM      6  H12 UNL     1      71.960  41.374  41.446  1.00  0.00     0.277 HD
ATOM      7  H11 UNL     1      71.596  42.067  42.975  1.00  0.00     0.277 HD
ENDBRANCH   3   4
BRANCH   3   8
HETATM    8  N2  UNL     1      74.589  42.040  42.309  1.00  0.00    -0.047 N 
ATOM      9  H23 UNL     1      75.310  42.355  42.958  1.00  0.00     0.277 HD
ATOM     10  H22 UNL     1      75.195  41.421  41.773  1.00  0.00     0.277 HD
ATOM     11  H21 UNL     1      74.151  42.785  41.766  1.00  0.00     0.277 HD
ENDBRANCH   3   8
ENDBRANCH   1   3
BRANCH   2  12
HETATM   12  C4  UNL     1      73.566  39.636  45.577  1.00  0.00     0.066 A 
HETATM   13  C5  UNL     1      72.933  38.921  46.633  1.00  0.00     0.139 A 
HETATM   14  N3  UNL     1      73.198  37.644  46.435  1.00  0.00    -0.295 N 
HETATM   15  N4  UNL     1      73.930  37.486  45.363  1.00  0.00    -0.243 N 
ATOM     16  H3  UNL     1      72.876  36.885  47.035  1.00  0.00     0.187 HD
HETATM   17  N5  UNL     1      74.159  38.690  44.836  1.00  0.00    -0.285 N 
ATOM     18  H4  UNL     1      74.268  36.597  44.994  1.00  0.00     0.208 HD
ATOM     19  H5  UNL     1      74.706  38.865  43.993  1.00  0.00     0.188 HD
ENDBRANCH   2  12
TORSDOF 4
ENDMDL
MODEL 4
REMARK VINA RESULT: -4.296414621      0.648      1.170
REMARK  4 active torsions:
REMARK  status: ('A' for Active; 'I' for Inactive)
REMARK    1  A    between atoms: N1_1  and  C1_5 
REMARK    2  A    between atoms: C1_5  and  N2_6 
REMARK    3  A    between atoms: C1_5  and  C2_10 
REMARK    4  A    between atoms: C3_11  and  C4_12 
ROOT
HETATM    1  C2  UNL     1      73.746  40.070  43.003  1.00  0.00     0.036 C 
HETATM    2  C3  UNL     1      73.764  39.174  43.918  1.00  0.00     0.032 C 
ENDROOT
BRANCH   1   3
HETATM    3  C1  UNL     1      73.651  41.523  43.015  1.00  0.00     0.401 C 
BRANCH   3   4
HETATM    4  N1  UNL     1      74.663  42.158  42.180  1.00  0.00    -0.047 N 
ATOM      5  H13 UNL     1      75.435  41.550  41.907  1.00  0.00     0.277 HD
ATOM      6  H12 UNL     1      74.359  42.371  41.230  1.00  0.00     0.277 HD
ATOM      7  H11 UNL     1      74.936  42.971  42.732  1.00  0.00     0.277 HD
ENDBRANCH   3   4
BRANCH   3   8
HETATM    8  N2  UNL     1      72.378  41.887  42.329  1.00  0.00    -0.047 N 
ATOM      9  H23 UNL     1      72.461  42.640  41.647  1.00  0.00     0.277 HD
ATOM     10  H22 UNL     1      72.035  41.188  41.670  1.00  0.00     0.277 HD
ATOM     11  H21 UNL     1      71.748  42.084  43.107  1.00  0.00     0.277 HD
ENDBRANCH   3   8
ENDBRANCH   1   3
BRANCH   2  12
HETATM   12  C4  UNL     1      73.689  39.400  45.339  1.00  0.00     0.066 A 
HETATM   13  C5  UNL     1      72.515  39.884  45.981  1.00  0.00     0.139 A 
HETATM   14  N3  UNL     1      72.798  39.967  47.268  1.00  0.00    -0.295 N 
HETATM   15  N4  UNL     1      74.027  39.584  47.495  1.00  0.00    -0.243 N 
ATOM     16  H3  UNL     1      72.146  40.285  47.985  1.00  0.00     0.187 HD
HETATM   17  N5  UNL     1      74.576  39.239  46.330  1.00  0.00    -0.285 N 
ATOM     18  H4  UNL     1      74.486  39.554  48.406  1.00  0.00     0.208 HD
ATOM     19  H5  UNL     1      75.532  38.902  46.211  1.00  0.00     0.188 HD
ENDBRANCH   2  12
TORSDOF 4
ENDMDL
MODEL 5
REMARK VINA RESULT: -4.209813986      1.930      4.414
REMARK  4 active torsions:
REMARK  status: ('A' for Active; 'I' for Inactive)
REMARK    1  A    between atoms: N1_1  and  C1_5 
REMARK    2  A    between atoms: C1_5  and  N2_6 
REMARK    3  A    between atoms: C1_5  and  C2_10 
REMARK    4  A    between atoms: C3_11  and  C4_12 
ROOT
HETATM    1  C2  UNL     1      72.913  41.393  46.709  1.00  0.00     0.036 C 
HETATM    2  C3  UNL     1      73.748  41.462  45.740  1.00  0.00     0.032 C 
ENDROOT
BRANCH   1   3
HETATM    3  C1  UNL     1      71.513  41.006  46.810  1.00  0.00     0.401 C 
BRANCH   3   4
HETATM    4  N1  UNL     1      71.307  39.868  47.698  1.00  0.00    -0.047 N 
ATOM      5  H13 UNL     1      70.356  39.770  48.053  1.00  0.00     0.277 HD
ATOM      6  H12 UNL     1      71.340  38.958  47.239  1.00  0.00     0.277 HD
ATOM      7  H11 UNL     1      72.017  40.010  48.416  1.00  0.00     0.277 HD
ENDBRANCH   3   4
BRANCH   3   8
HETATM    8  N2  UNL     1      70.801  42.111  47.513  1.00  0.00    -0.047 N 
ATOM      9  H23 UNL     1      70.178  42.661  46.922  1.00  0.00     0.277 HD
ATOM     10  H22 UNL     1      70.079  41.805  48.166  1.00  0.00     0.277 HD
ATOM     11  H21 UNL     1      71.563  42.640  47.937  1.00  0.00     0.277 HD
ENDBRANCH   3   8
ENDBRANCH   1   3
BRANCH   2  12
HETATM   12  C4  UNL     1      73.486  41.139  44.360  1.00  0.00     0.066 A 
HETATM   13  C5  UNL     1      73.678  39.835  43.824  1.00  0.00     0.139 A 
HETATM   14  N3  UNL     1      73.340  39.899  42.550  1.00  0.00    -0.295 N 
HETATM   15  N4  UNL     1      72.956  41.108  42.235  1.00  0.00    -0.243 N 
ATOM     16  H3  UNL     1      73.375  39.113  41.900  1.00  0.00     0.187 HD
HETATM   17  N5  UNL     1      73.042  41.868  43.327  1.00  0.00    -0.285 N 
ATOM     18  H4  UNL     1      72.645  41.417  41.314  1.00  0.00     0.208 HD
ATOM     19  H5  UNL     1      72.805  42.860  43.370  1.00  0.00     0.188 HD
ENDBRANCH   2  12
TORSDOF 4
ENDMDL
