MODEL 1
REMARK VINA RESULT: -4.690613495      0.000      0.000
REMARK  3 active torsions:
REMARK  status: ('A' for Active; 'I' for Inactive)
REMARK    1  A    between atoms: N1_1  and  C1_4 
REMARK    2  A    between atoms: C2_7  and  N3_8 
REMARK    3  A    between atoms: N3_8  and  N4_10 
ROOT
HETATM    1  C1  UNL     1      73.962  39.143  45.068  1.00  0.00     0.677 A 
HETATM    2  N2  UNL     1      73.629  39.662  43.868  1.00  0.00    -0.176 N 
ATOM      3  H2  UNL     1      73.540  39.041  43.064  1.00  0.00     0.186 HD
HETATM    4  C2  UNL     1      73.414  40.963  43.708  1.00  0.00     0.136 A 
HETATM    5  C3  UNL     1      73.525  41.850  44.775  1.00  0.00     0.068 A 
HETATM    6  C4  UNL     1      73.870  41.320  46.012  1.00  0.00     0.110 A 
HETATM    7  N5  UNL     1      74.068  40.001  46.095  1.00  0.00    -0.202 N 
ATOM      8  H5  UNL     1      74.320  39.617  47.006  1.00  0.00     0.183 HD
ENDROOT
BRANCH   4   9
HETATM    9  N3  UNL     1      73.038  41.563  42.471  1.00  0.00    -0.292 N 
ATOM     10  H3  UNL     1      73.514  41.261  41.621  1.00  0.00     0.188 HD
BRANCH   9  11
HETATM   11  N4  UNL     1      72.048  42.545  42.369  1.00  0.00    -0.344 N 
ATOM     12  H42 UNL     1      71.775  43.028  43.225  1.00  0.00     0.176 HD
ATOM     13  H41 UNL     1      71.597  42.790  41.488  1.00  0.00     0.176 HD
ENDBRANCH   9  11
ENDBRANCH   4   9
BRANCH   1  14
HETATM   14  N1  UNL     1      74.188  37.853  45.188  1.00  0.00    -0.234 N 
ATOM     15  H12 UNL     1      74.832  37.345  44.582  1.00  0.00     0.174 HD
ATOM     16  H11 UNL     1      73.696  37.313  45.900  1.00  0.00     0.174 HD
ENDBRANCH   1  14
TORSDOF 3
ENDMDL
MODEL 2
REMARK VINA RESULT: -4.442805661      7.115      8.116
REMARK  3 active torsions:
REMARK  status: ('A' for Active; 'I' for Inactive)
REMARK    1  A    between atoms: N1_1  and  C1_4 
REMARK    2  A    between atoms: C2_7  and  N3_8 
REMARK    3  A    between atoms: N3_8  and  N4_10 
ROOT
HETATM    1  C1  UNL     1      72.991  32.304  45.472  1.00  0.00     0.677 A 
HETATM    2  N2  UNL     1      72.141  32.575  46.485  1.00  0.00    -0.176 N 
ATOM      3  H2  UNL     1      71.443  31.880  46.749  1.00  0.00     0.186 HD
HETATM    4  C2  UNL     1      72.193  33.726  47.147  1.00  0.00     0.136 A 
HETATM    5  C3  UNL     1      73.127  34.705  46.823  1.00  0.00     0.068 A 
HETATM    6  C4  UNL     1      74.003  34.431  45.779  1.00  0.00     0.110 A 
HETATM    7  N5  UNL     1      73.891  33.250  45.162  1.00  0.00    -0.202 N 
ATOM      8  H5  UNL     1      74.538  33.054  44.398  1.00  0.00     0.183 HD
ENDROOT
BRANCH   4   9
HETATM    9  N3  UNL     1      71.338  34.056  48.238  1.00  0.00    -0.292 N 
ATOM     10  H3  UNL     1      71.423  34.981  48.660  1.00  0.00     0.188 HD
BRANCH   9  11
HETATM   11  N4  UNL     1      70.387  33.171  48.757  1.00  0.00    -0.344 N 
ATOM     12  H42 UNL     1      70.115  33.293  49.732  1.00  0.00     0.176 HD
ATOM     13  H41 UNL     1      69.964  32.423  48.207  1.00  0.00     0.176 HD
ENDBRANCH   9  11
ENDBRANCH   4   9
BRANCH   1  14
HETATM   14  N1  UNL     1      72.901  31.164  44.824  1.00  0.00    -0.234 N 
ATOM     15  H12 UNL     1      72.695  30.278  45.287  1.00  0.00     0.174 HD
ATOM     16  H11 UNL     1      73.055  31.135  43.816  1.00  0.00     0.174 HD
ENDBRANCH   1  14
TORSDOF 3
ENDMDL
MODEL 3
REMARK VINA RESULT: -4.381710918      1.766      3.629
REMARK  3 active torsions:
REMARK  status: ('A' for Active; 'I' for Inactive)
REMARK    1  A    between atoms: N1_1  and  C1_4 
REMARK    2  A    between atoms: C2_7  and  N3_8 
REMARK    3  A    between atoms: N3_8  and  N4_10 
ROOT
HETATM    1  C1  UNL     1      73.544  41.235  43.703  1.00  0.00     0.677 A 
HETATM    2  N2  UNL     1      73.948  42.103  44.653  1.00  0.00    -0.176 N 
ATOM      3  H2  UNL     1      74.029  43.093  44.421  1.00  0.00     0.186 HD
HETATM    4  C2  UNL     1      74.243  41.700  45.884  1.00  0.00     0.136 A 
HETATM    5  C3  UNL     1      74.149  40.360  46.248  1.00  0.00     0.068 A 
HETATM    6  C4  UNL     1      73.736  39.461  45.272  1.00  0.00     0.110 A 
HETATM    7  N5  UNL     1      73.454  39.942  44.056  1.00  0.00    -0.202 N 
ATOM      8  H5  UNL     1      73.149  39.278  43.344  1.00  0.00     0.183 HD
ENDROOT
BRANCH   4   9
HETATM    9  N3  UNL     1      74.652  42.575  46.932  1.00  0.00    -0.292 N 
ATOM     10  H3  UNL     1      73.936  43.107  47.428  1.00  0.00     0.188 HD
BRANCH   9  11
HETATM   11  N4  UNL     1      75.987  42.738  47.313  1.00  0.00    -0.344 N 
ATOM     12  H42 UNL     1      76.168  43.108  48.245  1.00  0.00     0.176 HD
ATOM     13  H41 UNL     1      76.772  42.504  46.704  1.00  0.00     0.176 HD
ENDBRANCH   9  11
ENDBRANCH   4   9
BRANCH   1  14
HETATM   14  N1  UNL     1      73.279  41.663  42.489  1.00  0.00    -0.234 N 
ATOM     15  H12 UNL     1      73.504  41.126  41.650  1.00  0.00     0.174 HD
ATOM     16  H11 UNL     1      72.844  42.576  42.352  1.00  0.00     0.174 HD
ENDBRANCH   1  14
TORSDOF 3
ENDMDL
MODEL 4
REMARK VINA RESULT: -4.349402519      6.714      8.343
REMARK  3 active torsions:
REMARK  status: ('A' for Active; 'I' for Inactive)
REMARK    1  A    between atoms: N1_1  and  C1_4 
REMARK    2  A    between atoms: C2_7  and  N3_8 
REMARK    3  A    between atoms: N3_8  and  N4_10 
ROOT
HETATM    1  C1  UNL     1      71.802  33.580  47.236  1.00  0.00     0.677 A 
HETATM    2  N2  UNL     1      72.032  32.484  46.483  1.00  0.00    -0.176 N 
ATOM      3  H2  UNL     1      71.424  31.671  46.587  1.00  0.00     0.186 HD
HETATM    4  C2  UNL     1      73.032  32.437  45.609  1.00  0.00     0.136 A 
HETATM    5  C3  UNL     1      73.889  33.520  45.433  1.00  0.00     0.068 A 
HETATM    6  C4  UNL     1      73.657  34.650  46.207  1.00  0.00     0.110 A 
HETATM    7  N5  UNL     1      72.630  34.623  47.063  1.00  0.00    -0.202 N 
ATOM      8  H5  UNL     1      72.464  35.456  47.628  1.00  0.00     0.183 HD
ENDROOT
BRANCH   4   9
HETATM    9  N3  UNL     1      73.307  31.317  44.773  1.00  0.00    -0.292 N 
ATOM     10  H3  UNL     1      74.237  31.234  44.362  1.00  0.00     0.188 HD
BRANCH   9  11
HETATM   11  N4  UNL     1      72.362  30.326  44.490  1.00  0.00    -0.344 N 
ATOM     12  H42 UNL     1      72.610  29.627  43.790  1.00  0.00     0.176 HD
ATOM     13  H41 UNL     1      71.452  30.277  44.949  1.00  0.00     0.176 HD
ENDBRANCH   9  11
ENDBRANCH   4   9
BRANCH   1  14
HETATM   14  N1  UNL     1      70.817  33.587  48.106  1.00  0.00    -0.234 N 
ATOM     15  H12 UNL     1      70.943  33.854  49.083  1.00  0.00     0.174 HD
ATOM     16  H11 UNL     1      69.881  33.300  47.820  1.00  0.00     0.174 HD
ENDBRANCH   1  14
TORSDOF 3
ENDMDL
MODEL 5
REMARK VINA RESULT: -4.317775711      6.156      8.484
REMARK  3 active torsions:
REMARK  status: ('A' for Active; 'I' for Inactive)
REMARK    1  A    between atoms: N1_1  and  C1_4 
REMARK    2  A    between atoms: C2_7  and  N3_8 
REMARK    3  A    between atoms: N3_8  and  N4_10 
ROOT
HETATM    1  C1  UNL     1      74.186  34.325  45.475  1.00  0.00     0.677 A 
HETATM    2  N2  UNL     1      74.962  33.522  44.716  1.00  0.00    -0.176 N 
ATOM      3  H2  UNL     1      75.853  33.876  44.368  1.00  0.00     0.186 HD
HETATM    4  C2  UNL     1      74.593  32.283  44.412  1.00  0.00     0.136 A 
HETATM    5  C3  UNL     1      73.385  31.757  44.862  1.00  0.00     0.068 A 
HETATM    6  C4  UNL     1      72.582  32.581  45.642  1.00  0.00     0.110 A 
HETATM    7  N5  UNL     1      73.022  33.815  45.908  1.00  0.00    -0.202 N 
ATOM      8  H5  UNL     1      72.429  34.414  46.482  1.00  0.00     0.183 HD
ENDROOT
BRANCH   4   9
HETATM    9  N3  UNL     1      75.381  31.385  43.635  1.00  0.00    -0.292 N 
ATOM     10  H3  UNL     1      75.745  31.709  42.738  1.00  0.00     0.188 HD
BRANCH   9  11
HETATM   11  N4  UNL     1      75.680  30.082  44.045  1.00  0.00    -0.344 N 
ATOM     12  H42 UNL     1      76.527  29.945  44.595  1.00  0.00     0.176 HD
ATOM     13  H41 UNL     1      75.092  29.279  43.818  1.00  0.00     0.176 HD
ENDBRANCH   9  11
ENDBRANCH   4   9
BRANCH   1  14
HETATM   14  N1  UNL     1      74.571  35.553  45.741  1.00  0.00    -0.234 N 
ATOM     15  H12 UNL     1      74.487  35.971  46.668  1.00  0.00     0.174 HD
ATOM     16  H11 UNL     1      74.958  36.139  45.001  1.00  0.00     0.174 HD
ENDBRANCH   1  14
TORSDOF 3
ENDMDL
