MODEL 1
REMARK VINA RESULT: -4.817936069      0.000      0.000
REMARK  1 active torsions:
REMARK  status: ('A' for Active; 'I' for Inactive)
REMARK    1  A    between atoms: C1_4  and  C2_6 
ROOT
HETATM    1  C2  UNL     1      73.458  40.980  43.984  1.00  0.00     0.133 A 
HETATM    2  N3  UNL     1      73.767  39.705  43.846  1.00  0.00    -0.289 N 
ATOM      3  H3  UNL     1      74.022  39.344  42.926  1.00  0.00     0.188 HD
HETATM    4  N4  UNL     1      73.752  38.922  44.845  1.00  0.00    -0.279 N 
ATOM      5  H4  UNL     1      73.991  37.936  44.741  1.00  0.00     0.189 HD
HETATM    6  C3  UNL     1      73.413  39.423  46.042  1.00  0.00     0.159 A 
HETATM    7  N5  UNL     1      73.335  38.799  47.188  1.00  0.00    -0.379 N 
ATOM      8  H51 UNL     1      73.077  39.180  48.098  1.00  0.00     0.158 HD
ATOM      9  H52 UNL     1      73.509  37.820  47.416  1.00  0.00     0.158 HD
HETATM   10  S1  UNL     1      73.121  41.065  45.658  1.00  0.00    -0.031 SA
ENDROOT
BRANCH   1  11
HETATM   11  C1  UNL     1      73.434  41.984  42.935  1.00  0.00     0.145 C 
HETATM   12  N1  UNL     1      74.498  42.225  42.253  1.00  0.00    -0.385 N 
ATOM     13  H12 UNL     1      74.481  42.930  41.516  1.00  0.00     0.157 HD
ATOM     14  H11 UNL     1      75.373  41.729  42.424  1.00  0.00     0.157 HD
HETATM   15  N2  UNL     1      72.220  42.673  42.698  1.00  0.00    -0.080 NA
ENDBRANCH   1  11
TORSDOF 1
ENDMDL
MODEL 2
REMARK VINA RESULT: -4.683064718      7.597      8.437
REMARK  1 active torsions:
REMARK  status: ('A' for Active; 'I' for Inactive)
REMARK    1  A    between atoms: C1_4  and  C2_6 
ROOT
HETATM    1  C2  UNL     1      72.318  33.480  46.958  1.00  0.00     0.133 A 
HETATM    2  N3  UNL     1      72.224  32.263  46.458  1.00  0.00    -0.289 N 
ATOM      3  H3  UNL     1      71.540  31.611  46.843  1.00  0.00     0.188 HD
HETATM    4  N4  UNL     1      72.976  31.894  45.504  1.00  0.00    -0.279 N 
ATOM      5  H4  UNL     1      72.904  30.954  45.115  1.00  0.00     0.189 HD
HETATM    6  C3  UNL     1      73.867  32.772  45.018  1.00  0.00     0.159 A 
HETATM    7  N5  UNL     1      74.726  32.600  44.048  1.00  0.00    -0.379 N 
ATOM      8  H51 UNL     1      75.403  33.267  43.679  1.00  0.00     0.158 HD
ATOM      9  H52 UNL     1      74.903  31.782  43.465  1.00  0.00     0.158 HD
HETATM   10  S1  UNL     1      73.569  34.143  45.998  1.00  0.00    -0.031 SA
ENDROOT
BRANCH   1  11
HETATM   11  C1  UNL     1      71.529  34.035  48.044  1.00  0.00     0.145 C 
HETATM   12  N1  UNL     1      70.481  33.412  48.457  1.00  0.00    -0.385 N 
ATOM     13  H12 UNL     1      69.927  33.801  49.220  1.00  0.00     0.157 HD
ATOM     14  H11 UNL     1      70.179  32.530  48.044  1.00  0.00     0.157 HD
HETATM   15  N2  UNL     1      71.947  35.259  48.617  1.00  0.00    -0.080 NA
ENDBRANCH   1  11
TORSDOF 1
ENDMDL
MODEL 3
REMARK VINA RESULT: -4.620452328      7.655      8.983
REMARK  1 active torsions:
REMARK  status: ('A' for Active; 'I' for Inactive)
REMARK    1  A    between atoms: C1_4  and  C2_6 
ROOT
HETATM    1  C2  UNL     1      74.245  32.521  45.091  1.00  0.00     0.133 A 
HETATM    2  N3  UNL     1      74.924  32.510  43.960  1.00  0.00    -0.289 N 
ATOM      3  H3  UNL     1      74.821  33.282  43.302  1.00  0.00     0.188 HD
HETATM    4  N4  UNL     1      75.706  31.548  43.682  1.00  0.00    -0.279 N 
ATOM      5  H4  UNL     1      76.232  31.538  42.809  1.00  0.00     0.189 HD
HETATM    6  C3  UNL     1      75.823  30.546  44.566  1.00  0.00     0.159 A 
HETATM    7  N5  UNL     1      76.563  29.473  44.479  1.00  0.00    -0.379 N 
ATOM      8  H51 UNL     1      76.652  28.711  45.151  1.00  0.00     0.158 HD
ATOM      9  H52 UNL     1      77.197  29.170  43.740  1.00  0.00     0.158 HD
HETATM   10  S1  UNL     1      74.759  31.055  45.807  1.00  0.00    -0.031 SA
ENDROOT
BRANCH   1  11
HETATM   11  C1  UNL     1      73.320  33.549  45.537  1.00  0.00     0.145 C 
HETATM   12  N1  UNL     1      73.741  34.750  45.728  1.00  0.00    -0.385 N 
ATOM     13  H12 UNL     1      73.092  35.472  46.041  1.00  0.00     0.157 HD
ATOM     14  H11 UNL     1      74.716  35.012  45.576  1.00  0.00     0.157 HD
HETATM   15  N2  UNL     1      71.969  33.186  45.747  1.00  0.00    -0.080 NA
ENDBRANCH   1  11
TORSDOF 1
ENDMDL
MODEL 4
REMARK VINA RESULT: -4.533286921      7.278      8.547
REMARK  1 active torsions:
REMARK  status: ('A' for Active; 'I' for Inactive)
REMARK    1  A    between atoms: C1_4  and  C2_6 
ROOT
HETATM    1  C2  UNL     1      72.128  33.285  47.354  1.00  0.00     0.133 A 
HETATM    2  N3  UNL     1      70.839  33.416  47.599  1.00  0.00    -0.289 N 
ATOM      3  H3  UNL     1      70.205  33.671  46.841  1.00  0.00     0.188 HD
HETATM    4  N4  UNL     1      70.377  33.226  48.766  1.00  0.00    -0.279 N 
ATOM      5  H4  UNL     1      69.380  33.325  48.957  1.00  0.00     0.189 HD
HETATM    6  C3  UNL     1      71.233  32.891  49.743  1.00  0.00     0.159 A 
HETATM    7  N5  UNL     1      70.972  32.652  51.001  1.00  0.00    -0.379 N 
ATOM      8  H51 UNL     1      71.623  32.398  51.744  1.00  0.00     0.158 HD
ATOM      9  H52 UNL     1      70.084  32.669  51.503  1.00  0.00     0.158 HD
HETATM   10  S1  UNL     1      72.723  32.863  48.901  1.00  0.00    -0.031 SA
ENDROOT
BRANCH   1  11
HETATM   11  C1  UNL     1      72.792  33.471  46.075  1.00  0.00     0.145 C 
HETATM   12  N1  UNL     1      73.396  34.579  45.822  1.00  0.00    -0.385 N 
ATOM     13  H12 UNL     1      73.862  34.709  44.924  1.00  0.00     0.157 HD
ATOM     14  H11 UNL     1      73.428  35.344  46.496  1.00  0.00     0.157 HD
HETATM   15  N2  UNL     1      72.748  32.410  45.140  1.00  0.00    -0.080 NA
ENDBRANCH   1  11
TORSDOF 1
ENDMDL
MODEL 5
REMARK VINA RESULT: -4.399540624      8.016      9.036
REMARK  1 active torsions:
REMARK  status: ('A' for Active; 'I' for Inactive)
REMARK    1  A    between atoms: C1_4  and  C2_6 
ROOT
HETATM    1  C2  UNL     1      72.366  32.930  47.463  1.00  0.00     0.133 A 
HETATM    2  N3  UNL     1      72.230  32.515  46.218  1.00  0.00    -0.289 N 
ATOM      3  H3  UNL     1      71.388  32.756  45.695  1.00  0.00     0.188 HD
HETATM    4  N4  UNL     1      73.136  31.819  45.663  1.00  0.00    -0.279 N 
ATOM      5  H4  UNL     1      73.033  31.498  44.701  1.00  0.00     0.189 HD
HETATM    6  C3  UNL     1      74.233  31.517  46.374  1.00  0.00     0.159 A 
HETATM    7  N5  UNL     1      75.274  30.822  46.000  1.00  0.00    -0.379 N 
ATOM      8  H51 UNL     1      76.108  30.591  46.540  1.00  0.00     0.158 HD
ATOM      9  H52 UNL     1      75.475  30.368  45.109  1.00  0.00     0.158 HD
HETATM   10  S1  UNL     1      73.895  32.280  47.869  1.00  0.00    -0.031 SA
ENDROOT
BRANCH   1  11
HETATM   11  C1  UNL     1      71.417  33.727  48.220  1.00  0.00     0.145 C 
HETATM   12  N1  UNL     1      70.390  33.164  48.754  1.00  0.00    -0.385 N 
ATOM     13  H12 UNL     1      69.723  33.724  49.285  1.00  0.00     0.157 HD
ATOM     14  H11 UNL     1      70.215  32.163  48.664  1.00  0.00     0.157 HD
HETATM   15  N2  UNL     1      71.660  35.115  48.344  1.00  0.00    -0.080 NA
ENDBRANCH   1  11
TORSDOF 1
ENDMDL
