MODEL 1
REMARK VINA RESULT: -5.201774096      0.000      0.000
REMARK  2 active torsions:
REMARK  status: ('A' for Active; 'I' for Inactive)
REMARK    1  A    between atoms: C2_2  and  C3_4 
REMARK    2  A    between atoms: C4_7  and  N3_8 
ROOT
HETATM    1  C3  UNL     1      73.469  41.036  44.260  1.00  0.00     0.208 A 
HETATM    2  N2  UNL     1      72.448  41.844  43.875  1.00  0.00    -0.165 N 
ATOM      3  H2  UNL     1      71.570  41.951  44.382  1.00  0.00     0.186 HD
HETATM    4  C4  UNL     1      72.755  42.482  42.734  1.00  0.00     0.698 A 
HETATM    5  N4  UNL     1      73.989  42.048  42.424  1.00  0.00    -0.089 N 
ATOM      6  H4  UNL     1      74.529  42.336  41.607  1.00  0.00     0.213 HD
HETATM    7  O1  UNL     1      74.386  41.204  43.330  1.00  0.00    -0.203 OA
ENDROOT
BRANCH   1   8
HETATM    8  C2  UNL     1      73.537  40.173  45.439  1.00  0.00     0.090 C 
HETATM    9  C1  UNL     1      73.887  40.711  46.575  1.00  0.00     0.044 C 
HETATM   10  N1  UNL     1      73.218  38.802  45.269  1.00  0.00    -0.099 NA
ENDBRANCH   1   8
BRANCH   4  11
HETATM   11  N3  UNL     1      72.063  43.326  42.049  1.00  0.00    -0.233 N 
ATOM     12  H32 UNL     1      72.445  44.076  41.472  1.00  0.00     0.174 HD
ATOM     13  H31 UNL     1      71.052  43.414  41.947  1.00  0.00     0.174 HD
ENDBRANCH   4  11
TORSDOF 2
ENDMDL
MODEL 2
REMARK VINA RESULT: -5.071967313      1.515      1.814
REMARK  2 active torsions:
REMARK  status: ('A' for Active; 'I' for Inactive)
REMARK    1  A    between atoms: C2_2  and  C3_4 
REMARK    2  A    between atoms: C4_7  and  N3_8 
ROOT
HETATM    1  C3  UNL     1      73.627  40.101  45.214  1.00  0.00     0.208 A 
HETATM    2  N2  UNL     1      73.426  40.274  43.882  1.00  0.00    -0.165 N 
ATOM      3  H2  UNL     1      73.097  39.548  43.246  1.00  0.00     0.186 HD
HETATM    4  C4  UNL     1      73.720  41.532  43.519  1.00  0.00     0.698 A 
HETATM    5  N4  UNL     1      74.107  42.132  44.659  1.00  0.00    -0.089 N 
ATOM      6  H4  UNL     1      74.403  43.105  44.743  1.00  0.00     0.213 HD
HETATM    7  O1  UNL     1      74.045  41.276  45.635  1.00  0.00    -0.203 OA
ENDROOT
BRANCH   1   8
HETATM    8  C2  UNL     1      73.426  38.885  46.003  1.00  0.00     0.090 C 
HETATM    9  C1  UNL     1      73.170  39.014  47.276  1.00  0.00     0.044 C 
HETATM   10  N1  UNL     1      73.524  37.642  45.330  1.00  0.00    -0.099 NA
ENDBRANCH   1   8
BRANCH   4  11
HETATM   11  N3  UNL     1      73.663  42.092  42.360  1.00  0.00    -0.233 N 
ATOM     12  H32 UNL     1      73.739  41.610  41.464  1.00  0.00     0.174 HD
ATOM     13  H31 UNL     1      73.537  43.074  42.113  1.00  0.00     0.174 HD
ENDBRANCH   4  11
TORSDOF 2
ENDMDL
MODEL 3
REMARK VINA RESULT: -4.913282703      1.684      2.049
REMARK  2 active torsions:
REMARK  status: ('A' for Active; 'I' for Inactive)
REMARK    1  A    between atoms: C2_2  and  C3_4 
REMARK    2  A    between atoms: C4_7  and  N3_8 
ROOT
HETATM    1  C3  UNL     1      73.750  39.970  45.093  1.00  0.00     0.208 A 
HETATM    2  N2  UNL     1      73.478  40.221  43.786  1.00  0.00    -0.165 N 
ATOM      3  H2  UNL     1      73.168  39.520  43.113  1.00  0.00     0.186 HD
HETATM    4  C4  UNL     1      73.673  41.519  43.504  1.00  0.00     0.698 A 
HETATM    5  N4  UNL     1      74.072  42.063  44.666  1.00  0.00    -0.089 N 
ATOM      6  H4  UNL     1      74.308  43.046  44.809  1.00  0.00     0.213 HD
HETATM    7  O1  UNL     1      74.110  41.139  45.580  1.00  0.00    -0.203 OA
ENDROOT
BRANCH   1   8
HETATM    8  C2  UNL     1      73.665  38.692  45.800  1.00  0.00     0.090 C 
HETATM    9  C1  UNL     1      74.401  37.704  45.375  1.00  0.00     0.044 C 
HETATM   10  N1  UNL     1      72.781  38.612  46.906  1.00  0.00    -0.099 NA
ENDBRANCH   1   8
BRANCH   4  11
HETATM   11  N3  UNL     1      73.527  42.152  42.391  1.00  0.00    -0.233 N 
ATOM     12  H32 UNL     1      74.088  42.946  42.083  1.00  0.00     0.174 HD
ATOM     13  H31 UNL     1      72.860  41.999  41.634  1.00  0.00     0.174 HD
ENDBRANCH   4  11
TORSDOF 2
ENDMDL
MODEL 4
REMARK VINA RESULT: -4.585456542      1.398      3.818
REMARK  2 active torsions:
REMARK  status: ('A' for Active; 'I' for Inactive)
REMARK    1  A    between atoms: C2_2  and  C3_4 
REMARK    2  A    between atoms: C4_7  and  N3_8 
ROOT
HETATM    1  C3  UNL     1      73.508  40.912  43.955  1.00  0.00     0.208 A 
HETATM    2  N2  UNL     1      72.861  40.951  45.149  1.00  0.00    -0.165 N 
ATOM      3  H2  UNL     1      72.279  41.726  45.468  1.00  0.00     0.186 HD
HETATM    4  C4  UNL     1      73.094  39.831  45.850  1.00  0.00     0.698 A 
HETATM    5  N4  UNL     1      73.900  39.098  45.062  1.00  0.00    -0.089 N 
ATOM      6  H4  UNL     1      74.274  38.177  45.292  1.00  0.00     0.213 HD
HETATM    7  O1  UNL     1      74.128  39.750  43.960  1.00  0.00    -0.203 OA
ENDROOT
BRANCH   1   8
HETATM    8  C2  UNL     1      73.516  41.927  42.902  1.00  0.00     0.090 C 
HETATM    9  C1  UNL     1      72.394  42.531  42.623  1.00  0.00     0.044 C 
HETATM   10  N1  UNL     1      74.747  42.188  42.251  1.00  0.00    -0.099 NA
ENDBRANCH   1   8
BRANCH   4  11
HETATM   11  N3  UNL     1      72.669  39.484  47.017  1.00  0.00    -0.233 N 
ATOM     12  H32 UNL     1      72.872  38.599  47.482  1.00  0.00     0.174 HD
ATOM     13  H31 UNL     1      72.080  39.992  47.676  1.00  0.00     0.174 HD
ENDBRANCH   4  11
TORSDOF 2
ENDMDL
MODEL 5
REMARK VINA RESULT: -4.506943426      8.342      9.103
REMARK  2 active torsions:
REMARK  status: ('A' for Active; 'I' for Inactive)
REMARK    1  A    between atoms: C2_2  and  C3_4 
REMARK    2  A    between atoms: C4_7  and  N3_8 
ROOT
HETATM    1  C3  UNL     1      72.986  33.084  46.098  1.00  0.00     0.208 A 
HETATM    2  N2  UNL     1      71.851  32.655  46.709  1.00  0.00    -0.165 N 
ATOM      3  H2  UNL     1      71.336  31.813  46.451  1.00  0.00     0.186 HD
HETATM    4  C4  UNL     1      71.500  33.493  47.697  1.00  0.00     0.698 A 
HETATM    5  N4  UNL     1      72.445  34.450  47.683  1.00  0.00    -0.089 N 
ATOM      6  H4  UNL     1      72.484  35.252  48.312  1.00  0.00     0.213 HD
HETATM    7  O1  UNL     1      73.302  34.189  46.740  1.00  0.00    -0.203 OA
ENDROOT
BRANCH   1   8
HETATM    8  C2  UNL     1      73.696  32.462  44.981  1.00  0.00     0.090 C 
HETATM    9  C1  UNL     1      73.339  31.261  44.618  1.00  0.00     0.044 C 
HETATM   10  N1  UNL     1      74.731  33.208  44.364  1.00  0.00    -0.099 NA
ENDBRANCH   1   8
BRANCH   4  11
HETATM   11  N3  UNL     1      70.498  33.442  48.506  1.00  0.00    -0.233 N 
ATOM     12  H32 UNL     1      70.265  34.147  49.206  1.00  0.00     0.174 HD
ATOM     13  H31 UNL     1      69.775  32.731  48.607  1.00  0.00     0.174 HD
ENDBRANCH   4  11
TORSDOF 2
ENDMDL
