MODEL 1
REMARK VINA RESULT: -6.624341606      0.000      0.000
REMARK  11 active torsions:
REMARK  status: ('A' for Active; 'I' for Inactive)
REMARK    1  A    between atoms: C2_2  and  C3_3 
REMARK    2  A    between atoms: C5_8  and  C6_9 
REMARK    3  A    between atoms: C6_9  and  N2_10 
REMARK    4  A    between atoms: N3_13  and  C9_14 
REMARK    5  A    between atoms: C9_14  and  C10_15 
REMARK    6  A    between atoms: C10_15  and  C11_16 
REMARK    7  A    between atoms: C11_16  and  C12_17 
REMARK    8  A    between atoms: C12_17  and  C13_18 
REMARK    9  A    between atoms: C19_24  and  C20_25 
REMARK   10  A    between atoms: C24_31  and  O4_32 
REMARK   11  A    between atoms: C25_34  and  O5_35 
ROOT
HETATM    1  C3  UNL     1      -0.038   6.279  24.625  1.00  0.00     0.082 C 
HETATM    2  N1  UNL     1       1.154   6.698  25.327  1.00  0.00    -0.345 N 
ATOM      3  H1  UNL     1       1.103   7.027  26.291  1.00  0.00     0.163 HD
HETATM    4  C4  UNL     1       2.420   6.639  24.631  1.00  0.00     0.232 C 
HETATM    5  O1  UNL     1       3.356   7.272  25.136  1.00  0.00    -0.272 OA
HETATM    6  C5  UNL     1       2.463   5.833  23.385  1.00  0.00     0.106 C 
HETATM    7  C19 UNL     1       1.869   6.688  22.319  1.00  0.00     0.109 C 
HETATM    8  C21 UNL     1       0.411   6.892  22.278  1.00  0.00     0.024 C 
HETATM    9  C22 UNL     1      -0.277   7.269  23.543  1.00  0.00     0.017 C 
HETATM   10  C23 UNL     1      -1.783   7.238  23.236  1.00  0.00     0.013 C 
HETATM   11  C24 UNL     1       1.596   4.620  23.709  1.00  0.00     0.170 C 
HETATM   12  C25 UNL     1       0.147   4.940  23.947  1.00  0.00     0.180 C 
ENDROOT
BRANCH   6  13
HETATM   13  C6  UNL     1       3.782   5.464  22.877  1.00  0.00     0.260 C 
BRANCH  13  14
HETATM   14  N2  UNL     1       4.173   4.499  21.974  1.00  0.00    -0.061 N 
HETATM   15  C7  UNL     1       5.458   5.093  21.468  1.00  0.00     0.265 C 
HETATM   16  C8  UNL     1       6.292   4.125  20.732  1.00  0.00     0.265 C 
HETATM   17  N3  UNL     1       5.330   3.267  20.017  1.00  0.00    -0.062 N 
HETATM   18  C15 UNL     1       4.336   4.207  19.528  1.00  0.00     0.265 C 
HETATM   19  C17 UNL     1       4.810   2.401  21.041  1.00  0.00     0.265 C 
HETATM   20  C16 UNL     1       3.391   4.420  20.729  1.00  0.00     0.265 C 
HETATM   21  C18 UNL     1       4.532   3.184  22.344  1.00  0.00     0.265 C 
BRANCH  17  22
HETATM   22  C9  UNL     1       6.042   2.574  18.985  1.00  0.00     0.237 C 
BRANCH  22  23
HETATM   23  C10 UNL     1       6.047   1.093  19.140  1.00  0.00     0.028 C 
BRANCH  23  24
HETATM   24  C11 UNL     1       7.251   0.520  18.436  1.00  0.00     0.002 C 
BRANCH  24  25
HETATM   25  C12 UNL     1       8.528   0.758  19.178  1.00  0.00    -0.000 C 
BRANCH  25  26
HETATM   26  C13 UNL     1       9.723   0.169  18.440  1.00  0.00    -0.005 C 
HETATM   27  C14 UNL     1       9.227  -0.558  17.218  1.00  0.00     0.005 C 
ENDBRANCH  25  26
ENDBRANCH  24  25
ENDBRANCH  23  24
ENDBRANCH  22  23
ENDBRANCH  17  22
ENDBRANCH  13  14
ENDBRANCH   6  13
BRANCH   7  28
HETATM   28  C20 UNL     1       2.532   7.997  22.211  1.00  0.00     0.178 C 
HETATM   29  O2  UNL     1       3.618   8.073  21.533  1.00  0.00    -0.648 OA
HETATM   30  O3  UNL     1       2.151   9.204  22.750  1.00  0.00    -0.648 OA
ENDBRANCH   7  28
BRANCH  11  31
HETATM   31  O4  UNL     1       1.980   3.930  24.815  1.00  0.00    -0.392 OA
ATOM     32  H4  UNL     1       2.257   3.037  24.647  1.00  0.00     0.210 HD
ENDBRANCH  11  31
BRANCH  12  33
HETATM   33  O5  UNL     1      -0.423   4.017  24.875  1.00  0.00    -0.390 OA
ATOM     34  H5  UNL     1      -1.262   3.800  24.484  1.00  0.00     0.210 HD
ENDBRANCH  12  33
BRANCH   1  35
HETATM   35  C2  UNL     1      -1.202   6.248  25.581  1.00  0.00    -0.003 C 
HETATM   36  C1  UNL     1      -1.216   7.005  26.668  1.00  0.00     0.009 C 
ENDBRANCH   1  35
TORSDOF 11
ENDMDL
MODEL 2
REMARK VINA RESULT: -6.609268788      4.455      6.168
REMARK  11 active torsions:
REMARK  status: ('A' for Active; 'I' for Inactive)
REMARK    1  A    between atoms: C2_2  and  C3_3 
REMARK    2  A    between atoms: C5_8  and  C6_9 
REMARK    3  A    between atoms: C6_9  and  N2_10 
REMARK    4  A    between atoms: N3_13  and  C9_14 
REMARK    5  A    between atoms: C9_14  and  C10_15 
REMARK    6  A    between atoms: C10_15  and  C11_16 
REMARK    7  A    between atoms: C11_16  and  C12_17 
REMARK    8  A    between atoms: C12_17  and  C13_18 
REMARK    9  A    between atoms: C19_24  and  C20_25 
REMARK   10  A    between atoms: C24_31  and  O4_32 
REMARK   11  A    between atoms: C25_34  and  O5_35 
ROOT
HETATM    1  C3  UNL     1       1.072   8.050  24.268  1.00  0.00     0.082 C 
HETATM    2  N1  UNL     1       1.534   8.541  22.989  1.00  0.00    -0.345 N 
ATOM      3  H1  UNL     1       1.002   9.245  22.477  1.00  0.00     0.163 HD
HETATM    4  C4  UNL     1       2.767   8.012  22.452  1.00  0.00     0.232 C 
HETATM    5  O1  UNL     1       2.978   8.218  21.250  1.00  0.00    -0.272 OA
HETATM    6  C5  UNL     1       3.647   7.275  23.395  1.00  0.00     0.106 C 
HETATM    7  C19 UNL     1       3.066   5.909  23.519  1.00  0.00     0.109 C 
HETATM    8  C21 UNL     1       1.843   5.708  24.316  1.00  0.00     0.024 C 
HETATM    9  C22 UNL     1       0.696   6.626  24.077  1.00  0.00     0.017 C 
HETATM   10  C23 UNL     1      -0.349   6.294  25.156  1.00  0.00     0.013 C 
HETATM   11  C24 UNL     1       3.538   8.074  24.690  1.00  0.00     0.170 C 
HETATM   12  C25 UNL     1       2.169   8.068  25.309  1.00  0.00     0.180 C 
ENDROOT
BRANCH   6  13
HETATM   13  C6  UNL     1       5.031   7.057  22.981  1.00  0.00     0.260 C 
BRANCH  13  14
HETATM   14  N2  UNL     1       6.184   7.761  23.253  1.00  0.00    -0.061 N 
HETATM   15  C7  UNL     1       7.199   6.933  22.514  1.00  0.00     0.265 C 
HETATM   16  C8  UNL     1       8.487   7.625  22.333  1.00  0.00     0.265 C 
HETATM   17  N3  UNL     1       8.666   8.417  23.564  1.00  0.00    -0.062 N 
HETATM   18  C15 UNL     1       8.229   7.514  24.614  1.00  0.00     0.265 C 
HETATM   19  C17 UNL     1       7.773   9.532  23.391  1.00  0.00     0.265 C 
HETATM   20  C16 UNL     1       6.693   7.665  24.631  1.00  0.00     0.265 C 
HETATM   21  C18 UNL     1       6.422   9.075  22.794  1.00  0.00     0.265 C 
BRANCH  17  22
HETATM   22  C9  UNL     1      10.045   8.794  23.648  1.00  0.00     0.237 C 
BRANCH  22  23
HETATM   23  C10 UNL     1      10.468   9.249  25.001  1.00  0.00     0.028 C 
BRANCH  23  24
HETATM   24  C11 UNL     1      11.621   8.401  25.478  1.00  0.00     0.002 C 
BRANCH  24  25
HETATM   25  C12 UNL     1      11.304   7.634  26.722  1.00  0.00    -0.000 C 
BRANCH  25  26
HETATM   26  C13 UNL     1      12.566   7.119  27.400  1.00  0.00    -0.005 C 
HETATM   27  C14 UNL     1      13.731   7.312  26.464  1.00  0.00     0.005 C 
ENDBRANCH  25  26
ENDBRANCH  24  25
ENDBRANCH  23  24
ENDBRANCH  22  23
ENDBRANCH  17  22
ENDBRANCH  13  14
ENDBRANCH   6  13
BRANCH   7  28
HETATM   28  C20 UNL     1       2.894   5.248  22.216  1.00  0.00     0.178 C 
HETATM   29  O2  UNL     1       3.898   4.629  21.712  1.00  0.00    -0.648 OA
HETATM   30  O3  UNL     1       1.774   5.190  21.419  1.00  0.00    -0.648 OA
ENDBRANCH   7  28
BRANCH  11  31
HETATM   31  O4  UNL     1       3.854   9.390  24.570  1.00  0.00    -0.392 OA
ATOM     32  H4  UNL     1       3.469   9.823  23.817  1.00  0.00     0.210 HD
ENDBRANCH  11  31
BRANCH  12  33
HETATM   33  O5  UNL     1       1.935   9.287  26.016  1.00  0.00    -0.390 OA
ATOM     34  H5  UNL     1       1.433   9.009  26.774  1.00  0.00     0.210 HD
ENDBRANCH  12  33
BRANCH   1  35
HETATM   35  C2  UNL     1      -0.118   8.857  24.718  1.00  0.00    -0.003 C 
HETATM   36  C1  UNL     1      -0.708   9.721  23.904  1.00  0.00     0.009 C 
ENDBRANCH   1  35
TORSDOF 11
ENDMDL
MODEL 3
REMARK VINA RESULT: -6.561724500      3.525      5.835
REMARK  11 active torsions:
REMARK  status: ('A' for Active; 'I' for Inactive)
REMARK    1  A    between atoms: C2_2  and  C3_3 
REMARK    2  A    between atoms: C5_8  and  C6_9 
REMARK    3  A    between atoms: C6_9  and  N2_10 
REMARK    4  A    between atoms: N3_13  and  C9_14 
REMARK    5  A    between atoms: C9_14  and  C10_15 
REMARK    6  A    between atoms: C10_15  and  C11_16 
REMARK    7  A    between atoms: C11_16  and  C12_17 
REMARK    8  A    between atoms: C12_17  and  C13_18 
REMARK    9  A    between atoms: C19_24  and  C20_25 
REMARK   10  A    between atoms: C24_31  and  O4_32 
REMARK   11  A    between atoms: C25_34  and  O5_35 
ROOT
HETATM    1  C3  UNL     1       7.685   8.996  21.830  1.00  0.00     0.082 C 
HETATM    2  N1  UNL     1       6.358   8.995  21.256  1.00  0.00    -0.345 N 
ATOM      3  H1  UNL     1       6.030   9.784  20.699  1.00  0.00     0.163 HD
HETATM    4  C4  UNL     1       5.507   7.850  21.490  1.00  0.00     0.232 C 
HETATM    5  O1  UNL     1       4.303   8.000  21.251  1.00  0.00    -0.272 OA
HETATM    6  C5  UNL     1       6.165   6.618  21.995  1.00  0.00     0.106 C 
HETATM    7  C19 UNL     1       6.360   6.824  23.458  1.00  0.00     0.109 C 
HETATM    8  C21 UNL     1       7.423   7.728  23.930  1.00  0.00     0.024 C 
HETATM    9  C22 UNL     1       7.521   9.076  23.305  1.00  0.00     0.017 C 
HETATM   10  C23 UNL     1       8.806   9.711  23.861  1.00  0.00     0.013 C 
HETATM   11  C24 UNL     1       7.486   6.575  21.233  1.00  0.00     0.170 C 
HETATM   12  C25 UNL     1       8.422   7.706  21.550  1.00  0.00     0.180 C 
ENDROOT
BRANCH   6  13
HETATM   13  C6  UNL     1       5.412   5.371  21.890  1.00  0.00     0.260 C 
BRANCH  13  14
HETATM   14  N2  UNL     1       5.403   4.392  20.920  1.00  0.00    -0.061 N 
HETATM   15  C7  UNL     1       4.312   3.495  21.437  1.00  0.00     0.265 C 
HETATM   16  C8  UNL     1       3.831   2.531  20.431  1.00  0.00     0.265 C 
HETATM   17  N3  UNL     1       5.030   2.169  19.653  1.00  0.00    -0.062 N 
HETATM   18  C15 UNL     1       6.060   2.026  20.667  1.00  0.00     0.265 C 
HETATM   19  C17 UNL     1       5.249   3.308  18.803  1.00  0.00     0.265 C 
HETATM   20  C16 UNL     1       6.549   3.468  20.918  1.00  0.00     0.265 C 
HETATM   21  C18 UNL     1       5.036   4.629  19.577  1.00  0.00     0.265 C 
BRANCH  17  22
HETATM   22  C9  UNL     1       4.741   0.963  18.935  1.00  0.00     0.237 C 
BRANCH  22  23
HETATM   23  C10 UNL     1       5.282   0.938  17.549  1.00  0.00     0.028 C 
BRANCH  23  24
HETATM   24  C11 UNL     1       6.381  -0.091  17.458  1.00  0.00     0.002 C 
BRANCH  24  25
HETATM   25  C12 UNL     1       7.744   0.518  17.376  1.00  0.00    -0.000 C 
BRANCH  25  26
HETATM   26  C13 UNL     1       8.515   0.347  18.677  1.00  0.00    -0.005 C 
HETATM   27  C14 UNL     1       9.941  -0.014  18.352  1.00  0.00     0.005 C 
ENDBRANCH  25  26
ENDBRANCH  24  25
ENDBRANCH  23  24
ENDBRANCH  22  23
ENDBRANCH  17  22
ENDBRANCH  13  14
ENDBRANCH   6  13
BRANCH   7  28
HETATM   28  C20 UNL     1       5.108   7.165  24.151  1.00  0.00     0.178 C 
HETATM   29  O2  UNL     1       5.067   8.251  24.832  1.00  0.00    -0.648 OA
HETATM   30  O3  UNL     1       3.924   6.466  24.185  1.00  0.00    -0.648 OA
ENDBRANCH   7  28
BRANCH  11  31
HETATM   31  O4  UNL     1       7.358   6.605  19.879  1.00  0.00    -0.392 OA
ATOM     32  H4  UNL     1       7.510   5.772  19.449  1.00  0.00     0.210 HD
ENDBRANCH  11  31
BRANCH  12  33
HETATM   33  O5  UNL     1       9.226   8.024  20.413  1.00  0.00    -0.390 OA
ATOM     34  H5  UNL     1       9.664   7.203  20.216  1.00  0.00     0.210 HD
ENDBRANCH  12  33
BRANCH   1  35
HETATM   35  C2  UNL     1       8.455  10.185  21.318  1.00  0.00    -0.003 C 
HETATM   36  C1  UNL     1       7.863  11.128  20.599  1.00  0.00     0.009 C 
ENDBRANCH   1  35
TORSDOF 11
ENDMDL
MODEL 4
REMARK VINA RESULT: -6.419792401      3.034      5.343
REMARK  11 active torsions:
REMARK  status: ('A' for Active; 'I' for Inactive)
REMARK    1  A    between atoms: C2_2  and  C3_3 
REMARK    2  A    between atoms: C5_8  and  C6_9 
REMARK    3  A    between atoms: C6_9  and  N2_10 
REMARK    4  A    between atoms: N3_13  and  C9_14 
REMARK    5  A    between atoms: C9_14  and  C10_15 
REMARK    6  A    between atoms: C10_15  and  C11_16 
REMARK    7  A    between atoms: C11_16  and  C12_17 
REMARK    8  A    between atoms: C12_17  and  C13_18 
REMARK    9  A    between atoms: C19_24  and  C20_25 
REMARK   10  A    between atoms: C24_31  and  O4_32 
REMARK   11  A    between atoms: C25_34  and  O5_35 
ROOT
HETATM    1  C3  UNL     1       7.218   8.655  22.035  1.00  0.00     0.082 C 
HETATM    2  N1  UNL     1       5.976   8.863  21.324  1.00  0.00    -0.345 N 
ATOM      3  H1  UNL     1       5.818   9.716  20.788  1.00  0.00     0.163 HD
HETATM    4  C4  UNL     1       4.963   7.834  21.390  1.00  0.00     0.232 C 
HETATM    5  O1  UNL     1       3.824   8.158  21.035  1.00  0.00    -0.272 OA
HETATM    6  C5  UNL     1       5.394   6.499  21.881  1.00  0.00     0.106 C 
HETATM    7  C19 UNL     1       5.446   6.603  23.366  1.00  0.00     0.109 C 
HETATM    8  C21 UNL     1       6.556   7.329  24.007  1.00  0.00     0.024 C 
HETATM    9  C22 UNL     1       6.898   8.681  23.486  1.00  0.00     0.017 C 
HETATM   10  C23 UNL     1       8.183   9.107  24.216  1.00  0.00     0.013 C 
HETATM   11  C24 UNL     1       6.777   6.316  21.262  1.00  0.00     0.170 C 
HETATM   12  C25 UNL     1       7.809   7.292  21.750  1.00  0.00     0.180 C 
ENDROOT
BRANCH   6  13
HETATM   13  C6  UNL     1       4.503   5.373  21.614  1.00  0.00     0.260 C 
BRANCH  13  14
HETATM   14  N2  UNL     1       4.763   4.085  21.197  1.00  0.00    -0.061 N 
HETATM   15  C7  UNL     1       4.692   4.255  19.704  1.00  0.00     0.265 C 
HETATM   16  C8  UNL     1       5.265   3.116  18.966  1.00  0.00     0.265 C 
HETATM   17  N3  UNL     1       4.925   1.931  19.776  1.00  0.00    -0.062 N 
HETATM   18  C15 UNL     1       3.555   2.185  20.186  1.00  0.00     0.265 C 
HETATM   19  C17 UNL     1       5.848   1.988  20.877  1.00  0.00     0.265 C 
HETATM   20  C16 UNL     1       3.691   3.102  21.420  1.00  0.00     0.265 C 
HETATM   21  C18 UNL     1       5.999   3.434  21.403  1.00  0.00     0.265 C 
BRANCH  17  22
HETATM   22  C9  UNL     1       5.086   0.772  18.949  1.00  0.00     0.237 C 
BRANCH  22  23
HETATM   23  C10 UNL     1       5.997   0.976  17.789  1.00  0.00     0.028 C 
BRANCH  23  24
HETATM   24  C11 UNL     1       7.199   0.077  17.931  1.00  0.00     0.002 C 
BRANCH  24  25
HETATM   25  C12 UNL     1       8.270   0.666  18.793  1.00  0.00    -0.000 C 
BRANCH  25  26
HETATM   26  C13 UNL     1       9.636   0.078  18.471  1.00  0.00    -0.005 C 
HETATM   27  C14 UNL     1       9.523  -0.751  17.218  1.00  0.00     0.005 C 
ENDBRANCH  25  26
ENDBRANCH  24  25
ENDBRANCH  23  24
ENDBRANCH  22  23
ENDBRANCH  17  22
ENDBRANCH  13  14
ENDBRANCH   6  13
BRANCH   7  28
HETATM   28  C20 UNL     1       4.177   7.074  23.943  1.00  0.00     0.178 C 
HETATM   29  O2  UNL     1       3.213   6.236  24.056  1.00  0.00    -0.648 OA
HETATM   30  O3  UNL     1       3.852   8.330  24.399  1.00  0.00    -0.648 OA
ENDBRANCH   7  28
BRANCH  11  31
HETATM   31  O4  UNL     1       6.810   6.433  19.908  1.00  0.00    -0.392 OA
ATOM     32  H4  UNL     1       7.100   7.280  19.590  1.00  0.00     0.210 HD
ENDBRANCH  11  31
BRANCH  12  33
HETATM   33  O5  UNL     1       8.772   7.556  20.729  1.00  0.00    -0.390 OA
ATOM     34  H5  UNL     1       8.956   6.695  20.372  1.00  0.00     0.210 HD
ENDBRANCH  12  33
BRANCH   1  35
HETATM   35  C2  UNL     1       8.188   9.753  21.686  1.00  0.00    -0.003 C 
HETATM   36  C1  UNL     1       7.825  10.771  20.920  1.00  0.00     0.009 C 
ENDBRANCH   1  35
TORSDOF 11
ENDMDL
MODEL 5
REMARK VINA RESULT: -6.261803386      1.990      3.041
REMARK  11 active torsions:
REMARK  status: ('A' for Active; 'I' for Inactive)
REMARK    1  A    between atoms: C2_2  and  C3_3 
REMARK    2  A    between atoms: C5_8  and  C6_9 
REMARK    3  A    between atoms: C6_9  and  N2_10 
REMARK    4  A    between atoms: N3_13  and  C9_14 
REMARK    5  A    between atoms: C9_14  and  C10_15 
REMARK    6  A    between atoms: C10_15  and  C11_16 
REMARK    7  A    between atoms: C11_16  and  C12_17 
REMARK    8  A    between atoms: C12_17  and  C13_18 
REMARK    9  A    between atoms: C19_24  and  C20_25 
REMARK   10  A    between atoms: C24_31  and  O4_32 
REMARK   11  A    between atoms: C25_34  and  O5_35 
ROOT
HETATM    1  C3  UNL     1       2.907   6.863  23.360  1.00  0.00     0.082 C 
HETATM    2  N1  UNL     1       4.296   7.057  23.715  1.00  0.00    -0.345 N 
ATOM      3  H1  UNL     1       4.551   7.521  24.586  1.00  0.00     0.163 HD
HETATM    4  C4  UNL     1       5.312   6.580  22.805  1.00  0.00     0.232 C 
HETATM    5  O1  UNL     1       6.457   7.016  22.980  1.00  0.00    -0.272 OA
HETATM    6  C5  UNL     1       4.878   5.621  21.757  1.00  0.00     0.106 C 
HETATM    7  C19 UNL     1       4.245   6.441  20.686  1.00  0.00     0.109 C 
HETATM    8  C21 UNL     1       2.900   7.003  20.897  1.00  0.00     0.024 C 
HETATM    9  C22 UNL     1       2.636   7.718  22.176  1.00  0.00     0.017 C 
HETATM   10  C23 UNL     1       1.131   8.030  22.188  1.00  0.00     0.013 C 
HETATM   11  C24 UNL     1       3.872   4.729  22.477  1.00  0.00     0.170 C 
HETATM   12  C25 UNL     1       2.628   5.439  22.933  1.00  0.00     0.180 C 
ENDROOT
BRANCH   6  13
HETATM   13  C6  UNL     1       5.923   4.860  21.078  1.00  0.00     0.260 C 
BRANCH  13  14
HETATM   14  N2  UNL     1       5.909   3.607  20.503  1.00  0.00    -0.061 N 
HETATM   15  C7  UNL     1       7.319   3.518  19.989  1.00  0.00     0.265 C 
HETATM   16  C8  UNL     1       7.715   2.148  19.620  1.00  0.00     0.265 C 
HETATM   17  N3  UNL     1       6.492   1.539  19.064  1.00  0.00    -0.062 N 
HETATM   18  C15 UNL     1       5.927   2.600  18.249  1.00  0.00     0.265 C 
HETATM   19  C17 UNL     1       5.691   1.250  20.224  1.00  0.00     0.265 C 
HETATM   20  C16 UNL     1       5.145   3.474  19.252  1.00  0.00     0.265 C 
HETATM   21  C18 UNL     1       5.744   2.413  21.240  1.00  0.00     0.265 C 
BRANCH  17  22
HETATM   22  C9  UNL     1       6.878   0.373  18.326  1.00  0.00     0.237 C 
BRANCH  22  23
HETATM   23  C10 UNL     1       8.339   0.089  18.360  1.00  0.00     0.028 C 
BRANCH  23  24
HETATM   24  C11 UNL     1       8.775  -0.454  17.023  1.00  0.00     0.002 C 
BRANCH  24  25
HETATM   25  C12 UNL     1       9.954  -1.370  17.123  1.00  0.00    -0.000 C 
BRANCH  25  26
HETATM   26  C13 UNL     1       9.857  -2.520  16.131  1.00  0.00    -0.005 C 
HETATM   27  C14 UNL     1      11.186  -3.228  16.078  1.00  0.00     0.005 C 
ENDBRANCH  25  26
ENDBRANCH  24  25
ENDBRANCH  23  24
ENDBRANCH  22  23
ENDBRANCH  17  22
ENDBRANCH  13  14
ENDBRANCH   6  13
BRANCH   7  28
HETATM   28  C20 UNL     1       5.131   7.508  20.194  1.00  0.00     0.178 C 
HETATM   29  O2  UNL     1       4.724   8.722  20.280  1.00  0.00    -0.648 OA
HETATM   30  O3  UNL     1       6.381   7.400  19.631  1.00  0.00    -0.648 OA
ENDBRANCH   7  28
BRANCH  11  31
HETATM   31  O4  UNL     1       4.352   4.126  23.598  1.00  0.00    -0.392 OA
ATOM     32  H4  UNL     1       3.701   3.968  24.271  1.00  0.00     0.210 HD
ENDBRANCH  11  31
BRANCH  12  33
HETATM   33  O5  UNL     1       2.112   4.832  24.118  1.00  0.00    -0.390 OA
ATOM     34  H5  UNL     1       2.821   4.268  24.404  1.00  0.00     0.210 HD
ENDBRANCH  12  33
BRANCH   1  35
HETATM   35  C2  UNL     1       2.030   7.265  24.517  1.00  0.00    -0.003 C 
HETATM   36  C1  UNL     1       2.522   7.933  25.550  1.00  0.00     0.009 C 
ENDBRANCH   1  35
TORSDOF 11
ENDMDL
