MODEL 1
REMARK VINA RESULT: -7.348594703      0.000      0.000
REMARK  13 active torsions:
REMARK  status: ('A' for Active; 'I' for Inactive)
REMARK    1  A    between atoms: C2_2  and  C3_3 
REMARK    2  A    between atoms: C3_3  and  N1_4 
REMARK    3  A    between atoms: C7_8  and  N2_9 
REMARK    4  A    between atoms: C7_8  and  C12_20 
REMARK       I    between atoms: N2_9  and  C8_11 
REMARK       I    between atoms: C8_11  and  N3_13 
REMARK    5  A    between atoms: C9_15  and  N4_17 
REMARK       I    between atoms: C12_20  and  N5_22 
REMARK    6  A    between atoms: N5_22  and  C13_24 
REMARK    7  A    between atoms: C13_24  and  C14_25 
REMARK    8  A    between atoms: C14_25  and  N6_26 
REMARK    9  A    between atoms: N6_26  and  C15_27 
REMARK   10  A    between atoms: C15_27  and  C16_28 
REMARK   11  A    between atoms: C16_28  and  C17_29 
REMARK   12  A    between atoms: C18_30  and  C19_31 
REMARK   13  A    between atoms: C19_31  and  N7_32 
ROOT
HETATM    1  C12 UNL     1       5.700   5.039  20.349  1.00  0.00     0.267 C 
HETATM    2  O2  UNL     1       5.609   5.890  19.448  1.00  0.00    -0.269 OA
HETATM    3  N5  UNL     1       6.117   5.376  21.645  1.00  0.00    -0.356 N 
ATOM      4  H5  UNL     1       6.171   4.640  22.349  1.00  0.00     0.162 HD
ENDROOT
BRANCH   1   5
HETATM    5  C7  UNL     1       5.343   3.611  20.001  1.00  0.00     0.196 C 
HETATM    6  N1  UNL     1       6.349   3.111  19.191  1.00  0.00    -0.336 N 
HETATM    7  C4  UNL     1       5.930   2.660  17.931  1.00  0.00     0.066 C 
HETATM    8  C5  UNL     1       4.568   3.264  17.738  1.00  0.00     0.050 C 
HETATM    9  C6  UNL     1       4.131   3.665  19.102  1.00  0.00     0.070 C 
BRANCH   6  10
HETATM   10  C3  UNL     1       7.509   2.563  19.760  1.00  0.00     0.092 C 
BRANCH  10  11
HETATM   11  C2  UNL     1       7.701   1.172  19.205  1.00  0.00     0.007 C 
HETATM   12  C1  UNL     1       8.884   0.673  18.952  1.00  0.00     0.012 C 
ENDBRANCH  10  11
ENDBRANCH   6  10
BRANCH   5  13
HETATM   13  N2  UNL     1       4.975   2.880  21.182  1.00  0.00    -0.308 N 
HETATM   14  C8  UNL     1       4.513   1.573  21.244  1.00  0.00     0.323 C 
HETATM   15  O1  UNL     1       4.377   0.892  20.205  1.00  0.00    -0.247 OA
HETATM   16  N3  UNL     1       4.186   0.977  22.485  1.00  0.00    -0.299 N 
HETATM   17  C9  UNL     1       3.077   0.410  22.747  1.00  0.00     0.076 C 
ATOM     18  H3  UNL     1       4.889   1.004  23.223  1.00  0.00     0.171 HD
HETATM   19  C10 UNL     1       2.838  -0.184  24.085  1.00  0.00     0.089 C 
ATOM     20  H2  UNL     1       5.062   3.374  22.070  1.00  0.00     0.167 HD
BRANCH  17  21
HETATM   21  N4  UNL     1       2.045   0.329  21.780  1.00  0.00    -0.384 N 
HETATM   22  C11 UNL     1       1.453  -0.884  21.313  1.00  0.00     0.147 C 
ATOM     23  H4  UNL     1       1.698   1.205  21.388  1.00  0.00     0.160 HD
ENDBRANCH  17  21
ENDBRANCH   5  13
ENDBRANCH   1   5
BRANCH   3  24
HETATM   24  C13 UNL     1       6.469   6.715  22.021  1.00  0.00     0.150 C 
BRANCH  24  25
HETATM   25  C14 UNL     1       7.938   6.929  22.280  1.00  0.00     0.257 C 
BRANCH  25  26
HETATM   26  N6  UNL     1       8.389   8.237  21.890  1.00  0.00    -0.065 N 
HETATM   27  C20 UNL     1       7.214   9.080  21.779  1.00  0.00     0.237 C 
HETATM   28  C21 UNL     1       7.523  10.377  21.056  1.00  0.00     0.028 C 
HETATM   29  C22 UNL     1       7.697  10.072  19.594  1.00  0.00     0.003 C 
HETATM   30  C23 UNL     1       7.937   8.571  19.488  1.00  0.00     0.028 C 
HETATM   31  C24 UNL     1       8.927   8.097  20.529  1.00  0.00     0.237 C 
BRANCH  26  32
HETATM   32  C15 UNL     1       9.316   8.864  22.739  1.00  0.00     0.249 C 
BRANCH  32  33
HETATM   33  C16 UNL     1       8.900   9.159  24.127  1.00  0.00     0.122 C 
BRANCH  33  34
HETATM   34  C17 UNL     1       9.798   8.581  25.131  1.00  0.00    -0.103 C 
HETATM   35  C18 UNL     1      10.559   8.087  25.954  1.00  0.00    -0.079 C 
BRANCH  35  36
HETATM   36  C19 UNL     1      11.440   7.487  26.929  1.00  0.00     0.323 C 
BRANCH  36  37
HETATM   37  N7  UNL     1      10.667   6.587  27.757  1.00  0.00    -0.069 N 
ATOM     38  H73 UNL     1       9.895   7.057  28.230  1.00  0.00     0.275 HD
ATOM     39  H72 UNL     1      10.114   5.928  27.208  1.00  0.00     0.275 HD
ATOM     40  H71 UNL     1      11.298   6.121  28.408  1.00  0.00     0.275 HD
ENDBRANCH  36  37
ENDBRANCH  35  36
ENDBRANCH  33  34
ENDBRANCH  32  33
ENDBRANCH  26  32
ENDBRANCH  25  26
ENDBRANCH  24  25
ENDBRANCH   3  24
TORSDOF 13
ENDMDL
MODEL 2
REMARK VINA RESULT: -7.327393458      2.195      8.420
REMARK  13 active torsions:
REMARK  status: ('A' for Active; 'I' for Inactive)
REMARK    1  A    between atoms: C2_2  and  C3_3 
REMARK    2  A    between atoms: C3_3  and  N1_4 
REMARK    3  A    between atoms: C7_8  and  N2_9 
REMARK    4  A    between atoms: C7_8  and  C12_20 
REMARK       I    between atoms: N2_9  and  C8_11 
REMARK       I    between atoms: C8_11  and  N3_13 
REMARK    5  A    between atoms: C9_15  and  N4_17 
REMARK       I    between atoms: C12_20  and  N5_22 
REMARK    6  A    between atoms: N5_22  and  C13_24 
REMARK    7  A    between atoms: C13_24  and  C14_25 
REMARK    8  A    between atoms: C14_25  and  N6_26 
REMARK    9  A    between atoms: N6_26  and  C15_27 
REMARK   10  A    between atoms: C15_27  and  C16_28 
REMARK   11  A    between atoms: C16_28  and  C17_29 
REMARK   12  A    between atoms: C18_30  and  C19_31 
REMARK   13  A    between atoms: C19_31  and  N7_32 
ROOT
HETATM    1  C12 UNL     1       6.861   5.416  20.755  1.00  0.00     0.267 C 
HETATM    2  O2  UNL     1       7.666   4.494  20.974  1.00  0.00    -0.269 OA
HETATM    3  N5  UNL     1       5.750   5.244  19.916  1.00  0.00    -0.356 N 
ATOM      4  H5  UNL     1       5.119   6.032  19.772  1.00  0.00     0.162 HD
ENDROOT
BRANCH   1   5
HETATM    5  C7  UNL     1       7.119   6.745  21.429  1.00  0.00     0.196 C 
HETATM    6  N1  UNL     1       6.060   7.584  21.124  1.00  0.00    -0.336 N 
HETATM    7  C4  UNL     1       6.413   8.774  20.471  1.00  0.00     0.066 C 
HETATM    8  C5  UNL     1       7.803   8.533  19.954  1.00  0.00     0.050 C 
HETATM    9  C6  UNL     1       8.305   7.371  20.732  1.00  0.00     0.070 C 
BRANCH   6  10
HETATM   10  C3  UNL     1       4.887   7.551  21.894  1.00  0.00     0.092 C 
BRANCH  10  11
HETATM   11  C2  UNL     1       3.702   7.646  20.963  1.00  0.00     0.007 C 
HETATM   12  C1  UNL     1       2.676   6.840  21.047  1.00  0.00     0.012 C 
ENDBRANCH  10  11
ENDBRANCH   6  10
BRANCH   5  13
HETATM   13  N2  UNL     1       7.478   6.551  22.807  1.00  0.00    -0.308 N 
HETATM   14  C8  UNL     1       7.784   7.536  23.735  1.00  0.00     0.323 C 
HETATM   15  O1  UNL     1       7.765   8.744  23.417  1.00  0.00    -0.247 OA
HETATM   16  N3  UNL     1       8.123   7.197  25.066  1.00  0.00    -0.299 N 
HETATM   17  C9  UNL     1       9.171   7.591  25.670  1.00  0.00     0.076 C 
ATOM     18  H3  UNL     1       7.480   6.593  25.579  1.00  0.00     0.171 HD
HETATM   19  C10 UNL     1       9.430   7.174  27.071  1.00  0.00     0.089 C 
ATOM     20  H2  UNL     1       7.512   5.587  23.138  1.00  0.00     0.167 HD
BRANCH  17  21
HETATM   21  N4  UNL     1      10.117   8.430  25.032  1.00  0.00    -0.384 N 
HETATM   22  C11 UNL     1      11.450   8.661  25.491  1.00  0.00     0.147 C 
ATOM     23  H4  UNL     1       9.823   8.907  24.179  1.00  0.00     0.160 HD
ENDBRANCH  17  21
ENDBRANCH   5  13
ENDBRANCH   1   5
BRANCH   3  24
HETATM   24  C13 UNL     1       5.466   4.004  19.253  1.00  0.00     0.150 C 
BRANCH  24  25
HETATM   25  C14 UNL     1       4.241   3.287  19.760  1.00  0.00     0.257 C 
BRANCH  25  26
HETATM   26  N6  UNL     1       4.556   2.072  20.461  1.00  0.00    -0.065 N 
HETATM   27  C20 UNL     1       3.323   1.317  20.583  1.00  0.00     0.237 C 
HETATM   28  C21 UNL     1       3.457   0.188  21.586  1.00  0.00     0.028 C 
HETATM   29  C22 UNL     1       3.472   0.783  22.967  1.00  0.00     0.003 C 
HETATM   30  C23 UNL     1       3.794   2.262  22.799  1.00  0.00     0.028 C 
HETATM   31  C24 UNL     1       4.933   2.470  21.825  1.00  0.00     0.237 C 
BRANCH  26  32
HETATM   32  C15 UNL     1       5.536   1.247  19.885  1.00  0.00     0.249 C 
BRANCH  32  33
HETATM   33  C16 UNL     1       6.859   1.174  20.544  1.00  0.00     0.122 C 
BRANCH  33  34
HETATM   34  C17 UNL     1       7.923   0.718  19.645  1.00  0.00    -0.103 C 
HETATM   35  C18 UNL     1       8.801   0.318  18.891  1.00  0.00    -0.079 C 
BRANCH  35  36
HETATM   36  C19 UNL     1       9.851  -0.160  18.022  1.00  0.00     0.323 C 
BRANCH  36  37
HETATM   37  N7  UNL     1       9.345  -0.202  16.667  1.00  0.00    -0.069 N 
ATOM     38  H73 UNL     1       8.672  -0.955  16.524  1.00  0.00     0.275 HD
ATOM     39  H72 UNL     1       8.726   0.581  16.456  1.00  0.00     0.275 HD
ATOM     40  H71 UNL     1      10.137  -0.258  16.026  1.00  0.00     0.275 HD
ENDBRANCH  36  37
ENDBRANCH  35  36
ENDBRANCH  33  34
ENDBRANCH  32  33
ENDBRANCH  26  32
ENDBRANCH  25  26
ENDBRANCH  24  25
ENDBRANCH   3  24
TORSDOF 13
ENDMDL
MODEL 3
REMARK VINA RESULT: -7.251395271      2.728      8.826
REMARK  13 active torsions:
REMARK  status: ('A' for Active; 'I' for Inactive)
REMARK    1  A    between atoms: C2_2  and  C3_3 
REMARK    2  A    between atoms: C3_3  and  N1_4 
REMARK    3  A    between atoms: C7_8  and  N2_9 
REMARK    4  A    between atoms: C7_8  and  C12_20 
REMARK       I    between atoms: N2_9  and  C8_11 
REMARK       I    between atoms: C8_11  and  N3_13 
REMARK    5  A    between atoms: C9_15  and  N4_17 
REMARK       I    between atoms: C12_20  and  N5_22 
REMARK    6  A    between atoms: N5_22  and  C13_24 
REMARK    7  A    between atoms: C13_24  and  C14_25 
REMARK    8  A    between atoms: C14_25  and  N6_26 
REMARK    9  A    between atoms: N6_26  and  C15_27 
REMARK   10  A    between atoms: C15_27  and  C16_28 
REMARK   11  A    between atoms: C16_28  and  C17_29 
REMARK   12  A    between atoms: C18_30  and  C19_31 
REMARK   13  A    between atoms: C19_31  and  N7_32 
ROOT
HETATM    1  C12 UNL     1       6.560   5.351  20.810  1.00  0.00     0.267 C 
HETATM    2  O2  UNL     1       5.868   5.352  19.778  1.00  0.00    -0.269 OA
HETATM    3  N5  UNL     1       7.022   4.161  21.391  1.00  0.00    -0.356 N 
ATOM      4  H5  UNL     1       7.590   4.217  22.236  1.00  0.00     0.162 HD
ENDROOT
BRANCH   1   5
HETATM    5  C7  UNL     1       6.896   6.691  21.428  1.00  0.00     0.196 C 
HETATM    6  N1  UNL     1       5.856   7.559  21.138  1.00  0.00    -0.336 N 
HETATM    7  C4  UNL     1       6.224   8.713  20.431  1.00  0.00     0.066 C 
HETATM    8  C5  UNL     1       7.581   8.403  19.866  1.00  0.00     0.050 C 
HETATM    9  C6  UNL     1       8.073   7.248  20.663  1.00  0.00     0.070 C 
BRANCH   6  10
HETATM   10  C3  UNL     1       4.716   7.595  21.956  1.00  0.00     0.092 C 
BRANCH  10  11
HETATM   11  C2  UNL     1       3.493   7.614  21.070  1.00  0.00     0.007 C 
HETATM   12  C1  UNL     1       2.494   6.785  21.234  1.00  0.00     0.012 C 
ENDBRANCH  10  11
ENDBRANCH   6  10
BRANCH   5  13
HETATM   13  N2  UNL     1       7.305   6.528  22.795  1.00  0.00    -0.308 N 
HETATM   14  C8  UNL     1       7.675   7.531  23.680  1.00  0.00     0.323 C 
HETATM   15  O1  UNL     1       7.676   8.729  23.325  1.00  0.00    -0.247 OA
HETATM   16  N3  UNL     1       8.058   7.223  25.007  1.00  0.00    -0.299 N 
HETATM   17  C9  UNL     1       9.140   7.605  25.556  1.00  0.00     0.076 C 
ATOM     18  H3  UNL     1       7.420   6.654  25.563  1.00  0.00     0.171 HD
HETATM   19  C10 UNL     1       9.444   7.224  26.957  1.00  0.00     0.089 C 
ATOM     20  H2  UNL     1       7.326   5.574  23.155  1.00  0.00     0.167 HD
BRANCH  17  21
HETATM   21  N4  UNL     1      10.082   8.397  24.855  1.00  0.00    -0.384 N 
HETATM   22  C11 UNL     1      11.056   9.246  25.465  1.00  0.00     0.147 C 
ATOM     23  H4  UNL     1      10.063   8.360  23.835  1.00  0.00     0.160 HD
ENDBRANCH  17  21
ENDBRANCH   5  13
ENDBRANCH   1   5
BRANCH   3  24
HETATM   24  C13 UNL     1       6.726   2.868  20.843  1.00  0.00     0.150 C 
BRANCH  24  25
HETATM   25  C14 UNL     1       7.218   2.656  19.434  1.00  0.00     0.257 C 
BRANCH  25  26
HETATM   26  N6  UNL     1       6.938   1.336  18.938  1.00  0.00    -0.065 N 
HETATM   27  C20 UNL     1       6.734   1.451  17.507  1.00  0.00     0.237 C 
HETATM   28  C21 UNL     1       6.106   0.197  16.929  1.00  0.00     0.028 C 
HETATM   29  C22 UNL     1       4.661   0.159  17.342  1.00  0.00     0.003 C 
HETATM   30  C23 UNL     1       4.518   1.124  18.512  1.00  0.00     0.028 C 
HETATM   31  C24 UNL     1       5.641   0.949  19.511  1.00  0.00     0.237 C 
BRANCH  26  32
HETATM   32  C15 UNL     1       7.911   0.352  19.178  1.00  0.00     0.249 C 
BRANCH  32  33
HETATM   33  C16 UNL     1       9.277   0.582  18.661  1.00  0.00     0.122 C 
BRANCH  33  34
HETATM   34  C17 UNL     1       9.787  -0.539  17.868  1.00  0.00    -0.103 C 
HETATM   35  C18 UNL     1      10.223  -1.485  17.223  1.00  0.00    -0.079 C 
BRANCH  35  36
HETATM   36  C19 UNL     1      10.757  -2.586  16.455  1.00  0.00     0.323 C 
BRANCH  36  37
HETATM   37  N7  UNL     1      12.189  -2.637  16.655  1.00  0.00    -0.069 N 
ATOM     38  H73 UNL     1      12.592  -3.530  16.371  1.00  0.00     0.275 HD
ATOM     39  H72 UNL     1      12.696  -2.040  16.002  1.00  0.00     0.275 HD
ATOM     40  H71 UNL     1      12.389  -2.409  17.629  1.00  0.00     0.275 HD
ENDBRANCH  36  37
ENDBRANCH  35  36
ENDBRANCH  33  34
ENDBRANCH  32  33
ENDBRANCH  26  32
ENDBRANCH  25  26
ENDBRANCH  24  25
ENDBRANCH   3  24
TORSDOF 13
ENDMDL
MODEL 4
REMARK VINA RESULT: -7.233876174      2.245      8.477
REMARK  13 active torsions:
REMARK  status: ('A' for Active; 'I' for Inactive)
REMARK    1  A    between atoms: C2_2  and  C3_3 
REMARK    2  A    between atoms: C3_3  and  N1_4 
REMARK    3  A    between atoms: C7_8  and  N2_9 
REMARK    4  A    between atoms: C7_8  and  C12_20 
REMARK       I    between atoms: N2_9  and  C8_11 
REMARK       I    between atoms: C8_11  and  N3_13 
REMARK    5  A    between atoms: C9_15  and  N4_17 
REMARK       I    between atoms: C12_20  and  N5_22 
REMARK    6  A    between atoms: N5_22  and  C13_24 
REMARK    7  A    between atoms: C13_24  and  C14_25 
REMARK    8  A    between atoms: C14_25  and  N6_26 
REMARK    9  A    between atoms: N6_26  and  C15_27 
REMARK   10  A    between atoms: C15_27  and  C16_28 
REMARK   11  A    between atoms: C16_28  and  C17_29 
REMARK   12  A    between atoms: C18_30  and  C19_31 
REMARK   13  A    between atoms: C19_31  and  N7_32 
ROOT
HETATM    1  C12 UNL     1       7.122   5.981  21.010  1.00  0.00     0.267 C 
HETATM    2  O2  UNL     1       6.493   6.135  19.949  1.00  0.00    -0.269 OA
HETATM    3  N5  UNL     1       7.580   4.721  21.422  1.00  0.00    -0.356 N 
ATOM      4  H5  UNL     1       8.093   4.651  22.300  1.00  0.00     0.162 HD
ENDROOT
BRANCH   1   5
HETATM    5  C7  UNL     1       7.381   7.210  21.853  1.00  0.00     0.196 C 
HETATM    6  N1  UNL     1       6.309   8.070  21.683  1.00  0.00    -0.336 N 
HETATM    7  C4  UNL     1       6.638   9.342  21.191  1.00  0.00     0.066 C 
HETATM    8  C5  UNL     1       8.020   9.189  20.623  1.00  0.00     0.050 C 
HETATM    9  C6  UNL     1       8.547   7.938  21.228  1.00  0.00     0.070 C 
BRANCH   6  10
HETATM   10  C3  UNL     1       5.150   7.920  22.461  1.00  0.00     0.092 C 
BRANCH  10  11
HETATM   11  C2  UNL     1       3.990   7.629  21.539  1.00  0.00     0.007 C 
HETATM   12  C1  UNL     1       3.160   6.639  21.745  1.00  0.00     0.012 C 
ENDBRANCH  10  11
ENDBRANCH   6  10
BRANCH   5  13
HETATM   13  N2  UNL     1       7.767   6.836  23.186  1.00  0.00    -0.308 N 
HETATM   14  C8  UNL     1       8.057   7.689  24.241  1.00  0.00     0.323 C 
HETATM   15  O1  UNL     1       7.998   8.929  24.096  1.00  0.00    -0.247 OA
HETATM   16  N3  UNL     1       8.426   7.178  25.507  1.00  0.00    -0.299 N 
HETATM   17  C9  UNL     1       9.472   7.516  26.149  1.00  0.00     0.076 C 
ATOM     18  H3  UNL     1       7.810   6.488  25.937  1.00  0.00     0.171 HD
HETATM   19  C10 UNL     1       9.765   6.915  27.473  1.00  0.00     0.089 C 
ATOM     20  H2  UNL     1       7.834   5.836  23.377  1.00  0.00     0.167 HD
BRANCH  17  21
HETATM   21  N4  UNL     1      10.382   8.466  25.625  1.00  0.00    -0.384 N 
HETATM   22  C11 UNL     1      11.805   8.340  25.651  1.00  0.00     0.147 C 
ATOM     23  H4  UNL     1       9.992   9.305  25.195  1.00  0.00     0.160 HD
ENDBRANCH  17  21
ENDBRANCH   5  13
ENDBRANCH   1   5
BRANCH   3  24
HETATM   24  C13 UNL     1       7.355   3.528  20.658  1.00  0.00     0.150 C 
BRANCH  24  25
HETATM   25  C14 UNL     1       6.318   2.599  21.235  1.00  0.00     0.257 C 
BRANCH  25  26
HETATM   26  N6  UNL     1       5.256   2.306  20.311  1.00  0.00    -0.065 N 
HETATM   27  C20 UNL     1       4.325   3.417  20.362  1.00  0.00     0.237 C 
HETATM   28  C21 UNL     1       3.008   3.074  19.693  1.00  0.00     0.028 C 
HETATM   29  C22 UNL     1       2.255   2.131  20.588  1.00  0.00     0.003 C 
HETATM   30  C23 UNL     1       3.271   1.555  21.567  1.00  0.00     0.028 C 
HETATM   31  C24 UNL     1       4.543   1.144  20.860  1.00  0.00     0.237 C 
BRANCH  26  32
HETATM   32  C15 UNL     1       5.625   2.087  18.973  1.00  0.00     0.249 C 
BRANCH  32  33
HETATM   33  C16 UNL     1       5.948   0.705  18.557  1.00  0.00     0.122 C 
BRANCH  33  34
HETATM   34  C17 UNL     1       7.389   0.449  18.486  1.00  0.00    -0.103 C 
HETATM   35  C18 UNL     1       8.592   0.233  18.404  1.00  0.00    -0.079 C 
BRANCH  35  36
HETATM   36  C19 UNL     1      10.007  -0.046  18.315  1.00  0.00     0.323 C 
BRANCH  36  37
HETATM   37  N7  UNL     1      10.217  -1.033  17.278  1.00  0.00    -0.069 N 
ATOM     38  H73 UNL     1       9.670  -1.880  17.427  1.00  0.00     0.275 HD
ATOM     39  H72 UNL     1       9.807  -0.756  16.386  1.00  0.00     0.275 HD
ATOM     40  H71 UNL     1      11.217  -1.220  17.206  1.00  0.00     0.275 HD
ENDBRANCH  36  37
ENDBRANCH  35  36
ENDBRANCH  33  34
ENDBRANCH  32  33
ENDBRANCH  26  32
ENDBRANCH  25  26
ENDBRANCH  24  25
ENDBRANCH   3  24
TORSDOF 13
ENDMDL
MODEL 5
REMARK VINA RESULT: -7.167026060      2.891      8.593
REMARK  13 active torsions:
REMARK  status: ('A' for Active; 'I' for Inactive)
REMARK    1  A    between atoms: C2_2  and  C3_3 
REMARK    2  A    between atoms: C3_3  and  N1_4 
REMARK    3  A    between atoms: C7_8  and  N2_9 
REMARK    4  A    between atoms: C7_8  and  C12_20 
REMARK       I    between atoms: N2_9  and  C8_11 
REMARK       I    between atoms: C8_11  and  N3_13 
REMARK    5  A    between atoms: C9_15  and  N4_17 
REMARK       I    between atoms: C12_20  and  N5_22 
REMARK    6  A    between atoms: N5_22  and  C13_24 
REMARK    7  A    between atoms: C13_24  and  C14_25 
REMARK    8  A    between atoms: C14_25  and  N6_26 
REMARK    9  A    between atoms: N6_26  and  C15_27 
REMARK   10  A    between atoms: C15_27  and  C16_28 
REMARK   11  A    between atoms: C16_28  and  C17_29 
REMARK   12  A    between atoms: C18_30  and  C19_31 
REMARK   13  A    between atoms: C19_31  and  N7_32 
ROOT
HETATM    1  C12 UNL     1       4.482   4.775  22.174  1.00  0.00     0.267 C 
HETATM    2  O2  UNL     1       4.392   3.904  23.056  1.00  0.00    -0.269 OA
HETATM    3  N5  UNL     1       4.351   4.465  20.812  1.00  0.00    -0.356 N 
ATOM      4  H5  UNL     1       4.430   5.219  20.129  1.00  0.00     0.162 HD
ENDROOT
BRANCH   1   5
HETATM    5  C7  UNL     1       4.739   6.197  22.620  1.00  0.00     0.196 C 
HETATM    6  N1  UNL     1       3.510   6.793  22.855  1.00  0.00    -0.336 N 
HETATM    7  C4  UNL     1       3.252   7.944  22.096  1.00  0.00     0.066 C 
HETATM    8  C5  UNL     1       4.250   7.898  20.974  1.00  0.00     0.050 C 
HETATM    9  C6  UNL     1       5.293   6.941  21.428  1.00  0.00     0.070 C 
BRANCH   6  10
HETATM   10  C3  UNL     1       2.875   6.638  24.096  1.00  0.00     0.092 C 
BRANCH  10  11
HETATM   11  C2  UNL     1       2.694   8.005  24.713  1.00  0.00     0.007 C 
HETATM   12  C1  UNL     1       3.303   8.365  25.814  1.00  0.00     0.012 C 
ENDBRANCH  10  11
ENDBRANCH   6  10
BRANCH   5  13
HETATM   13  N2  UNL     1       5.736   6.230  23.654  1.00  0.00    -0.308 N 
HETATM   14  C8  UNL     1       6.398   7.349  24.139  1.00  0.00     0.323 C 
HETATM   15  O1  UNL     1       6.156   8.485  23.679  1.00  0.00    -0.247 OA
HETATM   16  N3  UNL     1       7.363   7.231  25.167  1.00  0.00    -0.299 N 
HETATM   17  C9  UNL     1       8.548   7.691  25.105  1.00  0.00     0.076 C 
ATOM     18  H3  UNL     1       7.089   6.743  26.019  1.00  0.00     0.171 HD
HETATM   19  C10 UNL     1       9.481   7.511  26.244  1.00  0.00     0.089 C 
ATOM     20  H2  UNL     1       5.983   5.336  24.077  1.00  0.00     0.167 HD
BRANCH  17  21
HETATM   21  N4  UNL     1       9.011   8.381  23.958  1.00  0.00    -0.384 N 
HETATM   22  C11 UNL     1      10.225   9.130  23.886  1.00  0.00     0.147 C 
ATOM     23  H4  UNL     1       8.432   8.341  23.119  1.00  0.00     0.160 HD
ENDBRANCH  17  21
ENDBRANCH   5  13
ENDBRANCH   1   5
BRANCH   3  24
HETATM   24  C13 UNL     1       4.110   3.132  20.342  1.00  0.00     0.150 C 
BRANCH  24  25
HETATM   25  C14 UNL     1       4.192   2.970  18.845  1.00  0.00     0.257 C 
BRANCH  25  26
HETATM   26  N6  UNL     1       5.264   2.104  18.435  1.00  0.00    -0.065 N 
HETATM   27  C20 UNL     1       5.402   2.246  16.998  1.00  0.00     0.237 C 
HETATM   28  C21 UNL     1       6.264   1.145  16.409  1.00  0.00     0.028 C 
HETATM   29  C22 UNL     1       5.468  -0.130  16.415  1.00  0.00     0.003 C 
HETATM   30  C23 UNL     1       4.319   0.078  17.393  1.00  0.00     0.028 C 
HETATM   31  C24 UNL     1       4.796   0.731  18.672  1.00  0.00     0.237 C 
BRANCH  26  32
HETATM   32  C15 UNL     1       6.515   2.322  19.034  1.00  0.00     0.249 C 
BRANCH  32  33
HETATM   33  C16 UNL     1       7.094   1.236  19.854  1.00  0.00     0.122 C 
BRANCH  33  34
HETATM   34  C17 UNL     1       8.280   0.627  19.246  1.00  0.00    -0.103 C 
HETATM   35  C18 UNL     1       9.285   0.132  18.749  1.00  0.00    -0.079 C 
BRANCH  35  36
HETATM   36  C19 UNL     1      10.465  -0.437  18.141  1.00  0.00     0.323 C 
BRANCH  36  37
HETATM   37  N7  UNL     1      10.059  -1.234  17.003  1.00  0.00    -0.069 N 
ATOM     38  H73 UNL     1       9.922  -2.216  17.242  1.00  0.00     0.275 HD
ATOM     39  H72 UNL     1       9.106  -1.029  16.702  1.00  0.00     0.275 HD
ATOM     40  H71 UNL     1      10.741  -1.104  16.256  1.00  0.00     0.275 HD
ENDBRANCH  36  37
ENDBRANCH  35  36
ENDBRANCH  33  34
ENDBRANCH  32  33
ENDBRANCH  26  32
ENDBRANCH  25  26
ENDBRANCH  24  25
ENDBRANCH   3  24
TORSDOF 13
ENDMDL
