MODEL 1
REMARK VINA RESULT: -9.043411907      0.000      0.000
REMARK  9 active torsions:
REMARK  status: ('A' for Active; 'I' for Inactive)
REMARK    1  A    between atoms: N1_3  and  C3_4 
REMARK    2  A    between atoms: C3_4  and  C4_5 
REMARK    3  A    between atoms: C4_5  and  C5_6 
REMARK    4  A    between atoms: C5_6  and  C6_7 
REMARK    5  A    between atoms: C6_7  and  C7_8 
REMARK    6  A    between atoms: C7_8  and  N2_9 
REMARK       I    between atoms: N2_9  and  C8_11 
REMARK    7  A    between atoms: N5_18  and  C11_19 
REMARK    8  A    between atoms: C11_19  and  C12_20 
REMARK    9  A    between atoms: C12_20  and  C13_21 
REMARK       I    between atoms: N6_24  and  C16_25 
REMARK       I    between atoms: C16_25  and  N7_27 
ROOT
HETATM    1  C1  UNL     1       4.497   5.910  19.391  1.00  0.00     0.056 C 
HETATM    2  C2  UNL     1       5.032   6.258  20.764  1.00  0.00     0.185 C 
HETATM    3  N1  UNL     1       4.354   5.703  21.840  1.00  0.00    -0.371 N 
HETATM    4  C9  UNL     1       3.919   4.350  21.739  1.00  0.00     0.144 C 
HETATM    5  C10 UNL     1       4.898   3.316  22.169  1.00  0.00     0.147 C 
HETATM    6  N5  UNL     1       6.114   3.301  21.410  1.00  0.00    -0.333 N 
HETATM    7  C20 UNL     1       6.822   4.443  20.945  1.00  0.00     0.321 C 
HETATM    8  O2  UNL     1       8.002   4.195  20.544  1.00  0.00    -0.247 OA
HETATM    9  N10 UNL     1       6.451   5.814  20.849  1.00  0.00    -0.317 N 
HETATM   10  C21 UNL     1       7.482   6.808  20.829  1.00  0.00     0.156 C 
ENDROOT
BRANCH   6  11
HETATM   11  C11 UNL     1       6.656   1.994  21.100  1.00  0.00     0.128 C 
BRANCH  11  12
HETATM   12  C12 UNL     1       6.112   1.479  19.769  1.00  0.00     0.024 C 
BRANCH  12  13
HETATM   13  C13 UNL     1       7.180   0.570  19.160  1.00  0.00    -0.010 C 
HETATM   14  C14 UNL     1       6.714   0.157  17.784  1.00  0.00     0.024 C 
HETATM   15  C15 UNL     1       7.878   0.148  16.790  1.00  0.00     0.128 C 
HETATM   16  N6  UNL     1       9.065  -0.389  17.422  1.00  0.00    -0.334 N 
HETATM   17  C16 UNL     1       9.744  -1.476  16.841  1.00  0.00     0.324 C 
HETATM   18  C18 UNL     1       9.528   0.213  18.645  1.00  0.00     0.128 C 
HETATM   19  O1  UNL     1      10.773  -1.926  17.424  1.00  0.00    -0.247 OA
HETATM   20  N7  UNL     1       9.332  -2.090  15.637  1.00  0.00    -0.285 N 
HETATM   21  C17 UNL     1       9.552  -3.332  15.443  1.00  0.00     0.204 C 
ATOM     22  H7  UNL     1       8.857  -1.539  14.921  1.00  0.00     0.172 HD
HETATM   23  N8  UNL     1       9.131  -3.930  14.228  1.00  0.00    -0.066 NA
HETATM   24  N9  UNL     1      10.206  -4.111  16.416  1.00  0.00    -0.066 NA
HETATM   25  C19 UNL     1       8.513   1.273  19.080  1.00  0.00     0.024 C 
ENDBRANCH  12  13
ENDBRANCH  11  12
ENDBRANCH   6  11
BRANCH   3  26
HETATM   26  C3  UNL     1       3.923   6.424  22.937  1.00  0.00     0.060 C 
BRANCH  26  27
HETATM   27  C4  UNL     1       4.686   7.582  23.481  1.00  0.00     0.044 C 
BRANCH  27  28
HETATM   28  C5  UNL     1       5.934   7.216  24.174  1.00  0.00     0.007 C 
BRANCH  28  29
HETATM   29  C6  UNL     1       6.557   8.410  24.910  1.00  0.00     0.020 C 
BRANCH  29  30
HETATM   30  C7  UNL     1       8.042   8.460  24.800  1.00  0.00     0.122 C 
BRANCH  30  31
HETATM   31  N2  UNL     1       8.615   7.352  25.526  1.00  0.00    -0.365 N 
HETATM   32  C8  UNL     1       9.624   7.448  26.508  1.00  0.00     0.181 C 
HETATM   33  N3  UNL     1       9.310   7.007  27.710  1.00  0.00    -0.374 N 
HETATM   34  N4  UNL     1      10.924   7.979  26.267  1.00  0.00    -0.064 NA
ATOM     35  H32 UNL     1       8.379   6.627  27.882  1.00  0.00     0.158 HD
ATOM     36  H31 UNL     1      10.038   7.077  28.420  1.00  0.00     0.158 HD
ATOM     37  H2  UNL     1       8.260   6.421  25.310  1.00  0.00     0.162 HD
ENDBRANCH  30  31
ENDBRANCH  29  30
ENDBRANCH  28  29
ENDBRANCH  27  28
ENDBRANCH  26  27
ENDBRANCH   3  26
TORSDOF 9
ENDMDL
MODEL 2
REMARK VINA RESULT: -8.904490180      1.341      2.045
REMARK  9 active torsions:
REMARK  status: ('A' for Active; 'I' for Inactive)
REMARK    1  A    between atoms: N1_3  and  C3_4 
REMARK    2  A    between atoms: C3_4  and  C4_5 
REMARK    3  A    between atoms: C4_5  and  C5_6 
REMARK    4  A    between atoms: C5_6  and  C6_7 
REMARK    5  A    between atoms: C6_7  and  C7_8 
REMARK    6  A    between atoms: C7_8  and  N2_9 
REMARK       I    between atoms: N2_9  and  C8_11 
REMARK    7  A    between atoms: N5_18  and  C11_19 
REMARK    8  A    between atoms: C11_19  and  C12_20 
REMARK    9  A    between atoms: C12_20  and  C13_21 
REMARK       I    between atoms: N6_24  and  C16_25 
REMARK       I    between atoms: C16_25  and  N7_27 
ROOT
HETATM    1  C1  UNL     1       4.516   5.716  22.232  1.00  0.00     0.056 C 
HETATM    2  C2  UNL     1       5.230   6.445  21.115  1.00  0.00     0.185 C 
HETATM    3  N1  UNL     1       6.616   6.378  21.132  1.00  0.00    -0.371 N 
HETATM    4  C9  UNL     1       7.228   5.136  21.465  1.00  0.00     0.144 C 
HETATM    5  C10 UNL     1       7.466   4.201  20.332  1.00  0.00     0.147 C 
HETATM    6  N5  UNL     1       6.275   3.780  19.652  1.00  0.00    -0.333 N 
HETATM    7  C20 UNL     1       5.154   4.601  19.348  1.00  0.00     0.321 C 
HETATM    8  O2  UNL     1       4.351   4.089  18.506  1.00  0.00    -0.247 OA
HETATM    9  N10 UNL     1       4.769   5.889  19.812  1.00  0.00    -0.317 N 
HETATM   10  C21 UNL     1       3.899   6.685  18.998  1.00  0.00     0.156 C 
ENDROOT
BRANCH   6  11
HETATM   11  C11 UNL     1       6.231   2.391  19.245  1.00  0.00     0.128 C 
BRANCH  11  12
HETATM   12  C12 UNL     1       7.017   1.512  20.216  1.00  0.00     0.024 C 
BRANCH  12  13
HETATM   13  C13 UNL     1       7.834   0.526  19.381  1.00  0.00    -0.010 C 
HETATM   14  C14 UNL     1       7.016   0.149  18.169  1.00  0.00     0.024 C 
HETATM   15  C15 UNL     1       7.896   0.054  16.920  1.00  0.00     0.128 C 
HETATM   16  N6  UNL     1       9.160  -0.571  17.252  1.00  0.00    -0.334 N 
HETATM   17  C16 UNL     1       9.594  -1.705  16.542  1.00  0.00     0.324 C 
HETATM   18  C18 UNL     1       9.952  -0.004  18.313  1.00  0.00     0.128 C 
HETATM   19  O1  UNL     1      10.700  -2.230  16.863  1.00  0.00    -0.247 OA
HETATM   20  N7  UNL     1       8.856  -2.286  15.486  1.00  0.00    -0.285 N 
HETATM   21  C17 UNL     1       8.931  -3.542  15.267  1.00  0.00     0.204 C 
ATOM     22  H7  UNL     1       8.261  -1.702  14.899  1.00  0.00     0.172 HD
HETATM   23  N8  UNL     1       8.183  -4.106  14.204  1.00  0.00    -0.066 NA
HETATM   24  N9  UNL     1       9.746  -4.367  16.065  1.00  0.00    -0.066 NA
HETATM   25  C19 UNL     1       9.154   1.128  18.963  1.00  0.00     0.024 C 
ENDBRANCH  12  13
ENDBRANCH  11  12
ENDBRANCH   6  11
BRANCH   3  26
HETATM   26  C3  UNL     1       7.445   7.478  21.013  1.00  0.00     0.060 C 
BRANCH  26  27
HETATM   27  C4  UNL     1       7.053   8.828  21.504  1.00  0.00     0.044 C 
BRANCH  27  28
HETATM   28  C5  UNL     1       7.938   9.376  22.548  1.00  0.00     0.007 C 
BRANCH  28  29
HETATM   29  C6  UNL     1       8.537   8.274  23.434  1.00  0.00     0.020 C 
BRANCH  29  30
HETATM   30  C7  UNL     1       8.194   8.427  24.876  1.00  0.00     0.122 C 
BRANCH  30  31
HETATM   31  N2  UNL     1       8.725   7.309  25.617  1.00  0.00    -0.365 N 
HETATM   32  C8  UNL     1       9.718   7.385  26.618  1.00  0.00     0.181 C 
HETATM   33  N3  UNL     1       9.370   6.958  27.815  1.00  0.00    -0.374 N 
HETATM   34  N4  UNL     1      11.035   7.884  26.399  1.00  0.00    -0.064 NA
ATOM     35  H32 UNL     1       8.428   6.600  27.971  1.00  0.00     0.158 HD
ATOM     36  H31 UNL     1      10.087   7.012  28.538  1.00  0.00     0.158 HD
ATOM     37  H2  UNL     1       8.353   6.386  25.398  1.00  0.00     0.162 HD
ENDBRANCH  30  31
ENDBRANCH  29  30
ENDBRANCH  28  29
ENDBRANCH  27  28
ENDBRANCH  26  27
ENDBRANCH   3  26
TORSDOF 9
ENDMDL
MODEL 3
REMARK VINA RESULT: -8.716228922      1.203      1.528
REMARK  9 active torsions:
REMARK  status: ('A' for Active; 'I' for Inactive)
REMARK    1  A    between atoms: N1_3  and  C3_4 
REMARK    2  A    between atoms: C3_4  and  C4_5 
REMARK    3  A    between atoms: C4_5  and  C5_6 
REMARK    4  A    between atoms: C5_6  and  C6_7 
REMARK    5  A    between atoms: C6_7  and  C7_8 
REMARK    6  A    between atoms: C7_8  and  N2_9 
REMARK       I    between atoms: N2_9  and  C8_11 
REMARK    7  A    between atoms: N5_18  and  C11_19 
REMARK    8  A    between atoms: C11_19  and  C12_20 
REMARK    9  A    between atoms: C12_20  and  C13_21 
REMARK       I    between atoms: N6_24  and  C16_25 
REMARK       I    between atoms: C16_25  and  N7_27 
ROOT
HETATM    1  C1  UNL     1       2.394   5.420  20.961  1.00  0.00     0.056 C 
HETATM    2  C2  UNL     1       3.675   6.217  21.075  1.00  0.00     0.185 C 
HETATM    3  N1  UNL     1       4.585   5.775  22.026  1.00  0.00    -0.371 N 
HETATM    4  C9  UNL     1       4.789   4.372  22.164  1.00  0.00     0.144 C 
HETATM    5  C10 UNL     1       5.827   3.773  21.283  1.00  0.00     0.147 C 
HETATM    6  N5  UNL     1       5.561   3.904  19.881  1.00  0.00    -0.333 N 
HETATM    7  C20 UNL     1       5.014   5.049  19.238  1.00  0.00     0.321 C 
HETATM    8  O2  UNL     1       5.128   5.038  17.972  1.00  0.00    -0.247 OA
HETATM    9  N10 UNL     1       4.363   6.204  19.754  1.00  0.00    -0.317 N 
HETATM   10  C21 UNL     1       4.365   7.405  18.972  1.00  0.00     0.156 C 
ENDROOT
BRANCH   6  11
HETATM   11  C11 UNL     1       5.887   2.756  19.060  1.00  0.00     0.128 C 
BRANCH  11  12
HETATM   12  C12 UNL     1       6.027   1.497  19.913  1.00  0.00     0.024 C 
BRANCH  12  13
HETATM   13  C13 UNL     1       7.116   0.633  19.277  1.00  0.00    -0.010 C 
HETATM   14  C14 UNL     1       6.622   0.177  17.925  1.00  0.00     0.024 C 
HETATM   15  C15 UNL     1       7.748   0.211  16.889  1.00  0.00     0.128 C 
HETATM   16  N6  UNL     1       8.983  -0.258  17.483  1.00  0.00    -0.334 N 
HETATM   17  C16 UNL     1       9.693  -1.318  16.892  1.00  0.00     0.324 C 
HETATM   18  C18 UNL     1       9.459   0.385  18.680  1.00  0.00     0.128 C 
HETATM   19  O1  UNL     1      10.764  -1.707  17.442  1.00  0.00    -0.247 OA
HETATM   20  N7  UNL     1       9.269  -1.969  15.711  1.00  0.00    -0.285 N 
HETATM   21  C17 UNL     1       9.544  -3.202  15.525  1.00  0.00     0.204 C 
ATOM     22  H7  UNL     1       8.742  -1.453  15.006  1.00  0.00     0.172 HD
HETATM   23  N8  UNL     1       9.109  -3.837  14.335  1.00  0.00    -0.066 NA
HETATM   24  N9  UNL     1      10.270  -3.933  16.484  1.00  0.00    -0.066 NA
HETATM   25  C19 UNL     1       8.409   1.400  19.139  1.00  0.00     0.024 C 
ENDBRANCH  12  13
ENDBRANCH  11  12
ENDBRANCH   6  11
BRANCH   3  26
HETATM   26  C3  UNL     1       5.183   6.595  22.964  1.00  0.00     0.060 C 
BRANCH  26  27
HETATM   27  C4  UNL     1       6.132   7.678  22.587  1.00  0.00     0.044 C 
BRANCH  27  28
HETATM   28  C5  UNL     1       7.553   7.297  22.668  1.00  0.00     0.007 C 
BRANCH  28  29
HETATM   29  C6  UNL     1       8.387   8.333  23.435  1.00  0.00     0.020 C 
BRANCH  29  30
HETATM   30  C7  UNL     1       8.035   8.418  24.881  1.00  0.00     0.122 C 
BRANCH  30  31
HETATM   31  N2  UNL     1       8.624   7.305  25.584  1.00  0.00    -0.365 N 
HETATM   32  C8  UNL     1       9.651   7.393  26.549  1.00  0.00     0.181 C 
HETATM   33  N3  UNL     1       9.360   6.939  27.751  1.00  0.00    -0.374 N 
HETATM   34  N4  UNL     1      10.945   7.930  26.289  1.00  0.00    -0.064 NA
ATOM     35  H32 UNL     1       8.434   6.555  27.937  1.00  0.00     0.158 HD
ATOM     36  H31 UNL     1      10.102   7.003  28.448  1.00  0.00     0.158 HD
ATOM     37  H2  UNL     1       8.268   6.375  25.366  1.00  0.00     0.162 HD
ENDBRANCH  30  31
ENDBRANCH  29  30
ENDBRANCH  28  29
ENDBRANCH  27  28
ENDBRANCH  26  27
ENDBRANCH   3  26
TORSDOF 9
ENDMDL
MODEL 4
REMARK VINA RESULT: -8.384939986      1.414      1.836
REMARK  9 active torsions:
REMARK  status: ('A' for Active; 'I' for Inactive)
REMARK    1  A    between atoms: N1_3  and  C3_4 
REMARK    2  A    between atoms: C3_4  and  C4_5 
REMARK    3  A    between atoms: C4_5  and  C5_6 
REMARK    4  A    between atoms: C5_6  and  C6_7 
REMARK    5  A    between atoms: C6_7  and  C7_8 
REMARK    6  A    between atoms: C7_8  and  N2_9 
REMARK       I    between atoms: N2_9  and  C8_11 
REMARK    7  A    between atoms: N5_18  and  C11_19 
REMARK    8  A    between atoms: C11_19  and  C12_20 
REMARK    9  A    between atoms: C12_20  and  C13_21 
REMARK       I    between atoms: N6_24  and  C16_25 
REMARK       I    between atoms: C16_25  and  N7_27 
ROOT
HETATM    1  C1  UNL     1       2.268   5.153  20.805  1.00  0.00     0.056 C 
HETATM    2  C2  UNL     1       3.479   6.056  20.900  1.00  0.00     0.185 C 
HETATM    3  N1  UNL     1       4.410   5.724  21.875  1.00  0.00    -0.371 N 
HETATM    4  C9  UNL     1       4.725   4.348  22.068  1.00  0.00     0.144 C 
HETATM    5  C10 UNL     1       5.819   3.804  21.220  1.00  0.00     0.147 C 
HETATM    6  N5  UNL     1       5.560   3.861  19.811  1.00  0.00    -0.333 N 
HETATM    7  C20 UNL     1       4.930   4.934  19.121  1.00  0.00     0.321 C 
HETATM    8  O2  UNL     1       5.060   4.886  17.858  1.00  0.00    -0.247 OA
HETATM    9  N10 UNL     1       4.181   6.050  19.587  1.00  0.00    -0.317 N 
HETATM   10  C21 UNL     1       4.096   7.217  18.760  1.00  0.00     0.156 C 
ENDROOT
BRANCH   6  11
HETATM   11  C11 UNL     1       5.988   2.714  19.037  1.00  0.00     0.128 C 
BRANCH  11  12
HETATM   12  C12 UNL     1       6.176   1.491  19.932  1.00  0.00     0.024 C 
BRANCH  12  13
HETATM   13  C13 UNL     1       7.229   0.600  19.273  1.00  0.00    -0.010 C 
HETATM   14  C14 UNL     1       6.693   0.153  17.934  1.00  0.00     0.024 C 
HETATM   15  C15 UNL     1       7.795   0.159  16.872  1.00  0.00     0.128 C 
HETATM   16  N6  UNL     1       9.032  -0.337  17.439  1.00  0.00    -0.334 N 
HETATM   17  C16 UNL     1       9.704  -1.416  16.834  1.00  0.00     0.324 C 
HETATM   18  C18 UNL     1       9.551   0.297  18.623  1.00  0.00     0.128 C 
HETATM   19  O1  UNL     1      10.777  -1.829  17.360  1.00  0.00    -0.247 OA
HETATM   20  N7  UNL     1       9.237  -2.059  15.665  1.00  0.00    -0.285 N 
HETATM   21  C17 UNL     1       9.478  -3.298  15.477  1.00  0.00     0.204 C 
ATOM     22  H7  UNL     1       8.706  -1.532  14.971  1.00  0.00     0.172 HD
HETATM   23  N8  UNL     1       9.002  -3.925  14.298  1.00  0.00    -0.066 NA
HETATM   24  N9  UNL     1      10.210  -4.044  16.420  1.00  0.00    -0.066 NA
HETATM   25  C19 UNL     1       8.536   1.336  19.103  1.00  0.00     0.024 C 
ENDBRANCH  12  13
ENDBRANCH  11  12
ENDBRANCH   6  11
BRANCH   3  26
HETATM   26  C3  UNL     1       4.927   6.624  22.787  1.00  0.00     0.060 C 
BRANCH  26  27
HETATM   27  C4  UNL     1       6.019   7.574  22.439  1.00  0.00     0.044 C 
BRANCH  27  28
HETATM   28  C5  UNL     1       6.218   8.658  23.418  1.00  0.00     0.007 C 
BRANCH  28  29
HETATM   29  C6  UNL     1       6.857   8.152  24.718  1.00  0.00     0.020 C 
BRANCH  29  30
HETATM   30  C7  UNL     1       8.291   7.780  24.564  1.00  0.00     0.122 C 
BRANCH  30  31
HETATM   31  N2  UNL     1       9.091   8.978  24.479  1.00  0.00    -0.365 N 
HETATM   32  C8  UNL     1      10.470   9.067  24.763  1.00  0.00     0.181 C 
HETATM   33  N3  UNL     1      11.244   9.465  23.774  1.00  0.00    -0.374 N 
HETATM   34  N4  UNL     1      11.045   8.758  26.030  1.00  0.00    -0.064 NA
ATOM     35  H32 UNL     1      10.833   9.687  22.867  1.00  0.00     0.158 HD
ATOM     36  H31 UNL     1      12.241   9.529  23.979  1.00  0.00     0.158 HD
ATOM     37  H2  UNL     1       8.618   9.834  24.188  1.00  0.00     0.162 HD
ENDBRANCH  30  31
ENDBRANCH  29  30
ENDBRANCH  28  29
ENDBRANCH  27  28
ENDBRANCH  26  27
ENDBRANCH   3  26
TORSDOF 9
ENDMDL
MODEL 5
REMARK VINA RESULT: -8.352657881      1.638      2.255
REMARK  9 active torsions:
REMARK  status: ('A' for Active; 'I' for Inactive)
REMARK    1  A    between atoms: N1_3  and  C3_4 
REMARK    2  A    between atoms: C3_4  and  C4_5 
REMARK    3  A    between atoms: C4_5  and  C5_6 
REMARK    4  A    between atoms: C5_6  and  C6_7 
REMARK    5  A    between atoms: C6_7  and  C7_8 
REMARK    6  A    between atoms: C7_8  and  N2_9 
REMARK       I    between atoms: N2_9  and  C8_11 
REMARK    7  A    between atoms: N5_18  and  C11_19 
REMARK    8  A    between atoms: C11_19  and  C12_20 
REMARK    9  A    between atoms: C12_20  and  C13_21 
REMARK       I    between atoms: N6_24  and  C16_25 
REMARK       I    between atoms: C16_25  and  N7_27 
ROOT
HETATM    1  C1  UNL     1       2.511   4.949  20.595  1.00  0.00     0.056 C 
HETATM    2  C2  UNL     1       3.675   5.907  20.461  1.00  0.00     0.185 C 
HETATM    3  N1  UNL     1       4.672   5.791  21.420  1.00  0.00    -0.371 N 
HETATM    4  C9  UNL     1       5.070   4.485  21.826  1.00  0.00     0.144 C 
HETATM    5  C10 UNL     1       6.146   3.850  21.019  1.00  0.00     0.147 C 
HETATM    6  N5  UNL     1       5.811   3.649  19.640  1.00  0.00    -0.333 N 
HETATM    7  C20 UNL     1       5.089   4.556  18.816  1.00  0.00     0.321 C 
HETATM    8  O2  UNL     1       5.156   4.294  17.574  1.00  0.00    -0.247 OA
HETATM    9  N10 UNL     1       4.307   5.703  19.128  1.00  0.00    -0.317 N 
HETATM   10  C21 UNL     1       4.117   6.703  18.120  1.00  0.00     0.156 C 
ENDROOT
BRANCH   6  11
HETATM   11  C11 UNL     1       6.259   2.404  19.050  1.00  0.00     0.128 C 
BRANCH  11  12
HETATM   12  C12 UNL     1       7.027   1.563  20.067  1.00  0.00     0.024 C 
BRANCH  12  13
HETATM   13  C13 UNL     1       7.860   0.547  19.284  1.00  0.00    -0.010 C 
HETATM   14  C14 UNL     1       7.090   0.169  18.041  1.00  0.00     0.024 C 
HETATM   15  C15 UNL     1       8.024   0.036  16.836  1.00  0.00     0.128 C 
HETATM   16  N6  UNL     1       9.257  -0.609  17.234  1.00  0.00    -0.334 N 
HETATM   17  C16 UNL     1       9.699  -1.763  16.561  1.00  0.00     0.324 C 
HETATM   18  C18 UNL     1      10.012  -0.044  18.322  1.00  0.00     0.128 C 
HETATM   19  O1  UNL     1      10.777  -2.307  16.941  1.00  0.00    -0.247 OA
HETATM   20  N7  UNL     1       8.997  -2.344  15.481  1.00  0.00    -0.285 N 
HETATM   21  C17 UNL     1       9.055  -3.604  15.283  1.00  0.00     0.204 C 
ATOM     22  H7  UNL     1       8.443  -1.756  14.859  1.00  0.00     0.172 HD
HETATM   23  N8  UNL     1       8.344  -4.168  14.194  1.00  0.00    -0.066 NA
HETATM   24  N9  UNL     1       9.814  -4.435  16.129  1.00  0.00    -0.066 NA
HETATM   25  C19 UNL     1       9.210   1.115  18.920  1.00  0.00     0.024 C 
ENDBRANCH  12  13
ENDBRANCH  11  12
ENDBRANCH   6  11
BRANCH   3  26
HETATM   26  C3  UNL     1       5.188   6.858  22.131  1.00  0.00     0.060 C 
BRANCH  26  27
HETATM   27  C4  UNL     1       6.650   7.038  22.351  1.00  0.00     0.044 C 
BRANCH  27  28
HETATM   28  C5  UNL     1       7.407   7.399  21.139  1.00  0.00     0.007 C 
BRANCH  28  29
HETATM   29  C6  UNL     1       8.308   8.621  21.364  1.00  0.00     0.020 C 
BRANCH  29  30
HETATM   30  C7  UNL     1       7.777   9.565  22.387  1.00  0.00     0.122 C 
BRANCH  30  31
HETATM   31  N2  UNL     1       8.831   9.919  23.306  1.00  0.00    -0.365 N 
HETATM   32  C8  UNL     1       9.705   9.012  23.943  1.00  0.00     0.181 C 
HETATM   33  N3  UNL     1      10.990   9.170  23.693  1.00  0.00    -0.374 N 
HETATM   34  N4  UNL     1       9.277   7.970  24.815  1.00  0.00    -0.064 NA
ATOM     35  H32 UNL     1      11.296   9.916  23.069  1.00  0.00     0.158 HD
ATOM     36  H31 UNL     1      11.622   8.514  24.152  1.00  0.00     0.158 HD
ATOM     37  H2  UNL     1       8.954  10.910  23.514  1.00  0.00     0.162 HD
ENDBRANCH  30  31
ENDBRANCH  29  30
ENDBRANCH  28  29
ENDBRANCH  27  28
ENDBRANCH  26  27
ENDBRANCH   3  26
TORSDOF 9
ENDMDL
