MODEL 1
REMARK VINA RESULT: -8.079866867      0.000      0.000
REMARK  9 active torsions:
REMARK  status: ('A' for Active; 'I' for Inactive)
REMARK    1  A    between atoms: C2_2  and  N1_3 
REMARK    2  A    between atoms: N1_3  and  C5_6 
REMARK    3  A    between atoms: C5_6  and  C6_7 
REMARK    4  A    between atoms: C6_7  and  C7_8 
REMARK    5  A    between atoms: C7_8  and  N2_9 
REMARK    6  A    between atoms: C10_12  and  C11_13 
REMARK    7  A    between atoms: C11_13  and  C12_14 
REMARK    8  A    between atoms: C13_17  and  C14_18 
REMARK    9  A    between atoms: C14_18  and  C15_19 
ROOT
HETATM    1  C12 UNL     1       3.153   6.989  23.052  1.00  0.00     0.082 A 
HETATM    2  N3  UNL     1       4.243   7.695  22.828  1.00  0.00    -0.366 N 
ATOM      3  H3  UNL     1       4.696   7.761  21.916  1.00  0.00     0.161 HD
HETATM    4  C13 UNL     1       4.720   8.355  24.001  1.00  0.00     0.180 A 
HETATM    5  C21 UNL     1       3.713   8.023  25.021  1.00  0.00     0.247 A 
HETATM    6  O1  UNL     1       3.667   8.420  26.215  1.00  0.00    -0.271 OA
HETATM    7  N8  UNL     1       2.768   7.144  24.399  1.00  0.00    -0.310 N 
HETATM    8  C22 UNL     1       1.631   6.510  25.100  1.00  0.00     0.160 C 
ENDROOT
BRANCH   1   9
HETATM    9  C11 UNL     1       2.536   6.247  21.954  1.00  0.00     0.081 C 
BRANCH   9  10
HETATM   10  C10 UNL     1       3.257   5.107  21.364  1.00  0.00    -0.004 C 
HETATM   11  C9  UNL     1       4.010   4.436  22.548  1.00  0.00     0.035 C 
HETATM   12  C8  UNL     1       3.159   3.306  23.047  1.00  0.00     0.272 C 
HETATM   13  N2  UNL     1       3.148   2.203  22.112  1.00  0.00     0.088 N 
HETATM   14  C24 UNL     1       3.102   2.703  20.748  1.00  0.00     0.272 C 
HETATM   15  C23 UNL     1       2.391   4.063  20.713  1.00  0.00     0.035 C 
BRANCH  13  16
HETATM   16  C7  UNL     1       4.319   1.348  22.214  1.00  0.00     0.274 C 
BRANCH  16  17
HETATM   17  C6  UNL     1       5.076   1.231  20.949  1.00  0.00     0.058 C 
BRANCH  17  18
HETATM   18  C5  UNL     1       6.505   1.619  20.955  1.00  0.00     0.238 C 
BRANCH  18  19
HETATM   19  N1  UNL     1       7.001   2.477  19.945  1.00  0.00    -0.075 N 
HETATM   20  C3  UNL     1       6.167   2.729  18.814  1.00  0.00     0.272 C 
HETATM   21  C4  UNL     1       7.364   3.793  20.527  1.00  0.00     0.272 C 
BRANCH  19  22
HETATM   22  C2  UNL     1       8.275   1.934  19.443  1.00  0.00     0.232 C 
HETATM   23  C1  UNL     1       8.200   0.488  19.085  1.00  0.00     0.034 C 
ENDBRANCH  19  22
ENDBRANCH  18  19
ENDBRANCH  17  18
ENDBRANCH  16  17
ENDBRANCH  13  16
ENDBRANCH   9  10
ENDBRANCH   1   9
BRANCH   4  24
HETATM   24  C14 UNL     1       5.997   7.632  24.416  1.00  0.00     0.077 C 
BRANCH  24  25
HETATM   25  C15 UNL     1       7.202   8.403  24.074  1.00  0.00    -0.009 A 
HETATM   26  C16 UNL     1       7.302   9.358  23.085  1.00  0.00     0.099 A 
HETATM   27  N4  UNL     1       8.560   9.861  23.065  1.00  0.00    -0.349 N 
HETATM   28  C17 UNL     1       9.282   9.241  24.034  1.00  0.00     0.149 A 
ATOM     29  H4  UNL     1       8.906  10.581  22.431  1.00  0.00     0.166 HD
HETATM   30  N5  UNL     1      10.477   9.145  24.631  1.00  0.00    -0.174 N 
HETATM   31  C20 UNL     1       8.441   8.339  24.657  1.00  0.00     0.101 A 
HETATM   32  C18 UNL     1      10.402   8.215  25.602  1.00  0.00     0.679 A 
ATOM     33  H5  UNL     1      11.307   9.687  24.391  1.00  0.00     0.186 HD
HETATM   34  N6  UNL     1      11.342   7.841  26.393  1.00  0.00    -0.230 N 
HETATM   35  N7  UNL     1       9.155   7.723  25.616  1.00  0.00    -0.188 N 
HETATM   36  C19 UNL     1      11.071   6.816  27.384  1.00  0.00     0.165 C 
ATOM     37  H6  UNL     1      12.269   8.260  26.326  1.00  0.00     0.177 HD
ATOM     38  H7  UNL     1       8.807   7.002  26.248  1.00  0.00     0.184 HD
ENDBRANCH  24  25
ENDBRANCH   4  24
TORSDOF 9
ENDMDL
MODEL 2
REMARK VINA RESULT: -7.889427576      1.497      1.937
REMARK  9 active torsions:
REMARK  status: ('A' for Active; 'I' for Inactive)
REMARK    1  A    between atoms: C2_2  and  N1_3 
REMARK    2  A    between atoms: N1_3  and  C5_6 
REMARK    3  A    between atoms: C5_6  and  C6_7 
REMARK    4  A    between atoms: C6_7  and  C7_8 
REMARK    5  A    between atoms: C7_8  and  N2_9 
REMARK    6  A    between atoms: C10_12  and  C11_13 
REMARK    7  A    between atoms: C11_13  and  C12_14 
REMARK    8  A    between atoms: C13_17  and  C14_18 
REMARK    9  A    between atoms: C14_18  and  C15_19 
ROOT
HETATM    1  C12 UNL     1       3.734   6.562  23.478  1.00  0.00     0.082 A 
HETATM    2  N3  UNL     1       4.826   7.203  23.114  1.00  0.00    -0.366 N 
ATOM      3  H3  UNL     1       5.454   6.879  22.379  1.00  0.00     0.161 HD
HETATM    4  C13 UNL     1       5.033   8.403  23.861  1.00  0.00     0.180 A 
HETATM    5  C21 UNL     1       3.848   8.480  24.730  1.00  0.00     0.247 A 
HETATM    6  O1  UNL     1       3.546   9.395  25.541  1.00  0.00    -0.271 OA
HETATM    7  N8  UNL     1       3.077   7.298  24.484  1.00  0.00    -0.310 N 
HETATM    8  C22 UNL     1       1.839   6.943  25.211  1.00  0.00     0.160 C 
ENDROOT
BRANCH   1   9
HETATM    9  C11 UNL     1       3.377   5.310  22.812  1.00  0.00     0.081 C 
BRANCH   9  10
HETATM   10  C10 UNL     1       4.384   4.625  21.985  1.00  0.00    -0.004 C 
HETATM   11  C9  UNL     1       4.227   3.112  22.309  1.00  0.00     0.035 C 
HETATM   12  C8  UNL     1       3.336   2.513  21.263  1.00  0.00     0.272 C 
HETATM   13  N2  UNL     1       4.012   2.417  19.989  1.00  0.00     0.088 N 
HETATM   14  C24 UNL     1       4.832   3.596  19.766  1.00  0.00     0.272 C 
HETATM   15  C23 UNL     1       4.224   4.800  20.499  1.00  0.00     0.035 C 
BRANCH  13  16
HETATM   16  C7  UNL     1       4.888   1.261  19.885  1.00  0.00     0.274 C 
BRANCH  16  17
HETATM   17  C6  UNL     1       5.253   0.920  18.493  1.00  0.00     0.058 C 
BRANCH  17  18
HETATM   18  C5  UNL     1       6.581   0.311  18.251  1.00  0.00     0.238 C 
BRANCH  18  19
HETATM   19  N1  UNL     1       7.015   0.083  16.924  1.00  0.00    -0.075 N 
HETATM   20  C3  UNL     1       6.352  -0.932  16.170  1.00  0.00     0.272 C 
HETATM   21  C4  UNL     1       6.935   1.339  16.138  1.00  0.00     0.272 C 
BRANCH  19  22
HETATM   22  C2  UNL     1       8.450  -0.248  16.943  1.00  0.00     0.232 C 
HETATM   23  C1  UNL     1       9.120   0.105  18.229  1.00  0.00     0.034 C 
ENDBRANCH  19  22
ENDBRANCH  18  19
ENDBRANCH  17  18
ENDBRANCH  16  17
ENDBRANCH  13  16
ENDBRANCH   9  10
ENDBRANCH   1   9
BRANCH   4  24
HETATM   24  C14 UNL     1       6.217   8.139  24.784  1.00  0.00     0.077 C 
BRANCH  24  25
HETATM   25  C15 UNL     1       7.467   8.706  24.252  1.00  0.00    -0.009 A 
HETATM   26  C16 UNL     1       7.582   9.527  23.150  1.00  0.00     0.099 A 
HETATM   27  N4  UNL     1       8.882   9.856  22.965  1.00  0.00    -0.349 N 
HETATM   28  C17 UNL     1       9.618   9.258  23.937  1.00  0.00     0.149 A 
ATOM     29  H4  UNL     1       9.247  10.453  22.222  1.00  0.00     0.166 HD
HETATM   30  N5  UNL     1      10.845   9.072  24.438  1.00  0.00    -0.174 N 
HETATM   31  C20 UNL     1       8.740   8.545  24.732  1.00  0.00     0.101 A 
HETATM   32  C18 UNL     1      10.755   8.271  25.516  1.00  0.00     0.679 A 
ATOM     33  H5  UNL     1      11.706   9.473  24.065  1.00  0.00     0.186 HD
HETATM   34  N6  UNL     1      11.718   7.866  26.265  1.00  0.00    -0.230 N 
HETATM   35  N7  UNL     1       9.467   7.949  25.694  1.00  0.00    -0.188 N 
HETATM   36  C19 UNL     1      11.426   6.998  27.391  1.00  0.00     0.165 C 
ATOM     37  H6  UNL     1      12.677   8.152  26.070  1.00  0.00     0.177 HD
ATOM     38  H7  UNL     1       9.099   7.352  26.435  1.00  0.00     0.184 HD
ENDBRANCH  24  25
ENDBRANCH   4  24
TORSDOF 9
ENDMDL
MODEL 3
REMARK VINA RESULT: -7.888703841      0.929      1.091
REMARK  9 active torsions:
REMARK  status: ('A' for Active; 'I' for Inactive)
REMARK    1  A    between atoms: C2_2  and  N1_3 
REMARK    2  A    between atoms: N1_3  and  C5_6 
REMARK    3  A    between atoms: C5_6  and  C6_7 
REMARK    4  A    between atoms: C6_7  and  C7_8 
REMARK    5  A    between atoms: C7_8  and  N2_9 
REMARK    6  A    between atoms: C10_12  and  C11_13 
REMARK    7  A    between atoms: C11_13  and  C12_14 
REMARK    8  A    between atoms: C13_17  and  C14_18 
REMARK    9  A    between atoms: C14_18  and  C15_19 
ROOT
HETATM    1  C12 UNL     1       3.279   6.769  23.805  1.00  0.00     0.082 A 
HETATM    2  N3  UNL     1       4.431   7.163  23.301  1.00  0.00    -0.366 N 
ATOM      3  H3  UNL     1       4.941   6.647  22.584  1.00  0.00     0.161 HD
HETATM    4  C13 UNL     1       4.888   8.391  23.869  1.00  0.00     0.180 A 
HETATM    5  C21 UNL     1       3.800   8.777  24.781  1.00  0.00     0.247 A 
HETATM    6  O1  UNL     1       3.713   9.823  25.477  1.00  0.00    -0.271 OA
HETATM    7  N8  UNL     1       2.829   7.725  24.737  1.00  0.00    -0.310 N 
HETATM    8  C22 UNL     1       1.606   7.681  25.568  1.00  0.00     0.160 C 
ENDROOT
BRANCH   1   9
HETATM    9  C11 UNL     1       2.673   5.525  23.332  1.00  0.00     0.081 C 
BRANCH   9  10
HETATM   10  C10 UNL     1       3.229   4.864  22.139  1.00  0.00    -0.004 C 
HETATM   11  C9  UNL     1       3.543   3.407  22.583  1.00  0.00     0.035 C 
HETATM   12  C8  UNL     1       2.375   2.551  22.194  1.00  0.00     0.272 C 
HETATM   13  N2  UNL     1       2.315   2.360  20.763  1.00  0.00     0.088 N 
HETATM   14  C24 UNL     1       2.673   3.591  20.078  1.00  0.00     0.272 C 
HETATM   15  C23 UNL     1       2.309   4.799  20.951  1.00  0.00     0.035 C 
BRANCH  13  16
HETATM   16  C7  UNL     1       3.216   1.325  20.280  1.00  0.00     0.274 C 
BRANCH  16  17
HETATM   17  C6  UNL     1       4.168   1.804  19.254  1.00  0.00     0.058 C 
BRANCH  17  18
HETATM   18  C5  UNL     1       5.574   1.349  19.344  1.00  0.00     0.238 C 
BRANCH  18  19
HETATM   19  N1  UNL     1       6.522   2.139  20.038  1.00  0.00    -0.075 N 
HETATM   20  C3  UNL     1       6.320   3.552  20.067  1.00  0.00     0.272 C 
HETATM   21  C4  UNL     1       6.636   1.680  21.444  1.00  0.00     0.272 C 
BRANCH  19  22
HETATM   22  C2  UNL     1       7.856   1.895  19.462  1.00  0.00     0.232 C 
HETATM   23  C1  UNL     1       8.065   0.482  19.033  1.00  0.00     0.034 C 
ENDBRANCH  19  22
ENDBRANCH  18  19
ENDBRANCH  17  18
ENDBRANCH  16  17
ENDBRANCH  13  16
ENDBRANCH   9  10
ENDBRANCH   1   9
BRANCH   4  24
HETATM   24  C14 UNL     1       6.078   8.042  24.756  1.00  0.00     0.077 C 
BRANCH  24  25
HETATM   25  C15 UNL     1       7.329   8.634  24.256  1.00  0.00    -0.009 A 
HETATM   26  C16 UNL     1       7.452   9.475  23.170  1.00  0.00     0.099 A 
HETATM   27  N4  UNL     1       8.751   9.825  23.014  1.00  0.00    -0.349 N 
HETATM   28  C17 UNL     1       9.477   9.220  23.988  1.00  0.00     0.149 A 
ATOM     29  H4  UNL     1       9.121  10.440  22.287  1.00  0.00     0.166 HD
HETATM   30  N5  UNL     1      10.699   9.042  24.508  1.00  0.00    -0.174 N 
HETATM   31  C20 UNL     1       8.596   8.482  24.755  1.00  0.00     0.101 A 
HETATM   32  C18 UNL     1      10.601   8.221  25.570  1.00  0.00     0.679 A 
ATOM     33  H5  UNL     1      11.560   9.460  24.157  1.00  0.00     0.186 HD
HETATM   34  N6  UNL     1      11.555   7.816  26.329  1.00  0.00    -0.230 N 
HETATM   35  N7  UNL     1       9.314   7.879  25.720  1.00  0.00    -0.188 N 
HETATM   36  C19 UNL     1      11.255   6.925  27.435  1.00  0.00     0.165 C 
ATOM     37  H6  UNL     1      12.514   8.118  26.156  1.00  0.00     0.177 HD
ATOM     38  H7  UNL     1       8.941   7.265  26.444  1.00  0.00     0.184 HD
ENDBRANCH  24  25
ENDBRANCH   4  24
TORSDOF 9
ENDMDL
MODEL 4
REMARK VINA RESULT: -7.807855682      2.193      3.148
REMARK  9 active torsions:
REMARK  status: ('A' for Active; 'I' for Inactive)
REMARK    1  A    between atoms: C2_2  and  N1_3 
REMARK    2  A    between atoms: N1_3  and  C5_6 
REMARK    3  A    between atoms: C5_6  and  C6_7 
REMARK    4  A    between atoms: C6_7  and  C7_8 
REMARK    5  A    between atoms: C7_8  and  N2_9 
REMARK    6  A    between atoms: C10_12  and  C11_13 
REMARK    7  A    between atoms: C11_13  and  C12_14 
REMARK    8  A    between atoms: C13_17  and  C14_18 
REMARK    9  A    between atoms: C14_18  and  C15_19 
ROOT
HETATM    1  C12 UNL     1       4.654   5.411  22.470  1.00  0.00     0.082 A 
HETATM    2  N3  UNL     1       5.688   6.217  22.346  1.00  0.00    -0.366 N 
ATOM      3  H3  UNL     1       6.596   5.922  21.989  1.00  0.00     0.161 HD
HETATM    4  C13 UNL     1       5.398   7.551  22.767  1.00  0.00     0.180 A 
HETATM    5  C21 UNL     1       3.970   7.501  23.120  1.00  0.00     0.247 A 
HETATM    6  O1  UNL     1       3.237   8.452  23.499  1.00  0.00    -0.271 OA
HETATM    7  N8  UNL     1       3.549   6.142  22.951  1.00  0.00    -0.310 N 
HETATM    8  C22 UNL     1       2.196   5.641  23.273  1.00  0.00     0.160 C 
ENDROOT
BRANCH   1   9
HETATM    9  C11 UNL     1       4.784   4.006  22.085  1.00  0.00     0.081 C 
BRANCH   9  10
HETATM   10  C10 UNL     1       5.823   3.622  21.114  1.00  0.00    -0.004 C 
HETATM   11  C9  UNL     1       6.108   2.118  21.387  1.00  0.00     0.035 C 
HETATM   12  C8  UNL     1       5.279   1.316  20.428  1.00  0.00     0.272 C 
HETATM   13  N2  UNL     1       5.791   1.418  19.079  1.00  0.00     0.088 N 
HETATM   14  C24 UNL     1       6.240   2.774  18.815  1.00  0.00     0.272 C 
HETATM   15  C23 UNL     1       5.437   3.766  19.667  1.00  0.00     0.035 C 
BRANCH  13  16
HETATM   16  C7  UNL     1       6.918   0.536  18.821  1.00  0.00     0.274 C 
BRANCH  16  17
HETATM   17  C6  UNL     1       7.124   0.247  17.386  1.00  0.00     0.058 C 
BRANCH  17  18
HETATM   18  C5  UNL     1       5.962  -0.221  16.597  1.00  0.00     0.238 C 
BRANCH  18  19
HETATM   19  N1  UNL     1       5.517   0.538  15.488  1.00  0.00    -0.075 N 
HETATM   20  C3  UNL     1       5.342  -0.139  14.243  1.00  0.00     0.272 C 
HETATM   21  C4  UNL     1       4.232   1.207  15.812  1.00  0.00     0.272 C 
BRANCH  19  22
HETATM   22  C2  UNL     1       6.461   1.646  15.260  1.00  0.00     0.232 C 
HETATM   23  C1  UNL     1       6.210   2.385  13.989  1.00  0.00     0.034 C 
ENDBRANCH  19  22
ENDBRANCH  18  19
ENDBRANCH  17  18
ENDBRANCH  16  17
ENDBRANCH  13  16
ENDBRANCH   9  10
ENDBRANCH   1   9
BRANCH   4  24
HETATM   24  C14 UNL     1       6.148   7.765  24.077  1.00  0.00     0.077 C 
BRANCH  24  25
HETATM   25  C15 UNL     1       7.396   8.521  23.879  1.00  0.00    -0.009 A 
HETATM   26  C16 UNL     1       7.602   9.519  22.951  1.00  0.00     0.099 A 
HETATM   27  N4  UNL     1       8.867   9.990  23.064  1.00  0.00    -0.349 N 
HETATM   28  C17 UNL     1       9.489   9.307  24.060  1.00  0.00     0.149 A 
ATOM     29  H4  UNL     1       9.282  10.731  22.499  1.00  0.00     0.166 HD
HETATM   30  N5  UNL     1      10.625   9.151  24.752  1.00  0.00    -0.174 N 
HETATM   31  C20 UNL     1       8.577   8.398  24.562  1.00  0.00     0.101 A 
HETATM   32  C18 UNL     1      10.445   8.178  25.664  1.00  0.00     0.679 A 
ATOM     33  H5  UNL     1      11.484   9.683  24.611  1.00  0.00     0.186 HD
HETATM   34  N6  UNL     1      11.305   7.743  26.514  1.00  0.00    -0.230 N 
HETATM   35  N7  UNL     1       9.192   7.718  25.547  1.00  0.00    -0.188 N 
HETATM   36  C19 UNL     1      10.927   6.678  27.426  1.00  0.00     0.165 C 
ATOM     37  H6  UNL     1      12.243   8.141  26.548  1.00  0.00     0.177 HD
ATOM     38  H7  UNL     1       8.775   6.977  26.109  1.00  0.00     0.184 HD
ENDBRANCH  24  25
ENDBRANCH   4  24
TORSDOF 9
ENDMDL
MODEL 5
REMARK VINA RESULT: -7.796839131      3.656      6.086
REMARK  9 active torsions:
REMARK  status: ('A' for Active; 'I' for Inactive)
REMARK    1  A    between atoms: C2_2  and  N1_3 
REMARK    2  A    between atoms: N1_3  and  C5_6 
REMARK    3  A    between atoms: C5_6  and  C6_7 
REMARK    4  A    between atoms: C6_7  and  C7_8 
REMARK    5  A    between atoms: C7_8  and  N2_9 
REMARK    6  A    between atoms: C10_12  and  C11_13 
REMARK    7  A    between atoms: C11_13  and  C12_14 
REMARK    8  A    between atoms: C13_17  and  C14_18 
REMARK    9  A    between atoms: C14_18  and  C15_19 
ROOT
HETATM    1  C12 UNL     1       5.809   3.073  19.866  1.00  0.00     0.082 A 
HETATM    2  N3  UNL     1       6.129   4.306  19.528  1.00  0.00    -0.366 N 
ATOM      3  H3  UNL     1       6.529   4.559  18.625  1.00  0.00     0.161 HD
HETATM    4  C13 UNL     1       5.852   5.249  20.565  1.00  0.00     0.180 A 
HETATM    5  C21 UNL     1       5.226   4.433  21.617  1.00  0.00     0.247 A 
HETATM    6  O1  UNL     1       4.755   4.826  22.718  1.00  0.00    -0.271 OA
HETATM    7  N8  UNL     1       5.245   3.077  21.157  1.00  0.00    -0.310 N 
HETATM    8  C22 UNL     1       4.777   1.919  21.950  1.00  0.00     0.160 C 
ENDROOT
BRANCH   1   9
HETATM    9  C11 UNL     1       6.033   1.985  18.916  1.00  0.00     0.081 C 
BRANCH   9  10
HETATM   10  C10 UNL     1       7.101   1.006  19.184  1.00  0.00    -0.004 C 
HETATM   11  C9  UNL     1       6.980  -0.057  18.055  1.00  0.00     0.035 C 
HETATM   12  C8  UNL     1       7.949   0.317  16.973  1.00  0.00     0.272 C 
HETATM   13  N2  UNL     1       9.315   0.078  17.384  1.00  0.00     0.088 N 
HETATM   14  C24 UNL     1       9.488   0.444  18.780  1.00  0.00     0.272 C 
HETATM   15  C23 UNL     1       8.501   1.557  19.156  1.00  0.00     0.035 C 
BRANCH  13  16
HETATM   16  C7  UNL     1       9.723  -1.311  17.253  1.00  0.00     0.274 C 
BRANCH  16  17
HETATM   17  C6  UNL     1       9.297  -1.933  15.980  1.00  0.00     0.058 C 
BRANCH  17  18
HETATM   18  C5  UNL     1      10.055  -3.107  15.491  1.00  0.00     0.238 C 
BRANCH  18  19
HETATM   19  N1  UNL     1       9.407  -4.072  14.683  1.00  0.00    -0.075 N 
HETATM   20  C3  UNL     1       8.648  -3.606  13.568  1.00  0.00     0.272 C 
HETATM   21  C4  UNL     1      10.396  -5.050  14.166  1.00  0.00     0.272 C 
BRANCH  19  22
HETATM   22  C2  UNL     1       8.505  -4.872  15.529  1.00  0.00     0.232 C 
HETATM   23  C1  UNL     1       9.224  -5.712  16.531  1.00  0.00     0.034 C 
ENDBRANCH  19  22
ENDBRANCH  18  19
ENDBRANCH  17  18
ENDBRANCH  16  17
ENDBRANCH  13  16
ENDBRANCH   9  10
ENDBRANCH   1   9
BRANCH   4  24
HETATM   24  C14 UNL     1       7.201   5.690  21.120  1.00  0.00     0.077 C 
BRANCH  24  25
HETATM   25  C15 UNL     1       7.327   7.156  21.160  1.00  0.00    -0.009 A 
HETATM   26  C16 UNL     1       6.806   8.041  20.241  1.00  0.00     0.099 A 
HETATM   27  N4  UNL     1       7.115   9.309  20.606  1.00  0.00    -0.349 N 
HETATM   28  C17 UNL     1       7.833   9.258  21.757  1.00  0.00     0.149 A 
ATOM     29  H4  UNL     1       6.852  10.156  20.103  1.00  0.00     0.166 HD
HETATM   30  N5  UNL     1       8.469   9.971  22.696  1.00  0.00    -0.174 N 
HETATM   31  C20 UNL     1       7.964   7.925  22.099  1.00  0.00     0.101 A 
HETATM   32  C18 UNL     1       8.988   9.123  23.605  1.00  0.00     0.679 A 
ATOM     33  H5  UNL     1       8.547  10.987  22.718  1.00  0.00     0.186 HD
HETATM   34  N6  UNL     1       9.666   9.429  24.652  1.00  0.00    -0.230 N 
HETATM   35  N7  UNL     1       8.678   7.873  23.237  1.00  0.00    -0.188 N 
HETATM   36  C19 UNL     1      10.147   8.371  25.521  1.00  0.00     0.165 C 
ATOM     37  H6  UNL     1       9.864  10.405  24.871  1.00  0.00     0.177 HD
ATOM     38  H7  UNL     1       8.940   7.023  23.738  1.00  0.00     0.184 HD
ENDBRANCH  24  25
ENDBRANCH   4  24
TORSDOF 9
ENDMDL
