MODEL 1
REMARK VINA RESULT: -8.546496668      0.000      0.000
REMARK  11 active torsions:
REMARK  status: ('A' for Active; 'I' for Inactive)
REMARK    1  A    between atoms: C2_2  and  C3_3 
REMARK    2  A    between atoms: C3_3  and  N1_4 
REMARK    3  A    between atoms: N1_4  and  C4_5 
REMARK    4  A    between atoms: C4_5  and  C5_6 
REMARK       I    between atoms: C5_6  and  N2_8 
REMARK    5  A    between atoms: C8_11  and  C9_12 
REMARK       I    between atoms: C9_12  and  N3_14 
REMARK    6  A    between atoms: N3_14  and  C10_16 
REMARK    7  A    between atoms: C10_16  and  C11_17 
REMARK    8  A    between atoms: C11_17  and  C14_20 
REMARK    9  A    between atoms: C14_20  and  N4_21 
REMARK   10  A    between atoms: N4_21  and  C15_23 
REMARK   11  A    between atoms: C16_28  and  N7_29 
ROOT
HETATM    1  C9  UNL     1       5.437   6.402  22.866  1.00  0.00     0.221 C 
HETATM    2  O2  UNL     1       5.164   6.545  24.075  1.00  0.00    -0.273 OA
HETATM    3  N3  UNL     1       6.731   6.692  22.383  1.00  0.00    -0.360 N 
ATOM      4  H3  UNL     1       6.942   6.571  21.393  1.00  0.00     0.162 HD
ENDROOT
BRANCH   3   5
HETATM    5  C10 UNL     1       7.751   7.157  23.278  1.00  0.00     0.133 C 
BRANCH   5   6
HETATM    6  C11 UNL     1       8.399   8.428  22.802  1.00  0.00    -0.015 C 
HETATM    7  C12 UNL     1       7.322   9.513  22.805  1.00  0.00     0.018 C 
HETATM    8  C13 UNL     1       8.926   8.319  21.405  1.00  0.00     0.018 C 
BRANCH   6   9
HETATM    9  C14 UNL     1       9.466   8.900  23.777  1.00  0.00     0.148 C 
BRANCH   9  10
HETATM   10  N4  UNL     1       9.021   8.575  25.114  1.00  0.00    -0.224 N 
ATOM     11  H4  UNL     1       8.071   8.823  25.393  1.00  0.00     0.177 HD
BRANCH  10  12
HETATM   12  C15 UNL     1       9.791   7.980  25.966  1.00  0.00     0.707 A 
HETATM   13  N5  UNL     1       9.289   7.278  27.018  1.00  0.00    -0.117 N 
HETATM   14  N6  UNL     1      10.313   6.792  27.700  1.00  0.00    -0.117 N 
ATOM     15  H5  UNL     1       8.302   7.149  27.241  1.00  0.00     0.206 HD
HETATM   16  C16 UNL     1      11.463   7.172  27.102  1.00  0.00     0.707 A 
ATOM     17  H6  UNL     1      10.245   6.222  28.544  1.00  0.00     0.206 HD
HETATM   18  N8  UNL     1      11.119   7.904  26.032  1.00  0.00    -0.020 N 
ATOM     19  H8  UNL     1      11.770   8.334  25.375  1.00  0.00     0.203 HD
BRANCH  16  20
HETATM   20  N7  UNL     1      12.651   6.873  27.503  1.00  0.00    -0.229 N 
HETATM   21  C17 UNL     1      13.809   7.257  26.731  1.00  0.00     0.165 C 
ATOM     22  H7  UNL     1      12.775   6.359  28.376  1.00  0.00     0.177 HD
ENDBRANCH  16  20
ENDBRANCH  10  12
ENDBRANCH   9  10
ENDBRANCH   6   9
ENDBRANCH   5   6
ENDBRANCH   3   5
BRANCH   1  23
HETATM   23  C8  UNL     1       4.392   5.922  21.929  1.00  0.00     0.081 C 
HETATM   24  C7  UNL     1       3.734   4.671  22.442  1.00  0.00     0.034 C 
HETATM   25  C6  UNL     1       4.644   3.515  22.139  1.00  0.00     0.126 C 
HETATM   26  N2  UNL     1       4.705   3.408  20.693  1.00  0.00    -0.351 N 
HETATM   27  C5  UNL     1       4.435   2.148  20.104  1.00  0.00     0.245 C 
HETATM   28  C19 UNL     1       5.030   4.552  19.884  1.00  0.00     0.126 C 
HETATM   29  O1  UNL     1       4.153   1.201  20.891  1.00  0.00    -0.272 OA
HETATM   30  C18 UNL     1       4.851   5.869  20.519  1.00  0.00     0.034 C 
BRANCH  27  31
HETATM   31  C4  UNL     1       4.498   2.031  18.650  1.00  0.00     0.339 C 
BRANCH  31  32
HETATM   32  N1  UNL     1       5.761   1.447  18.149  1.00  0.00    -0.059 N 
HETATM   33  C20 UNL     1       6.247   2.193  17.061  1.00  0.00     0.238 C 
HETATM   34  C21 UNL     1       6.175   1.347  15.799  1.00  0.00     0.029 C 
HETATM   35  C22 UNL     1       6.009  -0.065  16.314  1.00  0.00     0.029 C 
HETATM   36  C23 UNL     1       5.337   0.140  17.647  1.00  0.00     0.238 C 
BRANCH  32  37
HETATM   37  C3  UNL     1       6.558   1.222  19.289  1.00  0.00     0.237 C 
BRANCH  37  38
HETATM   38  C2  UNL     1       8.008   1.464  19.260  1.00  0.00     0.023 C 
HETATM   39  C1  UNL     1       8.880   0.295  18.896  1.00  0.00     0.007 C 
ENDBRANCH  37  38
ENDBRANCH  32  37
ENDBRANCH  31  32
ENDBRANCH  27  31
ENDBRANCH   1  23
TORSDOF 11
ENDMDL
MODEL 2
REMARK VINA RESULT: -8.358164226      1.263      1.364
REMARK  11 active torsions:
REMARK  status: ('A' for Active; 'I' for Inactive)
REMARK    1  A    between atoms: C2_2  and  C3_3 
REMARK    2  A    between atoms: C3_3  and  N1_4 
REMARK    3  A    between atoms: N1_4  and  C4_5 
REMARK    4  A    between atoms: C4_5  and  C5_6 
REMARK       I    between atoms: C5_6  and  N2_8 
REMARK    5  A    between atoms: C8_11  and  C9_12 
REMARK       I    between atoms: C9_12  and  N3_14 
REMARK    6  A    between atoms: N3_14  and  C10_16 
REMARK    7  A    between atoms: C10_16  and  C11_17 
REMARK    8  A    between atoms: C11_17  and  C14_20 
REMARK    9  A    between atoms: C14_20  and  N4_21 
REMARK   10  A    between atoms: N4_21  and  C15_23 
REMARK   11  A    between atoms: C16_28  and  N7_29 
ROOT
HETATM    1  C9  UNL     1       6.508   6.503  21.076  1.00  0.00     0.221 C 
HETATM    2  O2  UNL     1       7.175   6.969  20.130  1.00  0.00    -0.273 OA
HETATM    3  N3  UNL     1       6.943   6.663  22.409  1.00  0.00    -0.360 N 
ATOM      4  H3  UNL     1       6.390   6.277  23.174  1.00  0.00     0.162 HD
ENDROOT
BRANCH   3   5
HETATM    5  C10 UNL     1       8.160   7.367  22.694  1.00  0.00     0.133 C 
BRANCH   5   6
HETATM    6  C11 UNL     1       7.913   8.726  23.287  1.00  0.00    -0.015 C 
HETATM    7  C12 UNL     1       6.563   8.671  24.002  1.00  0.00     0.018 C 
HETATM    8  C13 UNL     1       7.831   9.802  22.249  1.00  0.00     0.018 C 
BRANCH   6   9
HETATM    9  C14 UNL     1       8.938   9.052  24.362  1.00  0.00     0.148 C 
BRANCH   9  10
HETATM   10  N4  UNL     1       8.638   8.240  25.521  1.00  0.00    -0.224 N 
ATOM     11  H4  UNL     1       7.663   8.069  25.767  1.00  0.00     0.177 HD
BRANCH  10  12
HETATM   12  C15 UNL     1       9.571   7.724  26.254  1.00  0.00     0.707 A 
HETATM   13  N5  UNL     1       9.287   6.920  27.315  1.00  0.00    -0.117 N 
HETATM   14  N6  UNL     1      10.436   6.554  27.859  1.00  0.00    -0.117 N 
ATOM     15  H5  UNL     1       8.357   6.650  27.634  1.00  0.00     0.206 HD
HETATM   16  C16 UNL     1      11.452   7.110  27.164  1.00  0.00     0.707 A 
ATOM     17  H6  UNL     1      10.539   5.949  28.674  1.00  0.00     0.206 HD
HETATM   18  N8  UNL     1      10.897   7.829  26.176  1.00  0.00    -0.020 N 
ATOM     19  H8  UNL     1      11.408   8.369  25.478  1.00  0.00     0.203 HD
BRANCH  16  20
HETATM   20  N7  UNL     1      12.706   6.962  27.421  1.00  0.00    -0.229 N 
HETATM   21  C17 UNL     1      13.708   7.359  26.461  1.00  0.00     0.165 C 
ATOM     22  H7  UNL     1      12.994   6.560  28.313  1.00  0.00     0.177 HD
ENDBRANCH  16  20
ENDBRANCH  10  12
ENDBRANCH   9  10
ENDBRANCH   6   9
ENDBRANCH   5   6
ENDBRANCH   3   5
BRANCH   1  23
HETATM   23  C8  UNL     1       5.248   5.772  20.796  1.00  0.00     0.081 C 
HETATM   24  C7  UNL     1       5.104   4.573  21.693  1.00  0.00     0.034 C 
HETATM   25  C6  UNL     1       5.956   3.472  21.129  1.00  0.00     0.126 C 
HETATM   26  N2  UNL     1       5.380   3.122  19.845  1.00  0.00    -0.351 N 
HETATM   27  C5  UNL     1       5.084   1.759  19.594  1.00  0.00     0.245 C 
HETATM   28  C19 UNL     1       5.116   4.133  18.856  1.00  0.00     0.126 C 
HETATM   29  O1  UNL     1       5.344   0.941  20.521  1.00  0.00    -0.272 OA
HETATM   30  C18 UNL     1       5.028   5.518  19.350  1.00  0.00     0.034 C 
BRANCH  27  31
HETATM   31  C4  UNL     1       4.507   1.398  18.303  1.00  0.00     0.339 C 
BRANCH  31  32
HETATM   32  N1  UNL     1       5.484   0.836  17.344  1.00  0.00    -0.059 N 
HETATM   33  C20 UNL     1       5.848   1.805  16.393  1.00  0.00     0.238 C 
HETATM   34  C21 UNL     1       5.328   1.388  15.026  1.00  0.00     0.029 C 
HETATM   35  C22 UNL     1       5.009  -0.081  15.189  1.00  0.00     0.029 C 
HETATM   36  C23 UNL     1       4.710  -0.200  16.661  1.00  0.00     0.238 C 
BRANCH  32  37
HETATM   37  C3  UNL     1       6.458   0.186  18.128  1.00  0.00     0.237 C 
BRANCH  37  38
HETATM   38  C2  UNL     1       7.881   0.230  17.759  1.00  0.00     0.023 C 
HETATM   39  C1  UNL     1       8.850   0.582  18.851  1.00  0.00     0.007 C 
ENDBRANCH  37  38
ENDBRANCH  32  37
ENDBRANCH  31  32
ENDBRANCH  27  31
ENDBRANCH   1  23
TORSDOF 11
ENDMDL
MODEL 3
REMARK VINA RESULT: -8.202185425      5.127      6.167
REMARK  11 active torsions:
REMARK  status: ('A' for Active; 'I' for Inactive)
REMARK    1  A    between atoms: C2_2  and  C3_3 
REMARK    2  A    between atoms: C3_3  and  N1_4 
REMARK    3  A    between atoms: N1_4  and  C4_5 
REMARK    4  A    between atoms: C4_5  and  C5_6 
REMARK       I    between atoms: C5_6  and  N2_8 
REMARK    5  A    between atoms: C8_11  and  C9_12 
REMARK       I    between atoms: C9_12  and  N3_14 
REMARK    6  A    between atoms: N3_14  and  C10_16 
REMARK    7  A    between atoms: C10_16  and  C11_17 
REMARK    8  A    between atoms: C11_17  and  C14_20 
REMARK    9  A    between atoms: C14_20  and  N4_21 
REMARK   10  A    between atoms: N4_21  and  C15_23 
REMARK   11  A    between atoms: C16_28  and  N7_29 
ROOT
HETATM    1  C9  UNL     1       6.852   8.527  19.943  1.00  0.00     0.221 C 
HETATM    2  O2  UNL     1       7.780   7.742  19.664  1.00  0.00    -0.273 OA
HETATM    3  N3  UNL     1       6.281   8.537  21.234  1.00  0.00    -0.360 N 
ATOM      4  H3  UNL     1       5.523   9.183  21.449  1.00  0.00     0.162 HD
ENDROOT
BRANCH   3   5
HETATM    5  C10 UNL     1       6.762   7.640  22.245  1.00  0.00     0.133 C 
BRANCH   5   6
HETATM    6  C11 UNL     1       7.245   8.363  23.472  1.00  0.00    -0.015 C 
HETATM    7  C12 UNL     1       6.007   8.835  24.236  1.00  0.00     0.018 C 
HETATM    8  C13 UNL     1       8.062   9.574  23.145  1.00  0.00     0.018 C 
BRANCH   6   9
HETATM    9  C14 UNL     1       7.978   7.420  24.413  1.00  0.00     0.148 C 
BRANCH   9  10
HETATM   10  N4  UNL     1       8.657   8.224  25.405  1.00  0.00    -0.224 N 
ATOM     11  H4  UNL     1       8.407   9.209  25.500  1.00  0.00     0.177 HD
BRANCH  10  12
HETATM   12  C15 UNL     1       9.571   7.731  26.177  1.00  0.00     0.707 A 
HETATM   13  N5  UNL     1       9.259   6.984  27.271  1.00  0.00    -0.117 N 
HETATM   14  N6  UNL     1      10.395   6.628  27.850  1.00  0.00    -0.117 N 
ATOM     15  H5  UNL     1       8.321   6.742  27.589  1.00  0.00     0.206 HD
HETATM   16  C16 UNL     1      11.428   7.135  27.143  1.00  0.00     0.707 A 
ATOM     17  H6  UNL     1      10.476   6.062  28.694  1.00  0.00     0.206 HD
HETATM   18  N8  UNL     1      10.899   7.812  26.114  1.00  0.00    -0.020 N 
ATOM     19  H8  UNL     1      11.428   8.310  25.398  1.00  0.00     0.203 HD
BRANCH  16  20
HETATM   20  N7  UNL     1      12.677   6.981  27.426  1.00  0.00    -0.229 N 
HETATM   21  C17 UNL     1      13.699   7.347  26.475  1.00  0.00     0.165 C 
ATOM     22  H7  UNL     1      12.945   6.597  28.333  1.00  0.00     0.177 HD
ENDBRANCH  16  20
ENDBRANCH  10  12
ENDBRANCH   9  10
ENDBRANCH   6   9
ENDBRANCH   5   6
ENDBRANCH   3   5
BRANCH   1  23
HETATM   23  C8  UNL     1       6.343   9.460  18.907  1.00  0.00     0.081 C 
HETATM   24  C7  UNL     1       5.045   8.971  18.325  1.00  0.00     0.034 C 
HETATM   25  C6  UNL     1       5.366   7.905  17.316  1.00  0.00     0.126 C 
HETATM   26  N2  UNL     1       6.099   8.556  16.248  1.00  0.00    -0.351 N 
HETATM   27  C5  UNL     1       5.645   8.374  14.918  1.00  0.00     0.245 C 
HETATM   28  C19 UNL     1       7.253   9.365  16.534  1.00  0.00     0.126 C 
HETATM   29  O1  UNL     1       4.620   7.653  14.761  1.00  0.00    -0.272 OA
HETATM   30  C18 UNL     1       7.377   9.855  17.918  1.00  0.00     0.034 C 
BRANCH  27  31
HETATM   31  C4  UNL     1       6.380   9.024  13.836  1.00  0.00     0.339 C 
BRANCH  31  32
HETATM   32  N1  UNL     1       7.207   8.098  13.031  1.00  0.00    -0.059 N 
HETATM   33  C20 UNL     1       7.463   6.919  13.752  1.00  0.00     0.238 C 
HETATM   34  C21 UNL     1       8.946   6.842  14.078  1.00  0.00     0.029 C 
HETATM   35  C22 UNL     1       9.581   7.840  13.137  1.00  0.00     0.029 C 
HETATM   36  C23 UNL     1       8.468   8.826  12.893  1.00  0.00     0.238 C 
BRANCH  32  37
HETATM   37  C3  UNL     1       6.604   8.054  11.758  1.00  0.00     0.237 C 
BRANCH  37  38
HETATM   38  C2  UNL     1       6.959   9.029  10.717  1.00  0.00     0.023 C 
HETATM   39  C1  UNL     1       6.571   8.682   9.307  1.00  0.00     0.007 C 
ENDBRANCH  37  38
ENDBRANCH  32  37
ENDBRANCH  31  32
ENDBRANCH  27  31
ENDBRANCH   1  23
TORSDOF 11
ENDMDL
MODEL 4
REMARK VINA RESULT: -8.102783114      2.092      3.115
REMARK  11 active torsions:
REMARK  status: ('A' for Active; 'I' for Inactive)
REMARK    1  A    between atoms: C2_2  and  C3_3 
REMARK    2  A    between atoms: C3_3  and  N1_4 
REMARK    3  A    between atoms: N1_4  and  C4_5 
REMARK    4  A    between atoms: C4_5  and  C5_6 
REMARK       I    between atoms: C5_6  and  N2_8 
REMARK    5  A    between atoms: C8_11  and  C9_12 
REMARK       I    between atoms: C9_12  and  N3_14 
REMARK    6  A    between atoms: N3_14  and  C10_16 
REMARK    7  A    between atoms: C10_16  and  C11_17 
REMARK    8  A    between atoms: C11_17  and  C14_20 
REMARK    9  A    between atoms: C14_20  and  N4_21 
REMARK   10  A    between atoms: N4_21  and  C15_23 
REMARK   11  A    between atoms: C16_28  and  N7_29 
ROOT
HETATM    1  C9  UNL     1       4.156   8.220  23.277  1.00  0.00     0.221 C 
HETATM    2  O2  UNL     1       3.764   9.107  24.063  1.00  0.00    -0.273 OA
HETATM    3  N3  UNL     1       5.526   7.889  23.193  1.00  0.00    -0.360 N 
ATOM      4  H3  UNL     1       5.834   7.163  22.547  1.00  0.00     0.162 HD
ENDROOT
BRANCH   3   5
HETATM    5  C10 UNL     1       6.487   8.569  24.011  1.00  0.00     0.133 C 
BRANCH   5   6
HETATM    6  C11 UNL     1       7.837   8.663  23.356  1.00  0.00    -0.015 C 
HETATM    7  C12 UNL     1       7.804   9.872  22.421  1.00  0.00     0.018 C 
HETATM    8  C13 UNL     1       8.161   7.460  22.526  1.00  0.00     0.018 C 
BRANCH   6   9
HETATM    9  C14 UNL     1       8.925   8.958  24.376  1.00  0.00     0.148 C 
BRANCH   9  10
HETATM   10  N4  UNL     1       8.637   8.189  25.567  1.00  0.00    -0.224 N 
ATOM     11  H4  UNL     1       7.664   8.044  25.838  1.00  0.00     0.177 HD
BRANCH  10  12
HETATM   12  C15 UNL     1       9.575   7.680  26.297  1.00  0.00     0.707 A 
HETATM   13  N5  UNL     1       9.301   6.885  27.366  1.00  0.00    -0.117 N 
HETATM   14  N6  UNL     1      10.455   6.524  27.904  1.00  0.00    -0.117 N 
ATOM     15  H5  UNL     1       8.374   6.615  27.694  1.00  0.00     0.206 HD
HETATM   16  C16 UNL     1      11.464   7.076  27.197  1.00  0.00     0.707 A 
ATOM     17  H6  UNL     1      10.564   5.926  28.723  1.00  0.00     0.206 HD
HETATM   18  N8  UNL     1      10.900   7.786  26.208  1.00  0.00    -0.020 N 
ATOM     19  H8  UNL     1      11.405   8.322  25.502  1.00  0.00     0.203 HD
BRANCH  16  20
HETATM   20  N7  UNL     1      12.721   6.932  27.446  1.00  0.00    -0.229 N 
HETATM   21  C17 UNL     1      13.714   7.329  26.477  1.00  0.00     0.165 C 
ATOM     22  H7  UNL     1      13.016   6.533  28.337  1.00  0.00     0.177 HD
ENDBRANCH  16  20
ENDBRANCH  10  12
ENDBRANCH   9  10
ENDBRANCH   6   9
ENDBRANCH   5   6
ENDBRANCH   3   5
BRANCH   1  23
HETATM   23  C8  UNL     1       3.173   7.508  22.424  1.00  0.00     0.081 C 
HETATM   24  C7  UNL     1       2.188   6.736  23.258  1.00  0.00     0.034 C 
HETATM   25  C6  UNL     1       2.851   5.459  23.690  1.00  0.00     0.126 C 
HETATM   26  N2  UNL     1       3.090   4.691  22.483  1.00  0.00    -0.351 N 
HETATM   27  C5  UNL     1       2.632   3.351  22.442  1.00  0.00     0.245 C 
HETATM   28  C19 UNL     1       3.772   5.278  21.360  1.00  0.00     0.126 C 
HETATM   29  O1  UNL     1       2.040   2.921  23.471  1.00  0.00    -0.272 OA
HETATM   30  C18 UNL     1       3.803   6.750  21.315  1.00  0.00     0.034 C 
BRANCH  27  31
HETATM   31  C4  UNL     1       2.872   2.570  21.232  1.00  0.00     0.339 C 
BRANCH  31  32
HETATM   32  N1  UNL     1       3.875   1.495  21.399  1.00  0.00    -0.059 N 
HETATM   33  C20 UNL     1       4.913   1.923  22.246  1.00  0.00     0.238 C 
HETATM   34  C21 UNL     1       6.200   2.036  21.446  1.00  0.00     0.029 C 
HETATM   35  C22 UNL     1       5.920   1.245  20.188  1.00  0.00     0.029 C 
HETATM   36  C23 UNL     1       4.423   1.349  20.051  1.00  0.00     0.238 C 
BRANCH  32  37
HETATM   37  C3  UNL     1       3.141   0.326  21.684  1.00  0.00     0.237 C 
BRANCH  37  38
HETATM   38  C2  UNL     1       3.445  -0.491  22.867  1.00  0.00     0.023 C 
HETATM   39  C1  UNL     1       2.398  -0.535  23.944  1.00  0.00     0.007 C 
ENDBRANCH  37  38
ENDBRANCH  32  37
ENDBRANCH  31  32
ENDBRANCH  27  31
ENDBRANCH   1  23
TORSDOF 11
ENDMDL
MODEL 5
REMARK VINA RESULT: -7.903913606      2.782      3.818
REMARK  11 active torsions:
REMARK  status: ('A' for Active; 'I' for Inactive)
REMARK    1  A    between atoms: C2_2  and  C3_3 
REMARK    2  A    between atoms: C3_3  and  N1_4 
REMARK    3  A    between atoms: N1_4  and  C4_5 
REMARK    4  A    between atoms: C4_5  and  C5_6 
REMARK       I    between atoms: C5_6  and  N2_8 
REMARK    5  A    between atoms: C8_11  and  C9_12 
REMARK       I    between atoms: C9_12  and  N3_14 
REMARK    6  A    between atoms: N3_14  and  C10_16 
REMARK    7  A    between atoms: C10_16  and  C11_17 
REMARK    8  A    between atoms: C11_17  and  C14_20 
REMARK    9  A    between atoms: C14_20  and  N4_21 
REMARK   10  A    between atoms: N4_21  and  C15_23 
REMARK   11  A    between atoms: C16_28  and  N7_29 
ROOT
HETATM    1  C9  UNL     1       4.037   8.524  23.919  1.00  0.00     0.221 C 
HETATM    2  O2  UNL     1       3.821   9.273  24.894  1.00  0.00    -0.273 OA
HETATM    3  N3  UNL     1       5.357   8.224  23.522  1.00  0.00    -0.360 N 
ATOM      4  H3  UNL     1       5.521   7.610  22.724  1.00  0.00     0.162 HD
ENDROOT
BRANCH   3   5
HETATM    5  C10 UNL     1       6.472   8.777  24.236  1.00  0.00     0.133 C 
BRANCH   5   6
HETATM    6  C11 UNL     1       7.760   8.662  23.469  1.00  0.00    -0.015 C 
HETATM    7  C12 UNL     1       7.779   9.793  22.442  1.00  0.00     0.018 C 
HETATM    8  C13 UNL     1       7.873   7.370  22.720  1.00  0.00     0.018 C 
BRANCH   6   9
HETATM    9  C14 UNL     1       8.960   8.901  24.371  1.00  0.00     0.148 C 
BRANCH   9  10
HETATM   10  N4  UNL     1       8.694   8.265  25.642  1.00  0.00    -0.224 N 
ATOM     11  H4  UNL     1       7.737   8.245  25.995  1.00  0.00     0.177 HD
BRANCH  10  12
HETATM   12  C15 UNL     1       9.633   7.719  26.345  1.00  0.00     0.707 A 
HETATM   13  N5  UNL     1       9.360   6.854  27.360  1.00  0.00    -0.117 N 
HETATM   14  N6  UNL     1      10.514   6.472  27.882  1.00  0.00    -0.117 N 
ATOM     15  H5  UNL     1       8.434   6.556  27.664  1.00  0.00     0.206 HD
HETATM   16  C16 UNL     1      11.522   7.077  27.217  1.00  0.00     0.707 A 
ATOM     17  H6  UNL     1      10.625   5.823  28.661  1.00  0.00     0.206 HD
HETATM   18  N8  UNL     1      10.957   7.843  26.272  1.00  0.00    -0.020 N 
ATOM     19  H8  UNL     1      11.462   8.427  25.605  1.00  0.00     0.203 HD
BRANCH  16  20
HETATM   20  N7  UNL     1      12.779   6.929  27.465  1.00  0.00    -0.229 N 
HETATM   21  C17 UNL     1      13.772   7.295  26.484  1.00  0.00     0.165 C 
ATOM     22  H7  UNL     1      13.074   6.549  28.364  1.00  0.00     0.177 HD
ENDBRANCH  16  20
ENDBRANCH  10  12
ENDBRANCH   9  10
ENDBRANCH   6   9
ENDBRANCH   5   6
ENDBRANCH   3   5
BRANCH   1  23
HETATM   23  C8  UNL     1       2.894   7.945  23.171  1.00  0.00     0.081 C 
HETATM   24  C7  UNL     1       1.864   7.375  24.108  1.00  0.00     0.034 C 
HETATM   25  C6  UNL     1       2.349   6.027  24.560  1.00  0.00     0.126 C 
HETATM   26  N2  UNL     1       2.374   5.182  23.381  1.00  0.00    -0.351 N 
HETATM   27  C5  UNL     1       1.710   3.932  23.441  1.00  0.00     0.245 C 
HETATM   28  C19 UNL     1       3.054   5.606  22.186  1.00  0.00     0.126 C 
HETATM   29  O1  UNL     1       1.135   3.645  24.528  1.00  0.00    -0.272 OA
HETATM   30  C18 UNL     1       3.313   7.051  22.063  1.00  0.00     0.034 C 
BRANCH  27  31
HETATM   31  C4  UNL     1       1.734   3.074  22.259  1.00  0.00     0.339 C 
BRANCH  31  32
HETATM   32  N1  UNL     1       2.656   1.923  22.372  1.00  0.00    -0.059 N 
HETATM   33  C20 UNL     1       3.828   2.300  23.051  1.00  0.00     0.238 C 
HETATM   34  C21 UNL     1       5.005   2.249  22.089  1.00  0.00     0.029 C 
HETATM   35  C22 UNL     1       4.497   1.419  20.932  1.00  0.00     0.029 C 
HETATM   36  C23 UNL     1       3.009   1.652  20.978  1.00  0.00     0.238 C 
BRANCH  32  37
HETATM   37  C3  UNL     1       1.870   0.845  22.824  1.00  0.00     0.237 C 
BRANCH  37  38
HETATM   38  C2  UNL     1       2.427  -0.173  23.728  1.00  0.00     0.023 C 
HETATM   39  C1  UNL     1       2.757  -1.506  23.120  1.00  0.00     0.007 C 
ENDBRANCH  37  38
ENDBRANCH  32  37
ENDBRANCH  31  32
ENDBRANCH  27  31
ENDBRANCH   1  23
TORSDOF 11
ENDMDL
