MODEL 1
REMARK VINA RESULT: -5.910936815      0.000      0.000
REMARK  6 active torsions:
REMARK  status: ('A' for Active; 'I' for Inactive)
REMARK    1  A    between atoms: C2_2  and  N1_3 
REMARK    2  A    between atoms: N1_3  and  C3_6 
REMARK    3  A    between atoms: C3_6  and  C4_7 
REMARK    4  A    between atoms: C4_7  and  O1_8 
REMARK    5  A    between atoms: O1_8  and  C5_9 
REMARK    6  A    between atoms: C7_13  and  O2_14 
ROOT
HETATM    1  C5  UNL     1      11.020  31.846  38.116  1.00  0.00     0.088 A 
HETATM    2  C6  UNL     1      11.379  32.781  37.173  1.00  0.00     0.127 A 
HETATM    3  N2  UNL     1      11.063  34.024  37.641  1.00  0.00    -0.344 N 
ATOM      4  H2  UNL     1      11.224  34.896  37.138  1.00  0.00     0.167 HD
HETATM    5  C7  UNL     1      10.514  33.932  38.849  1.00  0.00     0.144 A 
HETATM    6  C9  UNL     1      10.481  32.578  39.155  1.00  0.00     0.094 A 
ENDROOT
BRANCH   1   7
HETATM    7  O1  UNL     1      11.167  30.439  38.052  1.00  0.00    -0.348 OA
BRANCH   7   8
HETATM    8  C4  UNL     1      12.442  29.997  37.708  1.00  0.00     0.203 C 
BRANCH   8   9
HETATM    9  C3  UNL     1      12.574  29.171  36.491  1.00  0.00     0.258 C 
BRANCH   9  10
HETATM   10  N1  UNL     1      12.383  29.899  35.274  1.00  0.00    -0.073 N 
ATOM     11  H12 UNL     1      11.539  30.471  35.323  1.00  0.00     0.277 HD
ATOM     12  H11 UNL     1      12.118  29.271  34.515  1.00  0.00     0.277 HD
BRANCH  10  13
HETATM   13  C2  UNL     1      13.508  30.690  34.903  1.00  0.00     0.228 C 
HETATM   14  C1  UNL     1      13.048  31.805  33.980  1.00  0.00     0.034 C 
ENDBRANCH  10  13
ENDBRANCH   9  10
ENDBRANCH   8   9
ENDBRANCH   7   8
ENDBRANCH   1   7
BRANCH   5  15
HETATM   15  O2  UNL     1      10.036  34.873  39.724  1.00  0.00    -0.341 OA
HETATM   16  C8  UNL     1       9.744  34.671  41.068  1.00  0.00     0.211 C 
ENDBRANCH   5  15
TORSDOF 6
ENDMDL
MODEL 2
REMARK VINA RESULT: -5.833936500      2.269      5.963
REMARK  6 active torsions:
REMARK  status: ('A' for Active; 'I' for Inactive)
REMARK    1  A    between atoms: C2_2  and  N1_3 
REMARK    2  A    between atoms: N1_3  and  C3_6 
REMARK    3  A    between atoms: C3_6  and  C4_7 
REMARK    4  A    between atoms: C4_7  and  O1_8 
REMARK    5  A    between atoms: O1_8  and  C5_9 
REMARK    6  A    between atoms: C7_13  and  O2_14 
ROOT
HETATM    1  C5  UNL     1      12.946  30.821  35.743  1.00  0.00     0.088 A 
HETATM    2  C6  UNL     1      14.074  31.586  35.554  1.00  0.00     0.127 A 
HETATM    3  N2  UNL     1      15.138  30.757  35.342  1.00  0.00    -0.344 N 
ATOM      4  H2  UNL     1      16.095  31.067  35.173  1.00  0.00     0.167 HD
HETATM    5  C7  UNL     1      14.746  29.487  35.385  1.00  0.00     0.144 A 
HETATM    6  C9  UNL     1      13.381  29.515  35.636  1.00  0.00     0.094 A 
ENDROOT
BRANCH   1   7
HETATM    7  O1  UNL     1      11.624  31.261  35.991  1.00  0.00    -0.348 OA
BRANCH   7   8
HETATM    8  C4  UNL     1      11.267  31.318  37.336  1.00  0.00     0.203 C 
BRANCH   8   9
HETATM    9  C3  UNL     1      11.367  32.625  38.015  1.00  0.00     0.258 C 
BRANCH   9  10
HETATM   10  N1  UNL     1      11.114  33.744  37.158  1.00  0.00    -0.073 N 
ATOM     11  H12 UNL     1      10.568  33.459  36.345  1.00  0.00     0.277 HD
ATOM     12  H11 UNL     1      11.970  34.042  36.691  1.00  0.00     0.277 HD
BRANCH  10  13
HETATM   13  C2  UNL     1      10.494  34.840  37.824  1.00  0.00     0.228 C 
HETATM   14  C1  UNL     1       9.842  34.339  39.101  1.00  0.00     0.034 C 
ENDBRANCH  10  13
ENDBRANCH   9  10
ENDBRANCH   8   9
ENDBRANCH   7   8
ENDBRANCH   1   7
BRANCH   5  15
HETATM   15  O2  UNL     1      15.420  28.302  35.235  1.00  0.00    -0.341 OA
HETATM   16  C8  UNL     1      15.052  27.074  35.772  1.00  0.00     0.211 C 
ENDBRANCH   5  15
TORSDOF 6
ENDMDL
MODEL 3
REMARK VINA RESULT: -5.819445837      2.014      2.723
REMARK  6 active torsions:
REMARK  status: ('A' for Active; 'I' for Inactive)
REMARK    1  A    between atoms: C2_2  and  N1_3 
REMARK    2  A    between atoms: N1_3  and  C3_6 
REMARK    3  A    between atoms: C3_6  and  C4_7 
REMARK    4  A    between atoms: C4_7  and  O1_8 
REMARK    5  A    between atoms: O1_8  and  C5_9 
REMARK    6  A    between atoms: C7_13  and  O2_14 
ROOT
HETATM    1  C5  UNL     1      11.629  32.015  36.789  1.00  0.00     0.088 A 
HETATM    2  C6  UNL     1      11.834  30.893  37.558  1.00  0.00     0.127 A 
HETATM    3  N2  UNL     1      11.302  31.107  38.798  1.00  0.00    -0.344 N 
ATOM      4  H2  UNL     1      11.316  30.433  39.563  1.00  0.00     0.167 HD
HETATM    5  C7  UNL     1      10.761  32.320  38.862  1.00  0.00     0.144 A 
HETATM    6  C9  UNL     1      10.961  32.896  37.615  1.00  0.00     0.094 A 
ENDROOT
BRANCH   1   7
HETATM    7  O1  UNL     1      12.012  32.233  35.443  1.00  0.00    -0.348 OA
BRANCH   7   8
HETATM    8  C4  UNL     1      13.055  31.428  34.992  1.00  0.00     0.203 C 
BRANCH   8   9
HETATM    9  C3  UNL     1      14.431  31.934  35.162  1.00  0.00     0.258 C 
BRANCH   9  10
HETATM   10  N1  UNL     1      15.239  31.133  36.031  1.00  0.00    -0.073 N 
ATOM     11  H12 UNL     1      15.125  31.425  37.001  1.00  0.00     0.277 HD
ATOM     12  H11 UNL     1      16.228  31.348  35.905  1.00  0.00     0.277 HD
BRANCH  10  13
HETATM   13  C2  UNL     1      15.006  29.734  35.893  1.00  0.00     0.228 C 
HETATM   14  C1  UNL     1      15.114  29.078  37.258  1.00  0.00     0.034 C 
ENDBRANCH  10  13
ENDBRANCH   9  10
ENDBRANCH   8   9
ENDBRANCH   7   8
ENDBRANCH   1   7
BRANCH   5  15
HETATM   15  O2  UNL     1      10.114  32.995  39.865  1.00  0.00    -0.341 OA
HETATM   16  C8  UNL     1      10.104  34.372  40.054  1.00  0.00     0.211 C 
ENDBRANCH   5  15
TORSDOF 6
ENDMDL
MODEL 4
REMARK VINA RESULT: -5.819063638      2.025      5.955
REMARK  6 active torsions:
REMARK  status: ('A' for Active; 'I' for Inactive)
REMARK    1  A    between atoms: C2_2  and  N1_3 
REMARK    2  A    between atoms: N1_3  and  C3_6 
REMARK    3  A    between atoms: C3_6  and  C4_7 
REMARK    4  A    between atoms: C4_7  and  O1_8 
REMARK    5  A    between atoms: O1_8  and  C5_9 
REMARK    6  A    between atoms: C7_13  and  O2_14 
ROOT
HETATM    1  C5  UNL     1      12.320  30.685  37.789  1.00  0.00     0.088 A 
HETATM    2  C6  UNL     1      11.637  30.995  36.636  1.00  0.00     0.127 A 
HETATM    3  N2  UNL     1      11.972  30.091  35.668  1.00  0.00    -0.344 N 
ATOM      4  H2  UNL     1      11.607  30.092  34.716  1.00  0.00     0.167 HD
HETATM    5  C7  UNL     1      12.844  29.209  36.148  1.00  0.00     0.144 A 
HETATM    6  C9  UNL     1      13.069  29.570  37.469  1.00  0.00     0.094 A 
ENDROOT
BRANCH   1   7
HETATM    7  O1  UNL     1      12.274  31.351  39.037  1.00  0.00    -0.348 OA
BRANCH   7   8
HETATM    8  C4  UNL     1      12.676  32.684  39.006  1.00  0.00     0.203 C 
BRANCH   8   9
HETATM    9  C3  UNL     1      11.638  33.715  39.205  1.00  0.00     0.258 C 
BRANCH   9  10
HETATM   10  N1  UNL     1      10.539  33.282  40.014  1.00  0.00    -0.073 N 
ATOM     11  H12 UNL     1      10.830  32.541  40.652  1.00  0.00     0.277 HD
ATOM     12  H11 UNL     1       9.860  32.766  39.455  1.00  0.00     0.277 HD
BRANCH  10  13
HETATM   13  C2  UNL     1       9.906  34.341  40.725  1.00  0.00     0.228 C 
HETATM   14  C1  UNL     1      10.911  35.456  40.953  1.00  0.00     0.034 C 
ENDBRANCH  10  13
ENDBRANCH   9  10
ENDBRANCH   8   9
ENDBRANCH   7   8
ENDBRANCH   1   7
BRANCH   5  15
HETATM   15  O2  UNL     1      13.471  28.126  35.587  1.00  0.00    -0.341 OA
HETATM   16  C8  UNL     1      14.779  27.719  35.827  1.00  0.00     0.211 C 
ENDBRANCH   5  15
TORSDOF 6
ENDMDL
MODEL 5
REMARK VINA RESULT: -5.814089332      1.843      5.477
REMARK  6 active torsions:
REMARK  status: ('A' for Active; 'I' for Inactive)
REMARK    1  A    between atoms: C2_2  and  N1_3 
REMARK    2  A    between atoms: N1_3  and  C3_6 
REMARK    3  A    between atoms: C3_6  and  C4_7 
REMARK    4  A    between atoms: C4_7  and  O1_8 
REMARK    5  A    between atoms: O1_8  and  C5_9 
REMARK    6  A    between atoms: C7_13  and  O2_14 
ROOT
HETATM    1  C5  UNL     1      11.762  31.599  38.214  1.00  0.00     0.088 A 
HETATM    2  C6  UNL     1      12.204  30.301  38.324  1.00  0.00     0.127 A 
HETATM    3  N2  UNL     1      12.432  29.806  37.072  1.00  0.00    -0.344 N 
ATOM      4  H2  UNL     1      12.766  28.864  36.868  1.00  0.00     0.167 HD
HETATM    5  C7  UNL     1      12.158  30.730  36.157  1.00  0.00     0.144 A 
HETATM    6  C9  UNL     1      11.738  31.853  36.858  1.00  0.00     0.094 A 
ENDROOT
BRANCH   1   7
HETATM    7  O1  UNL     1      11.409  32.493  39.255  1.00  0.00    -0.348 OA
BRANCH   7   8
HETATM    8  C4  UNL     1      10.237  33.212  39.038  1.00  0.00     0.203 C 
BRANCH   8   9
HETATM    9  C3  UNL     1      10.309  34.683  39.146  1.00  0.00     0.258 C 
BRANCH   9  10
HETATM   10  N1  UNL     1      11.277  35.281  38.277  1.00  0.00    -0.073 N 
ATOM     11  H12 UNL     1      10.829  35.659  37.442  1.00  0.00     0.277 HD
ATOM     12  H11 UNL     1      11.864  34.568  37.846  1.00  0.00     0.277 HD
BRANCH  10  13
HETATM   13  C2  UNL     1      12.075  36.274  38.915  1.00  0.00     0.228 C 
HETATM   14  C1  UNL     1      11.802  36.245  40.409  1.00  0.00     0.034 C 
ENDBRANCH  10  13
ENDBRANCH   9  10
ENDBRANCH   8   9
ENDBRANCH   7   8
ENDBRANCH   1   7
BRANCH   5  15
HETATM   15  O2  UNL     1      12.225  30.728  34.787  1.00  0.00    -0.341 OA
HETATM   16  C8  UNL     1      13.068  31.509  34.005  1.00  0.00     0.211 C 
ENDBRANCH   5  15
TORSDOF 6
ENDMDL
