MODEL 1
REMARK VINA RESULT: -6.105321343      0.000      0.000
REMARK  6 active torsions:
REMARK  status: ('A' for Active; 'I' for Inactive)
REMARK    1  A    between atoms: C2_2  and  N1_3 
REMARK    2  A    between atoms: N1_3  and  C3_6 
REMARK    3  A    between atoms: C3_6  and  C4_7 
REMARK    4  A    between atoms: C4_7  and  N2_8 
REMARK    5  A    between atoms: N2_8  and  C5_11 
REMARK    6  A    between atoms: C5_11  and  C6_12 
ROOT
HETATM    1  N2  UNL     1      13.270  33.006  37.799  1.00  0.00    -0.073 N 
ATOM      2  H21 UNL     1      13.121  33.530  36.936  1.00  0.00     0.277 HD
ATOM      3  H22 UNL     1      14.282  33.111  37.871  1.00  0.00     0.277 HD
ENDROOT
BRANCH   1   4
HETATM    4  C4  UNL     1      12.888  31.629  37.654  1.00  0.00     0.259 C 
BRANCH   4   5
HETATM    5  C3  UNL     1      12.053  31.439  36.406  1.00  0.00     0.259 C 
BRANCH   5   6
HETATM    6  N1  UNL     1      12.400  32.488  35.467  1.00  0.00    -0.074 N 
ATOM      7  H12 UNL     1      13.035  33.170  35.883  1.00  0.00     0.277 HD
ATOM      8  H11 UNL     1      11.609  33.104  35.282  1.00  0.00     0.277 HD
BRANCH   6   9
HETATM    9  C2  UNL     1      12.944  31.926  34.236  1.00  0.00     0.228 C 
HETATM   10  C1  UNL     1      14.375  32.402  34.114  1.00  0.00     0.034 C 
ENDBRANCH   6   9
ENDBRANCH   5   6
ENDBRANCH   4   5
ENDBRANCH   1   4
BRANCH   1  11
HETATM   11  C5  UNL     1      12.600  33.608  38.900  1.00  0.00     0.237 C 
BRANCH  11  12
HETATM   12  C6  UNL     1      11.314  34.315  38.569  1.00  0.00     0.017 C 
HETATM   13  C7  UNL     1      11.428  35.808  38.831  1.00  0.00     0.026 C 
HETATM   14  C8  UNL     1      11.716  35.980  40.288  1.00  0.00     0.119 C 
HETATM   15  N3  UNL     1      10.689  35.482  41.117  1.00  0.00    -0.402 N 
HETATM   16  C9  UNL     1       9.840  34.480  40.629  1.00  0.00     0.056 C 
ATOM     17  H3  UNL     1      10.566  35.847  42.062  1.00  0.00     0.158 HD
HETATM   18  C10 UNL     1      10.159  33.796  39.357  1.00  0.00     0.050 C 
ENDBRANCH  11  12
ENDBRANCH   1  11
TORSDOF 6
ENDMDL
MODEL 2
REMARK VINA RESULT: -6.071032265      1.717      2.120
REMARK  6 active torsions:
REMARK  status: ('A' for Active; 'I' for Inactive)
REMARK    1  A    between atoms: C2_2  and  N1_3 
REMARK    2  A    between atoms: N1_3  and  C3_6 
REMARK    3  A    between atoms: C3_6  and  C4_7 
REMARK    4  A    between atoms: C4_7  and  N2_8 
REMARK    5  A    between atoms: N2_8  and  C5_11 
REMARK    6  A    between atoms: C5_11  and  C6_12 
ROOT
HETATM    1  N2  UNL     1      11.624  32.799  36.452  1.00  0.00    -0.073 N 
ATOM      2  H21 UNL     1      10.861  32.445  35.875  1.00  0.00     0.277 HD
ATOM      3  H22 UNL     1      11.741  33.712  36.012  1.00  0.00     0.277 HD
ENDROOT
BRANCH   1   4
HETATM    4  C4  UNL     1      12.806  31.992  36.321  1.00  0.00     0.259 C 
BRANCH   4   5
HETATM    5  C3  UNL     1      12.714  31.115  35.091  1.00  0.00     0.259 C 
BRANCH   5   6
HETATM    6  N1  UNL     1      12.088  29.864  35.474  1.00  0.00    -0.074 N 
ATOM      7  H12 UNL     1      11.943  29.254  34.670  1.00  0.00     0.277 HD
ATOM      8  H11 UNL     1      11.115  29.998  35.746  1.00  0.00     0.277 HD
BRANCH   6   9
HETATM    9  C2  UNL     1      12.853  29.199  36.523  1.00  0.00     0.228 C 
HETATM   10  C1  UNL     1      13.986  28.452  35.854  1.00  0.00     0.034 C 
ENDBRANCH   6   9
ENDBRANCH   5   6
ENDBRANCH   4   5
ENDBRANCH   1   4
BRANCH   1  11
HETATM   11  C5  UNL     1      11.238  32.920  37.816  1.00  0.00     0.237 C 
BRANCH  11  12
HETATM   12  C6  UNL     1      10.838  34.302  38.256  1.00  0.00     0.017 C 
HETATM   13  C7  UNL     1      11.984  35.003  38.968  1.00  0.00     0.026 C 
HETATM   14  C8  UNL     1      12.319  34.187  40.174  1.00  0.00     0.119 C 
HETATM   15  N3  UNL     1      11.250  34.088  41.089  1.00  0.00    -0.402 N 
HETATM   16  C9  UNL     1       9.937  34.248  40.629  1.00  0.00     0.056 C 
ATOM     17  H3  UNL     1      11.431  33.901  42.076  1.00  0.00     0.158 HD
HETATM   18  C10 UNL     1       9.663  34.289  39.176  1.00  0.00     0.050 C 
ENDBRANCH  11  12
ENDBRANCH   1  11
TORSDOF 6
ENDMDL
MODEL 3
REMARK VINA RESULT: -6.023677571      1.680      6.018
REMARK  6 active torsions:
REMARK  status: ('A' for Active; 'I' for Inactive)
REMARK    1  A    between atoms: C2_2  and  N1_3 
REMARK    2  A    between atoms: N1_3  and  C3_6 
REMARK    3  A    between atoms: C3_6  and  C4_7 
REMARK    4  A    between atoms: C4_7  and  N2_8 
REMARK    5  A    between atoms: N2_8  and  C5_11 
REMARK    6  A    between atoms: C5_11  and  C6_12 
ROOT
HETATM    1  N2  UNL     1      11.659  33.018  36.363  1.00  0.00    -0.073 N 
ATOM      2  H21 UNL     1      12.485  33.590  36.185  1.00  0.00     0.277 HD
ATOM      3  H22 UNL     1      11.152  33.205  35.498  1.00  0.00     0.277 HD
ENDROOT
BRANCH   1   4
HETATM    4  C4  UNL     1      10.934  33.479  37.514  1.00  0.00     0.259 C 
BRANCH   4   5
HETATM    5  C3  UNL     1      10.731  32.349  38.500  1.00  0.00     0.259 C 
BRANCH   5   6
HETATM    6  N1  UNL     1      10.561  32.927  39.819  1.00  0.00    -0.074 N 
ATOM      7  H12 UNL     1      11.429  32.899  40.357  1.00  0.00     0.277 HD
ATOM      8  H11 UNL     1       9.989  32.334  40.419  1.00  0.00     0.277 HD
BRANCH   6   9
HETATM    9  C2  UNL     1      10.026  34.281  39.730  1.00  0.00     0.228 C 
HETATM   10  C1  UNL     1       9.732  34.746  41.140  1.00  0.00     0.034 C 
ENDBRANCH   6   9
ENDBRANCH   5   6
ENDBRANCH   4   5
ENDBRANCH   1   4
BRANCH   1  11
HETATM   11  C5  UNL     1      11.992  31.641  36.488  1.00  0.00     0.237 C 
BRANCH  11  12
HETATM   12  C6  UNL     1      12.456  30.969  35.225  1.00  0.00     0.017 C 
HETATM   13  C7  UNL     1      13.661  30.079  35.490  1.00  0.00     0.026 C 
HETATM   14  C8  UNL     1      14.755  30.959  36.002  1.00  0.00     0.119 C 
HETATM   15  N3  UNL     1      15.153  31.945  35.074  1.00  0.00    -0.402 N 
HETATM   16  C9  UNL     1      14.249  32.362  34.088  1.00  0.00     0.056 C 
ATOM     17  H3  UNL     1      16.088  32.350  35.120  1.00  0.00     0.158 HD
HETATM   18  C10 UNL     1      12.831  31.947  34.163  1.00  0.00     0.050 C 
ENDBRANCH  11  12
ENDBRANCH   1  11
TORSDOF 6
ENDMDL
MODEL 4
REMARK VINA RESULT: -5.975363197      1.543      1.879
REMARK  6 active torsions:
REMARK  status: ('A' for Active; 'I' for Inactive)
REMARK    1  A    between atoms: C2_2  and  N1_3 
REMARK    2  A    between atoms: N1_3  and  C3_6 
REMARK    3  A    between atoms: C3_6  and  C4_7 
REMARK    4  A    between atoms: C4_7  and  N2_8 
REMARK    5  A    between atoms: N2_8  and  C5_11 
REMARK    6  A    between atoms: C5_11  and  C6_12 
ROOT
HETATM    1  N2  UNL     1      12.924  32.726  37.276  1.00  0.00    -0.073 N 
ATOM      2  H21 UNL     1      13.376  33.478  36.755  1.00  0.00     0.277 HD
ATOM      3  H22 UNL     1      13.742  32.140  37.442  1.00  0.00     0.277 HD
ENDROOT
BRANCH   1   4
HETATM    4  C4  UNL     1      11.939  32.048  36.479  1.00  0.00     0.259 C 
BRANCH   4   5
HETATM    5  C3  UNL     1      12.601  31.294  35.347  1.00  0.00     0.259 C 
BRANCH   5   6
HETATM    6  N1  UNL     1      12.145  29.919  35.393  1.00  0.00    -0.074 N 
ATOM      7  H12 UNL     1      12.226  29.464  34.484  1.00  0.00     0.277 HD
ATOM      8  H11 UNL     1      11.133  29.861  35.505  1.00  0.00     0.277 HD
BRANCH   6   9
HETATM    9  C2  UNL     1      12.845  29.173  36.433  1.00  0.00     0.228 C 
HETATM   10  C1  UNL     1      13.991  28.439  35.771  1.00  0.00     0.034 C 
ENDBRANCH   6   9
ENDBRANCH   5   6
ENDBRANCH   4   5
ENDBRANCH   1   4
BRANCH   1  11
HETATM   11  C5  UNL     1      12.360  33.197  38.493  1.00  0.00     0.237 C 
BRANCH  11  12
HETATM   12  C6  UNL     1      10.930  33.657  38.410  1.00  0.00     0.017 C 
HETATM   13  C7  UNL     1      10.851  35.159  38.181  1.00  0.00     0.026 C 
HETATM   14  C8  UNL     1      11.506  35.818  39.351  1.00  0.00     0.119 C 
HETATM   15  N3  UNL     1      10.860  35.542  40.575  1.00  0.00    -0.402 N 
HETATM   16  C9  UNL     1      10.096  34.375  40.698  1.00  0.00     0.056 C 
ATOM     17  H3  UNL     1      10.949  36.185  41.362  1.00  0.00     0.158 HD
HETATM   18  C10 UNL     1      10.155  33.338  39.644  1.00  0.00     0.050 C 
ENDBRANCH  11  12
ENDBRANCH   1  11
TORSDOF 6
ENDMDL
MODEL 5
REMARK VINA RESULT: -5.955205087      1.128      1.385
REMARK  6 active torsions:
REMARK  status: ('A' for Active; 'I' for Inactive)
REMARK    1  A    between atoms: C2_2  and  N1_3 
REMARK    2  A    between atoms: N1_3  and  C3_6 
REMARK    3  A    between atoms: C3_6  and  C4_7 
REMARK    4  A    between atoms: C4_7  and  N2_8 
REMARK    5  A    between atoms: N2_8  and  C5_11 
REMARK    6  A    between atoms: C5_11  and  C6_12 
ROOT
HETATM    1  N2  UNL     1      11.266  31.391  38.665  1.00  0.00    -0.073 N 
ATOM      2  H21 UNL     1      11.901  30.738  39.124  1.00  0.00     0.277 HD
ATOM      3  H22 UNL     1      10.384  31.033  39.032  1.00  0.00     0.277 HD
ENDROOT
BRANCH   1   4
HETATM    4  C4  UNL     1      11.332  31.276  37.235  1.00  0.00     0.259 C 
BRANCH   4   5
HETATM    5  C3  UNL     1      12.555  31.992  36.702  1.00  0.00     0.259 C 
BRANCH   5   6
HETATM    6  N1  UNL     1      12.224  32.542  35.401  1.00  0.00    -0.074 N 
ATOM      7  H12 UNL     1      12.443  33.537  35.346  1.00  0.00     0.277 HD
ATOM      8  H11 UNL     1      11.216  32.597  35.261  1.00  0.00     0.277 HD
BRANCH   6   9
HETATM    9  C2  UNL     1      12.875  31.787  34.336  1.00  0.00     0.228 C 
HETATM   10  C1  UNL     1      14.250  32.386  34.130  1.00  0.00     0.034 C 
ENDBRANCH   6   9
ENDBRANCH   5   6
ENDBRANCH   4   5
ENDBRANCH   1   4
BRANCH   1  11
HETATM   11  C5  UNL     1      11.502  32.730  39.081  1.00  0.00     0.237 C 
BRANCH  11  12
HETATM   12  C6  UNL     1      10.276  33.592  39.217  1.00  0.00     0.017 C 
HETATM   13  C7  UNL     1      10.366  34.818  38.322  1.00  0.00     0.026 C 
HETATM   14  C8  UNL     1      11.561  35.599  38.763  1.00  0.00     0.119 C 
HETATM   15  N3  UNL     1      11.463  36.055  40.095  1.00  0.00    -0.402 N 
HETATM   16  C9  UNL     1      10.637  35.369  40.994  1.00  0.00     0.056 C 
ATOM     17  H3  UNL     1      11.989  36.874  40.400  1.00  0.00     0.158 HD
HETATM   18  C10 UNL     1      10.060  34.060  40.617  1.00  0.00     0.050 C 
ENDBRANCH  11  12
ENDBRANCH   1  11
TORSDOF 6
ENDMDL
