MODEL 1
REMARK VINA RESULT: -6.037549830      0.000      0.000
REMARK  6 active torsions:
REMARK  status: ('A' for Active; 'I' for Inactive)
REMARK    1  A    between atoms: C3_6  and  C4_7 
REMARK    2  A    between atoms: C4_7  and  N2_8 
REMARK    3  A    between atoms: N2_8  and  C5_11 
REMARK    4  A    between atoms: C5_11  and  C6_12 
REMARK    5  A    between atoms: C6_12  and  N3_13 
REMARK    6  A    between atoms: N3_13  and  C7_15 
ROOT
HETATM    1  N2  UNL     1      13.364  32.593  37.432  1.00  0.00    -0.072 N 
ATOM      2  H21 UNL     1      12.813  33.417  37.194  1.00  0.00     0.277 HD
ATOM      3  H22 UNL     1      14.189  33.047  37.825  1.00  0.00     0.277 HD
ENDROOT
BRANCH   1   4
HETATM    4  C4  UNL     1      13.711  31.852  36.243  1.00  0.00     0.265 C 
BRANCH   4   5
HETATM    5  C3  UNL     1      14.258  30.517  36.625  1.00  0.00     0.211 C 
HETATM    6  N1  UNL     1      15.693  30.431  36.318  1.00  0.00    -0.069 N 
HETATM    7  C2  UNL     1      15.942  29.022  36.584  1.00  0.00     0.233 C 
ATOM      8  H12 UNL     1      16.290  31.087  36.821  1.00  0.00     0.277 HD
ATOM      9  H11 UNL     1      15.965  30.759  35.391  1.00  0.00     0.277 HD
HETATM   10  C1  UNL     1      14.710  28.296  36.040  1.00  0.00     0.029 C 
HETATM   11  C10 UNL     1      13.734  29.399  35.711  1.00  0.00     0.036 C 
ENDBRANCH   4   5
ENDBRANCH   1   4
BRANCH   1  12
HETATM   12  C5  UNL     1      12.695  31.809  38.433  1.00  0.00     0.251 C 
BRANCH  12  13
HETATM   13  C6  UNL     1      11.187  31.980  38.209  1.00  0.00     0.141 C 
BRANCH  13  14
HETATM   14  N3  UNL     1      10.651  32.640  39.362  1.00  0.00    -0.415 N 
ATOM     15  H3  UNL     1      10.691  32.229  40.294  1.00  0.00     0.153 HD
BRANCH  14  16
HETATM   16  C7  UNL     1      10.059  33.914  39.114  1.00  0.00     0.076 A 
HETATM   17  C8  UNL     1      10.794  35.184  39.364  1.00  0.00     0.027 A 
HETATM   18  C9  UNL     1      10.474  34.767  37.949  1.00  0.00     0.027 A 
ENDBRANCH  14  16
ENDBRANCH  13  14
ENDBRANCH  12  13
ENDBRANCH   1  12
TORSDOF 6
ENDMDL
MODEL 2
REMARK VINA RESULT: -6.031467307      0.790      1.030
REMARK  6 active torsions:
REMARK  status: ('A' for Active; 'I' for Inactive)
REMARK    1  A    between atoms: C3_6  and  C4_7 
REMARK    2  A    between atoms: C4_7  and  N2_8 
REMARK    3  A    between atoms: N2_8  and  C5_11 
REMARK    4  A    between atoms: C5_11  and  C6_12 
REMARK    5  A    between atoms: C6_12  and  N3_13 
REMARK    6  A    between atoms: N3_13  and  C7_15 
ROOT
HETATM    1  N2  UNL     1      13.596  32.666  37.086  1.00  0.00    -0.072 N 
ATOM      2  H21 UNL     1      13.195  33.540  36.747  1.00  0.00     0.277 HD
ATOM      3  H22 UNL     1      14.421  33.030  37.563  1.00  0.00     0.277 HD
ENDROOT
BRANCH   1   4
HETATM    4  C4  UNL     1      13.981  31.821  35.980  1.00  0.00     0.265 C 
BRANCH   4   5
HETATM    5  C3  UNL     1      14.418  30.490  36.495  1.00  0.00     0.211 C 
HETATM    6  N1  UNL     1      15.868  30.314  36.326  1.00  0.00    -0.069 N 
HETATM    7  C2  UNL     1      16.016  28.916  36.702  1.00  0.00     0.233 C 
ATOM      8  H12 UNL     1      16.454  30.972  36.839  1.00  0.00     0.277 HD
ATOM      9  H11 UNL     1      16.238  30.565  35.409  1.00  0.00     0.277 HD
HETATM   10  C1  UNL     1      14.799  28.215  36.095  1.00  0.00     0.029 C 
HETATM   11  C10 UNL     1      13.917  29.340  35.609  1.00  0.00     0.036 C 
ENDBRANCH   4   5
ENDBRANCH   1   4
BRANCH   1  12
HETATM   12  C5  UNL     1      12.710  32.033  38.023  1.00  0.00     0.251 C 
BRANCH  12  13
HETATM   13  C6  UNL     1      11.278  32.389  37.603  1.00  0.00     0.141 C 
BRANCH  13  14
HETATM   14  N3  UNL     1      11.289  33.743  37.136  1.00  0.00    -0.415 N 
ATOM     15  H3  UNL     1      11.842  34.039  36.331  1.00  0.00     0.153 HD
BRANCH  14  16
HETATM   16  C7  UNL     1      10.474  34.649  37.876  1.00  0.00     0.076 A 
HETATM   17  C8  UNL     1       9.853  34.267  39.173  1.00  0.00     0.027 A 
HETATM   18  C9  UNL     1      10.957  35.295  39.144  1.00  0.00     0.027 A 
ENDBRANCH  14  16
ENDBRANCH  13  14
ENDBRANCH  12  13
ENDBRANCH   1  12
TORSDOF 6
ENDMDL
MODEL 3
REMARK VINA RESULT: -6.014779437      2.048      5.621
REMARK  6 active torsions:
REMARK  status: ('A' for Active; 'I' for Inactive)
REMARK    1  A    between atoms: C3_6  and  C4_7 
REMARK    2  A    between atoms: C4_7  and  N2_8 
REMARK    3  A    between atoms: N2_8  and  C5_11 
REMARK    4  A    between atoms: C5_11  and  C6_12 
REMARK    5  A    between atoms: C6_12  and  N3_13 
REMARK    6  A    between atoms: N3_13  and  C7_15 
ROOT
HETATM    1  N2  UNL     1      11.631  30.853  38.808  1.00  0.00    -0.072 N 
ATOM      2  H21 UNL     1      11.121  29.979  38.932  1.00  0.00     0.277 HD
ATOM      3  H22 UNL     1      11.987  30.980  39.756  1.00  0.00     0.277 HD
ENDROOT
BRANCH   1   4
HETATM    4  C4  UNL     1      10.726  31.923  38.458  1.00  0.00     0.265 C 
BRANCH   4   5
HETATM    5  C3  UNL     1      11.392  33.238  38.689  1.00  0.00     0.211 C 
HETATM    6  N1  UNL     1      11.583  33.484  40.126  1.00  0.00    -0.069 N 
HETATM    7  C2  UNL     1      12.048  34.863  40.105  1.00  0.00     0.233 C 
ATOM      8  H12 UNL     1      12.189  32.822  40.609  1.00  0.00     0.277 HD
ATOM      9  H11 UNL     1      10.770  33.302  40.715  1.00  0.00     0.277 HD
HETATM   10  C1  UNL     1      11.201  35.547  39.030  1.00  0.00     0.029 C 
HETATM   11  C10 UNL     1      10.467  34.417  38.350  1.00  0.00     0.036 C 
ENDBRANCH   4   5
ENDBRANCH   1   4
BRANCH   1  12
HETATM   12  C5  UNL     1      12.714  30.680  37.881  1.00  0.00     0.251 C 
BRANCH  12  13
HETATM   13  C6  UNL     1      12.353  29.493  36.978  1.00  0.00     0.141 C 
BRANCH  13  14
HETATM   14  N3  UNL     1      12.167  30.001  35.652  1.00  0.00    -0.415 N 
ATOM     15  H3  UNL     1      11.504  29.588  34.997  1.00  0.00     0.153 HD
BRANCH  14  16
HETATM   16  C7  UNL     1      12.976  31.125  35.312  1.00  0.00     0.076 A 
HETATM   17  C8  UNL     1      14.254  30.975  34.564  1.00  0.00     0.027 A 
HETATM   18  C9  UNL     1      13.070  31.636  33.902  1.00  0.00     0.027 A 
ENDBRANCH  14  16
ENDBRANCH  13  14
ENDBRANCH  12  13
ENDBRANCH   1  12
TORSDOF 6
ENDMDL
MODEL 4
REMARK VINA RESULT: -5.995743396      1.688      5.866
REMARK  6 active torsions:
REMARK  status: ('A' for Active; 'I' for Inactive)
REMARK    1  A    between atoms: C3_6  and  C4_7 
REMARK    2  A    between atoms: C4_7  and  N2_8 
REMARK    3  A    between atoms: N2_8  and  C5_11 
REMARK    4  A    between atoms: C5_11  and  C6_12 
REMARK    5  A    between atoms: C6_12  and  N3_13 
REMARK    6  A    between atoms: N3_13  and  C7_15 
ROOT
HETATM    1  N2  UNL     1      12.918  32.740  37.112  1.00  0.00    -0.072 N 
ATOM      2  H21 UNL     1      13.899  32.530  36.929  1.00  0.00     0.277 HD
ATOM      3  H22 UNL     1      12.930  33.750  36.969  1.00  0.00     0.277 HD
ENDROOT
BRANCH   1   4
HETATM    4  C4  UNL     1      12.578  32.426  38.480  1.00  0.00     0.265 C 
BRANCH   4   5
HETATM    5  C3  UNL     1      11.848  33.575  39.092  1.00  0.00     0.211 C 
HETATM    6  N1  UNL     1      12.178  33.705  40.519  1.00  0.00    -0.069 N 
HETATM    7  C2  UNL     1      11.226  34.729  40.924  1.00  0.00     0.233 C 
ATOM      8  H12 UNL     1      13.156  33.905  40.728  1.00  0.00     0.277 HD
ATOM      9  H11 UNL     1      12.150  32.839  41.058  1.00  0.00     0.277 HD
HETATM   10  C1  UNL     1       9.937  34.385  40.176  1.00  0.00     0.029 C 
HETATM   11  C10 UNL     1      10.340  33.303  39.204  1.00  0.00     0.036 C 
ENDBRANCH   4   5
ENDBRANCH   1   4
BRANCH   1  12
HETATM   12  C5  UNL     1      12.074  32.103  36.141  1.00  0.00     0.251 C 
BRANCH  12  13
HETATM   13  C6  UNL     1      11.825  30.669  36.627  1.00  0.00     0.141 C 
BRANCH  13  14
HETATM   14  N3  UNL     1      12.162  29.784  35.553  1.00  0.00    -0.415 N 
ATOM     15  H3  UNL     1      11.602  29.718  34.703  1.00  0.00     0.153 HD
BRANCH  14  16
HETATM   16  C7  UNL     1      13.337  29.001  35.755  1.00  0.00     0.076 A 
HETATM   17  C8  UNL     1      14.700  29.563  35.552  1.00  0.00     0.027 A 
HETATM   18  C9  UNL     1      14.233  29.209  36.944  1.00  0.00     0.027 A 
ENDBRANCH  14  16
ENDBRANCH  13  14
ENDBRANCH  12  13
ENDBRANCH   1  12
TORSDOF 6
ENDMDL
MODEL 5
REMARK VINA RESULT: -5.994256969      1.252      1.349
REMARK  6 active torsions:
REMARK  status: ('A' for Active; 'I' for Inactive)
REMARK    1  A    between atoms: C3_6  and  C4_7 
REMARK    2  A    between atoms: C4_7  and  N2_8 
REMARK    3  A    between atoms: N2_8  and  C5_11 
REMARK    4  A    between atoms: C5_11  and  C6_12 
REMARK    5  A    between atoms: C6_12  and  N3_13 
REMARK    6  A    between atoms: N3_13  and  C7_15 
ROOT
HETATM    1  N2  UNL     1      13.969  32.397  36.030  1.00  0.00    -0.072 N 
ATOM      2  H21 UNL     1      13.435  33.022  35.426  1.00  0.00     0.277 HD
ATOM      3  H22 UNL     1      14.707  33.035  36.326  1.00  0.00     0.277 HD
ENDROOT
BRANCH   1   4
HETATM    4  C4  UNL     1      14.520  31.302  35.268  1.00  0.00     0.265 C 
BRANCH   4   5
HETATM    5  C3  UNL     1      14.935  30.206  36.193  1.00  0.00     0.211 C 
HETATM    6  N1  UNL     1      16.401  30.130  36.289  1.00  0.00    -0.069 N 
HETATM    7  C2  UNL     1      16.557  28.905  37.060  1.00  0.00     0.233 C 
ATOM      8  H12 UNL     1      16.860  30.954  36.675  1.00  0.00     0.277 HD
ATOM      9  H11 UNL     1      16.902  30.158  35.401  1.00  0.00     0.277 HD
HETATM   10  C1  UNL     1      15.493  27.954  36.507  1.00  0.00     0.029 C 
HETATM   11  C10 UNL     1      14.646  28.817  35.604  1.00  0.00     0.036 C 
ENDBRANCH   4   5
ENDBRANCH   1   4
BRANCH   1  12
HETATM   12  C5  UNL     1      13.177  31.984  37.155  1.00  0.00     0.251 C 
BRANCH  12  13
HETATM   13  C6  UNL     1      11.705  32.081  36.734  1.00  0.00     0.141 C 
BRANCH  13  14
HETATM   14  N3  UNL     1      11.291  33.438  36.926  1.00  0.00    -0.415 N 
ATOM     15  H3  UNL     1      11.071  34.057  36.145  1.00  0.00     0.153 HD
BRANCH  14  16
HETATM   16  C7  UNL     1      11.206  33.864  38.284  1.00  0.00     0.076 A 
HETATM   17  C8  UNL     1      11.048  35.298  38.650  1.00  0.00     0.027 A 
HETATM   18  C9  UNL     1       9.913  34.331  38.889  1.00  0.00     0.027 A 
ENDBRANCH  14  16
ENDBRANCH  13  14
ENDBRANCH  12  13
ENDBRANCH   1  12
TORSDOF 6
ENDMDL
