MODEL 1
REMARK VINA RESULT: -6.281751453      0.000      0.000
REMARK  6 active torsions:
REMARK  status: ('A' for Active; 'I' for Inactive)
REMARK    1  A    between atoms: C3_6  and  N2_7 
REMARK    2  A    between atoms: N2_7  and  C4_10 
REMARK    3  A    between atoms: C4_10  and  C5_11 
REMARK    4  A    between atoms: C5_11  and  N3_12 
REMARK    5  A    between atoms: N3_12  and  C6_15 
REMARK    6  A    between atoms: C6_15  and  C7_16 
ROOT
HETATM    1  N2  UNL     1      13.595  32.404  37.056  1.00  0.00    -0.045 N 
ATOM      2  H21 UNL     1      13.977  33.253  36.639  1.00  0.00     0.279 HD
ATOM      3  H22 UNL     1      14.477  31.945  37.284  1.00  0.00     0.279 HD
ENDROOT
BRANCH   1   4
HETATM    4  C3  UNL     1      12.817  31.649  36.128  1.00  0.00     0.382 C 
HETATM    5  N1  UNL     1      12.480  32.433  34.926  1.00  0.00    -0.046 N 
HETATM    6  C2  UNL     1      13.610  32.303  34.030  1.00  0.00     0.235 C 
ATOM      7  H12 UNL     1      12.232  33.401  35.128  1.00  0.00     0.279 HD
ATOM      8  H11 UNL     1      11.592  32.163  34.501  1.00  0.00     0.279 HD
HETATM    9  C1  UNL     1      14.376  31.092  34.441  1.00  0.00     0.031 C 
HETATM   10  C10 UNL     1      13.493  30.474  35.499  1.00  0.00     0.064 C 
ENDBRANCH   1   4
BRANCH   1  11
HETATM   11  C4  UNL     1      12.805  32.678  38.226  1.00  0.00     0.262 C 
BRANCH  11  12
HETATM   12  C5  UNL     1      11.875  31.507  38.594  1.00  0.00     0.259 C 
BRANCH  12  13
HETATM   13  N3  UNL     1      10.652  32.123  39.083  1.00  0.00    -0.073 N 
ATOM     14  H32 UNL     1       9.835  31.574  38.816  1.00  0.00     0.277 HD
ATOM     15  H31 UNL     1      10.583  32.041  40.097  1.00  0.00     0.277 HD
BRANCH  13  16
HETATM   16  C6  UNL     1      10.511  33.474  38.672  1.00  0.00     0.237 C 
BRANCH  16  17
HETATM   17  C7  UNL     1       9.888  34.361  39.689  1.00  0.00     0.011 A 
HETATM   18  C8  UNL     1      10.156  34.278  41.132  1.00  0.00     0.007 A 
HETATM   19  C9  UNL     1      10.764  35.417  40.381  1.00  0.00     0.007 A 
ENDBRANCH  16  17
ENDBRANCH  13  16
ENDBRANCH  12  13
ENDBRANCH  11  12
ENDBRANCH   1  11
TORSDOF 6
ENDMDL
MODEL 2
REMARK VINA RESULT: -6.181064389      1.442      1.849
REMARK  6 active torsions:
REMARK  status: ('A' for Active; 'I' for Inactive)
REMARK    1  A    between atoms: C3_6  and  N2_7 
REMARK    2  A    between atoms: N2_7  and  C4_10 
REMARK    3  A    between atoms: C4_10  and  C5_11 
REMARK    4  A    between atoms: C5_11  and  N3_12 
REMARK    5  A    between atoms: N3_12  and  C6_15 
REMARK    6  A    between atoms: C6_15  and  C7_16 
ROOT
HETATM    1  N2  UNL     1      14.253  30.838  36.685  1.00  0.00    -0.045 N 
ATOM      2  H21 UNL     1      15.155  30.936  37.152  1.00  0.00     0.279 HD
ATOM      3  H22 UNL     1      14.534  30.174  35.965  1.00  0.00     0.279 HD
ENDROOT
BRANCH   1   4
HETATM    4  C3  UNL     1      13.795  32.072  36.132  1.00  0.00     0.382 C 
HETATM    5  N1  UNL     1      14.740  32.615  35.139  1.00  0.00    -0.046 N 
HETATM    6  C2  UNL     1      14.415  31.972  33.882  1.00  0.00     0.235 C 
ATOM      7  H12 UNL     1      15.718  32.510  35.408  1.00  0.00     0.279 HD
ATOM      8  H11 UNL     1      14.734  33.634  35.087  1.00  0.00     0.279 HD
HETATM    9  C1  UNL     1      13.023  31.451  33.987  1.00  0.00     0.031 C 
HETATM   10  C10 UNL     1      12.550  32.007  35.310  1.00  0.00     0.064 C 
ENDBRANCH   1   4
BRANCH   1  11
HETATM   11  C4  UNL     1      13.242  30.303  37.556  1.00  0.00     0.262 C 
BRANCH  11  12
HETATM   12  C5  UNL     1      12.870  31.275  38.690  1.00  0.00     0.259 C 
BRANCH  12  13
HETATM   13  N3  UNL     1      11.471  31.010  38.985  1.00  0.00    -0.073 N 
ATOM     14  H32 UNL     1      11.212  30.064  38.705  1.00  0.00     0.277 HD
ATOM     15  H31 UNL     1      11.318  30.934  39.990  1.00  0.00     0.277 HD
BRANCH  13  16
HETATM   16  C6  UNL     1      10.595  31.967  38.409  1.00  0.00     0.237 C 
BRANCH  16  17
HETATM   17  C7  UNL     1      10.943  33.378  38.716  1.00  0.00     0.011 A 
HETATM   18  C8  UNL     1      10.547  34.526  37.885  1.00  0.00     0.007 A 
HETATM   19  C9  UNL     1       9.828  34.329  39.179  1.00  0.00     0.007 A 
ENDBRANCH  16  17
ENDBRANCH  13  16
ENDBRANCH  12  13
ENDBRANCH  11  12
ENDBRANCH   1  11
TORSDOF 6
ENDMDL
MODEL 3
REMARK VINA RESULT: -6.117219426      2.231      3.085
REMARK  6 active torsions:
REMARK  status: ('A' for Active; 'I' for Inactive)
REMARK    1  A    between atoms: C3_6  and  N2_7 
REMARK    2  A    between atoms: N2_7  and  C4_10 
REMARK    3  A    between atoms: C4_10  and  C5_11 
REMARK    4  A    between atoms: C5_11  and  N3_12 
REMARK    5  A    between atoms: N3_12  and  C6_15 
REMARK    6  A    between atoms: C6_15  and  C7_16 
ROOT
HETATM    1  N2  UNL     1      14.328  30.718  36.980  1.00  0.00    -0.045 N 
ATOM      2  H21 UNL     1      14.845  30.881  37.845  1.00  0.00     0.279 HD
ATOM      3  H22 UNL     1      13.604  30.107  37.357  1.00  0.00     0.279 HD
ENDROOT
BRANCH   1   4
HETATM    4  C3  UNL     1      15.123  30.066  35.990  1.00  0.00     0.382 C 
HETATM    5  N1  UNL     1      16.548  30.028  36.365  1.00  0.00    -0.046 N 
HETATM    6  C2  UNL     1      16.711  28.864  37.211  1.00  0.00     0.235 C 
ATOM      7  H12 UNL     1      16.878  30.892  36.795  1.00  0.00     0.279 HD
ATOM      8  H11 UNL     1      17.180  30.039  35.564  1.00  0.00     0.279 HD
HETATM    9  C1  UNL     1      15.560  27.953  36.952  1.00  0.00     0.031 C 
HETATM   10  C10 UNL     1      14.862  28.609  35.785  1.00  0.00     0.064 C 
ENDBRANCH   1   4
BRANCH   1  11
HETATM   11  C4  UNL     1      13.786  31.932  36.431  1.00  0.00     0.262 C 
BRANCH  11  12
HETATM   12  C5  UNL     1      12.359  31.741  35.884  1.00  0.00     0.259 C 
BRANCH  12  13
HETATM   13  N3  UNL     1      11.651  32.968  36.214  1.00  0.00    -0.073 N 
ATOM     14  H32 UNL     1      12.168  33.786  35.891  1.00  0.00     0.277 HD
ATOM     15  H31 UNL     1      10.810  33.068  35.645  1.00  0.00     0.277 HD
BRANCH  13  16
HETATM   16  C6  UNL     1      11.345  33.075  37.595  1.00  0.00     0.237 C 
BRANCH  16  17
HETATM   17  C7  UNL     1      10.506  34.249  37.948  1.00  0.00     0.011 A 
HETATM   18  C8  UNL     1       9.797  34.404  39.227  1.00  0.00     0.007 A 
HETATM   19  C9  UNL     1      11.021  35.232  39.011  1.00  0.00     0.007 A 
ENDBRANCH  16  17
ENDBRANCH  13  16
ENDBRANCH  12  13
ENDBRANCH  11  12
ENDBRANCH   1  11
TORSDOF 6
ENDMDL
MODEL 4
REMARK VINA RESULT: -6.055249770      1.211      1.680
REMARK  6 active torsions:
REMARK  status: ('A' for Active; 'I' for Inactive)
REMARK    1  A    between atoms: C3_6  and  N2_7 
REMARK    2  A    between atoms: N2_7  and  C4_10 
REMARK    3  A    between atoms: C4_10  and  C5_11 
REMARK    4  A    between atoms: C5_11  and  N3_12 
REMARK    5  A    between atoms: N3_12  and  C6_15 
REMARK    6  A    between atoms: C6_15  and  C7_16 
ROOT
HETATM    1  N2  UNL     1      13.627  31.726  37.438  1.00  0.00    -0.045 N 
ATOM      2  H21 UNL     1      14.197  32.409  37.939  1.00  0.00     0.279 HD
ATOM      3  H22 UNL     1      13.819  30.917  38.028  1.00  0.00     0.279 HD
ENDROOT
BRANCH   1   4
HETATM    4  C3  UNL     1      14.069  31.534  36.095  1.00  0.00     0.382 C 
HETATM    5  N1  UNL     1      15.397  30.896  36.039  1.00  0.00    -0.046 N 
HETATM    6  C2  UNL     1      15.161  29.470  36.128  1.00  0.00     0.235 C 
ATOM      7  H12 UNL     1      16.046  31.244  36.743  1.00  0.00     0.279 HD
ATOM      8  H11 UNL     1      15.944  31.167  35.221  1.00  0.00     0.279 HD
HETATM    9  C1  UNL     1      13.743  29.221  35.743  1.00  0.00     0.031 C 
HETATM   10  C10 UNL     1      13.276  30.577  35.268  1.00  0.00     0.064 C 
ENDBRANCH   1   4
BRANCH   1  11
HETATM   11  C4  UNL     1      12.232  32.079  37.434  1.00  0.00     0.262 C 
BRANCH  11  12
HETATM   12  C5  UNL     1      11.400  31.190  38.377  1.00  0.00     0.259 C 
BRANCH  12  13
HETATM   13  N3  UNL     1      10.606  32.110  39.176  1.00  0.00    -0.073 N 
ATOM     14  H32 UNL     1       9.653  31.765  39.291  1.00  0.00     0.277 HD
ATOM     15  H31 UNL     1      10.906  32.098  40.151  1.00  0.00     0.277 HD
BRANCH  13  16
HETATM   16  C6  UNL     1      10.607  33.432  38.661  1.00  0.00     0.237 C 
BRANCH  16  17
HETATM   17  C7  UNL     1       9.914  34.426  39.521  1.00  0.00     0.011 A 
HETATM   18  C8  UNL     1       9.894  34.374  40.991  1.00  0.00     0.007 A 
HETATM   19  C9  UNL     1      10.763  35.405  40.347  1.00  0.00     0.007 A 
ENDBRANCH  16  17
ENDBRANCH  13  16
ENDBRANCH  12  13
ENDBRANCH  11  12
ENDBRANCH   1  11
TORSDOF 6
ENDMDL
MODEL 5
REMARK VINA RESULT: -6.042656749      1.024      1.562
REMARK  6 active torsions:
REMARK  status: ('A' for Active; 'I' for Inactive)
REMARK    1  A    between atoms: C3_6  and  N2_7 
REMARK    2  A    between atoms: N2_7  and  C4_10 
REMARK    3  A    between atoms: C4_10  and  C5_11 
REMARK    4  A    between atoms: C5_11  and  N3_12 
REMARK    5  A    between atoms: N3_12  and  C6_15 
REMARK    6  A    between atoms: C6_15  and  C7_16 
ROOT
HETATM    1  N2  UNL     1      13.583  32.443  37.004  1.00  0.00    -0.045 N 
ATOM      2  H21 UNL     1      13.902  33.335  36.625  1.00  0.00     0.279 HD
ATOM      3  H22 UNL     1      14.496  32.016  37.157  1.00  0.00     0.279 HD
ENDROOT
BRANCH   1   4
HETATM    4  C3  UNL     1      12.793  31.709  36.070  1.00  0.00     0.382 C 
HETATM    5  N1  UNL     1      12.524  32.485  34.846  1.00  0.00    -0.046 N 
HETATM    6  C2  UNL     1      13.669  32.284  33.983  1.00  0.00     0.235 C 
ATOM      7  H12 UNL     1      12.319  33.468  35.025  1.00  0.00     0.279 HD
ATOM      8  H11 UNL     1      11.636  32.251  34.403  1.00  0.00     0.279 HD
HETATM    9  C1  UNL     1      14.365  31.046  34.435  1.00  0.00     0.031 C 
HETATM   10  C10 UNL     1      13.426  30.491  35.481  1.00  0.00     0.064 C 
ENDBRANCH   1   4
BRANCH   1  11
HETATM   11  C4  UNL     1      12.845  32.604  38.228  1.00  0.00     0.262 C 
BRANCH  11  12
HETATM   12  C5  UNL     1      13.302  33.837  39.030  1.00  0.00     0.259 C 
BRANCH  12  13
HETATM   13  N3  UNL     1      12.707  33.683  40.349  1.00  0.00    -0.073 N 
ATOM     14  H32 UNL     1      12.008  32.940  40.350  1.00  0.00     0.277 HD
ATOM     15  H31 UNL     1      13.376  33.283  41.006  1.00  0.00     0.277 HD
BRANCH  13  16
HETATM   16  C6  UNL     1      12.162  34.892  40.853  1.00  0.00     0.237 C 
BRANCH  16  17
HETATM   17  C7  UNL     1      10.798  35.204  40.353  1.00  0.00     0.011 A 
HETATM   18  C8  UNL     1       9.864  34.201  39.820  1.00  0.00     0.007 A 
HETATM   19  C9  UNL     1       9.587  34.749  41.182  1.00  0.00     0.007 A 
ENDBRANCH  16  17
ENDBRANCH  13  16
ENDBRANCH  12  13
ENDBRANCH  11  12
ENDBRANCH   1  11
TORSDOF 6
ENDMDL
