MODEL 1
REMARK VINA RESULT: -6.229623433      0.000      0.000
REMARK  6 active torsions:
REMARK  status: ('A' for Active; 'I' for Inactive)
REMARK    1  A    between atoms: C2_2  and  N1_3 
REMARK    2  A    between atoms: N1_3  and  C4_5 
REMARK    3  A    between atoms: C4_5  and  C5_6 
REMARK    4  A    between atoms: C5_6  and  O1_7 
REMARK    5  A    between atoms: O1_7  and  C6_8 
REMARK    6  A    between atoms: C8_12  and  N3_13 
ROOT
HETATM    1  C6  UNL     1      12.721  31.458  35.893  1.00  0.00     0.173 A 
HETATM    2  C7  UNL     1      13.875  30.775  36.181  1.00  0.00     0.162 A 
HETATM    3  N2  UNL     1      14.883  31.224  35.371  1.00  0.00    -0.198 N 
ATOM      4  H2  UNL     1      15.848  30.893  35.368  1.00  0.00     0.183 HD
HETATM    5  C8  UNL     1      14.369  32.180  34.581  1.00  0.00     0.677 A 
HETATM    6  N4  UNL     1      13.074  32.325  34.889  1.00  0.00    -0.169 N 
ATOM      7  H4  UNL     1      12.439  32.987  34.441  1.00  0.00     0.186 HD
ENDROOT
BRANCH   1   8
HETATM    8  O1  UNL     1      11.476  31.338  36.451  1.00  0.00    -0.333 OA
BRANCH   8   9
HETATM    9  C5  UNL     1      11.064  31.492  37.750  1.00  0.00     0.207 C 
BRANCH   9  10
HETATM   10  C4  UNL     1      11.612  32.719  38.439  1.00  0.00     0.298 C 
BRANCH  10  11
HETATM   11  N1  UNL     1      10.466  33.592  38.667  1.00  0.00     0.085 N 
HETATM   12  C3  UNL     1      10.505  34.783  37.879  1.00  0.00     0.310 C 
BRANCH  11  13
HETATM   13  C2  UNL     1      10.253  33.804  40.068  1.00  0.00     0.267 C 
HETATM   14  C1  UNL     1      10.608  35.186  40.537  1.00  0.00     0.037 C 
ENDBRANCH  11  13
ENDBRANCH  10  11
ENDBRANCH   9  10
ENDBRANCH   8   9
ENDBRANCH   1   8
BRANCH   5  15
HETATM   15  N3  UNL     1      15.023  32.859  33.663  1.00  0.00    -0.234 N 
ATOM     16  H32 UNL     1      15.640  32.463  32.954  1.00  0.00     0.174 HD
ATOM     17  H31 UNL     1      15.001  33.871  33.537  1.00  0.00     0.174 HD
ENDBRANCH   5  15
TORSDOF 6
ENDMDL
MODEL 2
REMARK VINA RESULT: -6.203255713      1.100      1.433
REMARK  6 active torsions:
REMARK  status: ('A' for Active; 'I' for Inactive)
REMARK    1  A    between atoms: C2_2  and  N1_3 
REMARK    2  A    between atoms: N1_3  and  C4_5 
REMARK    3  A    between atoms: C4_5  and  C5_6 
REMARK    4  A    between atoms: C5_6  and  O1_7 
REMARK    5  A    between atoms: O1_7  and  C6_8 
REMARK    6  A    between atoms: C8_12  and  N3_13 
ROOT
HETATM    1  C6  UNL     1      12.688  31.145  35.536  1.00  0.00     0.173 A 
HETATM    2  C7  UNL     1      13.676  30.214  35.343  1.00  0.00     0.162 A 
HETATM    3  N2  UNL     1      14.691  30.773  34.613  1.00  0.00    -0.198 N 
ATOM      4  H2  UNL     1      15.552  30.309  34.323  1.00  0.00     0.183 HD
HETATM    5  C8  UNL     1      14.344  32.044  34.351  1.00  0.00     0.677 A 
HETATM    6  N4  UNL     1      13.145  32.272  34.901  1.00  0.00    -0.169 N 
ATOM      7  H4  UNL     1      12.643  33.160  34.855  1.00  0.00     0.186 HD
ENDROOT
BRANCH   1   8
HETATM    8  O1  UNL     1      11.497  31.025  36.203  1.00  0.00    -0.333 OA
BRANCH   8   9
HETATM    9  C5  UNL     1      11.172  31.321  37.502  1.00  0.00     0.207 C 
BRANCH   9  10
HETATM   10  C4  UNL     1      12.341  31.735  38.363  1.00  0.00     0.298 C 
BRANCH  10  11
HETATM   11  N1  UNL     1      12.213  33.178  38.539  1.00  0.00     0.085 N 
HETATM   12  C3  UNL     1      13.064  33.693  39.565  1.00  0.00     0.310 C 
BRANCH  11  13
HETATM   13  C2  UNL     1      10.837  33.561  38.650  1.00  0.00     0.267 C 
HETATM   14  C1  UNL     1      10.515  34.878  38.004  1.00  0.00     0.037 C 
ENDBRANCH  11  13
ENDBRANCH  10  11
ENDBRANCH   9  10
ENDBRANCH   8   9
ENDBRANCH   1   8
BRANCH   5  15
HETATM   15  N3  UNL     1      15.058  32.914  33.670  1.00  0.00    -0.234 N 
ATOM     16  H32 UNL     1      15.836  32.694  33.048  1.00  0.00     0.174 HD
ATOM     17  H31 UNL     1      14.931  33.927  33.674  1.00  0.00     0.174 HD
ENDBRANCH   5  15
TORSDOF 6
ENDMDL
MODEL 3
REMARK VINA RESULT: -6.035594231      2.304      2.558
REMARK  6 active torsions:
REMARK  status: ('A' for Active; 'I' for Inactive)
REMARK    1  A    between atoms: C2_2  and  N1_3 
REMARK    2  A    between atoms: N1_3  and  C4_5 
REMARK    3  A    between atoms: C4_5  and  C5_6 
REMARK    4  A    between atoms: C5_6  and  O1_7 
REMARK    5  A    between atoms: O1_7  and  C6_8 
REMARK    6  A    between atoms: C8_12  and  N3_13 
ROOT
HETATM    1  C6  UNL     1      13.457  29.476  37.021  1.00  0.00     0.173 A 
HETATM    2  C7  UNL     1      13.648  29.015  35.743  1.00  0.00     0.162 A 
HETATM    3  N2  UNL     1      14.971  29.133  35.410  1.00  0.00    -0.198 N 
ATOM      4  H2  UNL     1      15.396  28.867  34.522  1.00  0.00     0.183 HD
HETATM    5  C8  UNL     1      15.606  29.662  36.469  1.00  0.00     0.677 A 
HETATM    6  N4  UNL     1      14.705  29.869  37.437  1.00  0.00    -0.169 N 
ATOM      7  H4  UNL     1      14.916  30.263  38.354  1.00  0.00     0.186 HD
ENDROOT
BRANCH   1   8
HETATM    8  O1  UNL     1      12.304  29.548  37.757  1.00  0.00    -0.333 OA
BRANCH   8   9
HETATM    9  C5  UNL     1      11.655  30.632  38.291  1.00  0.00     0.207 C 
BRANCH   9  10
HETATM   10  C4  UNL     1      11.485  31.791  37.339  1.00  0.00     0.298 C 
BRANCH  10  11
HETATM   11  N1  UNL     1      11.585  32.995  38.157  1.00  0.00     0.085 N 
HETATM   12  C3  UNL     1      12.898  33.208  38.678  1.00  0.00     0.310 C 
BRANCH  11  13
HETATM   13  C2  UNL     1      10.536  33.042  39.131  1.00  0.00     0.267 C 
HETATM   14  C1  UNL     1       9.786  34.344  39.158  1.00  0.00     0.037 C 
ENDBRANCH  11  13
ENDBRANCH  10  11
ENDBRANCH   9  10
ENDBRANCH   8   9
ENDBRANCH   1   8
BRANCH   5  15
HETATM   15  N3  UNL     1      16.892  29.930  36.544  1.00  0.00    -0.234 N 
ATOM     16  H32 UNL     1      17.364  30.722  36.108  1.00  0.00     0.174 HD
ATOM     17  H31 UNL     1      17.590  29.381  37.047  1.00  0.00     0.174 HD
ENDBRANCH   5  15
TORSDOF 6
ENDMDL
MODEL 4
REMARK VINA RESULT: -5.975389607      1.869      2.726
REMARK  6 active torsions:
REMARK  status: ('A' for Active; 'I' for Inactive)
REMARK    1  A    between atoms: C2_2  and  N1_3 
REMARK    2  A    between atoms: N1_3  and  C4_5 
REMARK    3  A    between atoms: C4_5  and  C5_6 
REMARK    4  A    between atoms: C5_6  and  O1_7 
REMARK    5  A    between atoms: O1_7  and  C6_8 
REMARK    6  A    between atoms: C8_12  and  N3_13 
ROOT
HETATM    1  C6  UNL     1      14.193  30.225  36.186  1.00  0.00     0.173 A 
HETATM    2  C7  UNL     1      14.277  29.545  37.375  1.00  0.00     0.162 A 
HETATM    3  N2  UNL     1      15.577  29.177  37.596  1.00  0.00    -0.198 N 
ATOM      4  H2  UNL     1      15.929  28.660  38.401  1.00  0.00     0.183 HD
HETATM    5  C8  UNL     1      16.303  29.621  36.556  1.00  0.00     0.677 A 
HETATM    6  N4  UNL     1      15.479  30.250  35.709  1.00  0.00    -0.169 N 
ATOM      7  H4  UNL     1      15.767  30.686  34.833  1.00  0.00     0.186 HD
ENDROOT
BRANCH   1   8
HETATM    8  O1  UNL     1      13.097  30.774  35.573  1.00  0.00    -0.333 OA
BRANCH   8   9
HETATM    9  C5  UNL     1      12.349  31.874  35.906  1.00  0.00     0.207 C 
BRANCH   9  10
HETATM   10  C4  UNL     1      11.413  31.665  37.073  1.00  0.00     0.298 C 
BRANCH  10  11
HETATM   11  N1  UNL     1      11.563  32.846  37.917  1.00  0.00     0.085 N 
HETATM   12  C3  UNL     1      12.878  32.982  38.458  1.00  0.00     0.310 C 
BRANCH  11  13
HETATM   13  C2  UNL     1      10.505  32.925  38.879  1.00  0.00     0.267 C 
HETATM   14  C1  UNL     1       9.861  34.280  38.969  1.00  0.00     0.037 C 
ENDBRANCH  11  13
ENDBRANCH  10  11
ENDBRANCH   9  10
ENDBRANCH   8   9
ENDBRANCH   1   8
BRANCH   5  15
HETATM   15  N3  UNL     1      17.600  29.466  36.398  1.00  0.00    -0.234 N 
ATOM     16  H32 UNL     1      18.113  28.588  36.488  1.00  0.00     0.174 HD
ATOM     17  H31 UNL     1      18.267  30.201  36.162  1.00  0.00     0.174 HD
ENDBRANCH   5  15
TORSDOF 6
ENDMDL
MODEL 5
REMARK VINA RESULT: -5.939830601      2.076      5.270
REMARK  6 active torsions:
REMARK  status: ('A' for Active; 'I' for Inactive)
REMARK    1  A    between atoms: C2_2  and  N1_3 
REMARK    2  A    between atoms: N1_3  and  C4_5 
REMARK    3  A    between atoms: C4_5  and  C5_6 
REMARK    4  A    between atoms: C5_6  and  O1_7 
REMARK    5  A    between atoms: O1_7  and  C6_8 
REMARK    6  A    between atoms: C8_12  and  N3_13 
ROOT
HETATM    1  C6  UNL     1      12.000  30.977  38.563  1.00  0.00     0.173 A 
HETATM    2  C7  UNL     1      10.991  31.884  38.763  1.00  0.00     0.162 A 
HETATM    3  N2  UNL     1      11.499  33.002  39.370  1.00  0.00    -0.198 N 
ATOM      4  H2  UNL     1      10.974  33.835  39.637  1.00  0.00     0.183 HD
HETATM    5  C8  UNL     1      12.814  32.799  39.550  1.00  0.00     0.677 A 
HETATM    6  N4  UNL     1      13.121  31.588  39.069  1.00  0.00    -0.169 N 
ATOM      7  H4  UNL     1      14.055  31.177  39.076  1.00  0.00     0.186 HD
ENDROOT
BRANCH   1   8
HETATM    8  O1  UNL     1      11.951  29.732  37.994  1.00  0.00    -0.333 OA
BRANCH   8   9
HETATM    9  C5  UNL     1      12.462  29.276  36.806  1.00  0.00     0.207 C 
BRANCH   9  10
HETATM   10  C4  UNL     1      12.396  30.272  35.673  1.00  0.00     0.298 C 
BRANCH  10  11
HETATM   11  N1  UNL     1      13.766  30.421  35.195  1.00  0.00     0.085 N 
HETATM   12  C3  UNL     1      14.644  29.409  35.691  1.00  0.00     0.310 C 
BRANCH  11  13
HETATM   13  C2  UNL     1      14.230  31.764  35.380  1.00  0.00     0.267 C 
HETATM   14  C1  UNL     1      14.503  32.497  34.097  1.00  0.00     0.037 C 
ENDBRANCH  11  13
ENDBRANCH  10  11
ENDBRANCH   9  10
ENDBRANCH   8   9
ENDBRANCH   1   8
BRANCH   5  15
HETATM   15  N3  UNL     1      13.658  33.644  40.104  1.00  0.00    -0.234 N 
ATOM     16  H32 UNL     1      14.100  34.437  39.640  1.00  0.00     0.174 HD
ATOM     17  H31 UNL     1      13.982  33.619  41.071  1.00  0.00     0.174 HD
ENDBRANCH   5  15
TORSDOF 6
ENDMDL
