MODEL 1
REMARK VINA RESULT: -6.215531903      0.000      0.000
REMARK  6 active torsions:
REMARK  status: ('A' for Active; 'I' for Inactive)
REMARK    1  A    between atoms: C2_2  and  C3_3 
REMARK    2  A    between atoms: C3_3  and  N1_4 
REMARK    3  A    between atoms: N1_4  and  C4_6 
REMARK    4  A    between atoms: C4_6  and  C5_7 
REMARK    5  A    between atoms: C5_7  and  N2_8 
REMARK    6  A    between atoms: N2_8  and  C6_10 
ROOT
HETATM    1  N2  UNL     1      13.541  32.791  37.794  1.00  0.00    -0.412 N 
ATOM      2  H2  UNL     1      14.379  33.317  37.546  1.00  0.00     0.153 HD
ENDROOT
BRANCH   1   3
HETATM    3  C5  UNL     1      12.830  33.201  38.955  1.00  0.00     0.158 C 
BRANCH   3   4
HETATM    4  C4  UNL     1      11.334  32.927  38.685  1.00  0.00     0.074 C 
BRANCH   4   5
HETATM    5  N1  UNL     1      10.453  33.144  39.734  1.00  0.00    -0.401 N 
ATOM      6  H1  UNL     1      10.266  32.404  40.411  1.00  0.00     0.158 HD
BRANCH   5   7
HETATM    7  C3  UNL     1       9.819  34.398  39.857  1.00  0.00     0.118 C 
BRANCH   7   8
HETATM    8  C2  UNL     1      10.123  34.996  41.245  1.00  0.00     0.015 C 
HETATM    9  C1  UNL     1      11.306  35.928  41.010  1.00  0.00     0.006 C 
ENDBRANCH   7   8
ENDBRANCH   5   7
ENDBRANCH   4   5
ENDBRANCH   3   4
ENDBRANCH   1   3
BRANCH   1  10
HETATM   10  C6  UNL     1      13.191  31.753  36.989  1.00  0.00     0.086 C 
HETATM   11  C7  UNL     1      13.763  31.704  35.588  1.00  0.00     0.069 C 
HETATM   12  C8  UNL     1      12.711  30.975  34.770  1.00  0.00     0.062 C 
HETATM   13  N3  UNL     1      12.269  29.767  35.320  1.00  0.00    -0.382 N 
HETATM   14  C9  UNL     1      12.650  29.356  36.611  1.00  0.00     0.062 C 
ATOM     15  H3  UNL     1      11.655  29.168  34.771  1.00  0.00     0.163 HD
HETATM   16  C10 UNL     1      13.366  30.340  37.485  1.00  0.00     0.069 C 
ENDBRANCH   1  10
TORSDOF 6
ENDMDL
MODEL 2
REMARK VINA RESULT: -6.180485867      1.172      1.519
REMARK  6 active torsions:
REMARK  status: ('A' for Active; 'I' for Inactive)
REMARK    1  A    between atoms: C2_2  and  C3_3 
REMARK    2  A    between atoms: C3_3  and  N1_4 
REMARK    3  A    between atoms: N1_4  and  C4_6 
REMARK    4  A    between atoms: C4_6  and  C5_7 
REMARK    5  A    between atoms: C5_7  and  N2_8 
REMARK    6  A    between atoms: N2_8  and  C6_10 
ROOT
HETATM    1  N2  UNL     1      13.529  32.924  37.776  1.00  0.00    -0.412 N 
ATOM      2  H2  UNL     1      14.210  33.556  37.355  1.00  0.00     0.153 HD
ENDROOT
BRANCH   1   3
HETATM    3  C5  UNL     1      13.056  33.243  39.077  1.00  0.00     0.158 C 
BRANCH   3   4
HETATM    4  C4  UNL     1      13.499  34.693  39.374  1.00  0.00     0.074 C 
BRANCH   4   5
HETATM    5  N1  UNL     1      12.663  35.710  38.939  1.00  0.00    -0.401 N 
ATOM      6  H1  UNL     1      13.049  36.524  38.460  1.00  0.00     0.158 HD
BRANCH   5   7
HETATM    7  C3  UNL     1      11.274  35.609  39.165  1.00  0.00     0.118 C 
BRANCH   7   8
HETATM    8  C2  UNL     1      10.988  35.724  40.676  1.00  0.00     0.015 C 
HETATM    9  C1  UNL     1       9.912  34.678  40.942  1.00  0.00     0.006 C 
ENDBRANCH   7   8
ENDBRANCH   5   7
ENDBRANCH   4   5
ENDBRANCH   3   4
ENDBRANCH   1   3
BRANCH   1  10
HETATM   10  C6  UNL     1      13.144  31.843  37.047  1.00  0.00     0.086 C 
HETATM   11  C7  UNL     1      13.806  31.607  35.706  1.00  0.00     0.069 C 
HETATM   12  C8  UNL     1      12.752  30.888  34.880  1.00  0.00     0.062 C 
HETATM   13  N3  UNL     1      12.167  29.783  35.505  1.00  0.00    -0.382 N 
HETATM   14  C9  UNL     1      12.417  29.474  36.854  1.00  0.00     0.062 C 
ATOM     15  H3  UNL     1      11.541  29.184  34.968  1.00  0.00     0.163 HD
HETATM   16  C10 UNL     1      13.156  30.478  37.686  1.00  0.00     0.069 C 
ENDBRANCH   1  10
TORSDOF 6
ENDMDL
MODEL 3
REMARK VINA RESULT: -6.168625992      1.116      1.286
REMARK  6 active torsions:
REMARK  status: ('A' for Active; 'I' for Inactive)
REMARK    1  A    between atoms: C2_2  and  C3_3 
REMARK    2  A    between atoms: C3_3  and  N1_4 
REMARK    3  A    between atoms: N1_4  and  C4_6 
REMARK    4  A    between atoms: C4_6  and  C5_7 
REMARK    5  A    between atoms: C5_7  and  N2_8 
REMARK    6  A    between atoms: N2_8  and  C6_10 
ROOT
HETATM    1  N2  UNL     1      13.511  32.903  37.815  1.00  0.00    -0.412 N 
ATOM      2  H2  UNL     1      14.272  33.485  37.464  1.00  0.00     0.153 HD
ENDROOT
BRANCH   1   3
HETATM    3  C5  UNL     1      12.927  33.268  39.058  1.00  0.00     0.158 C 
BRANCH   3   4
HETATM    4  C4  UNL     1      11.573  33.937  38.738  1.00  0.00     0.074 C 
BRANCH   4   5
HETATM    5  N1  UNL     1      11.599  35.279  38.385  1.00  0.00    -0.401 N 
ATOM      6  H1  UNL     1      11.355  35.566  37.437  1.00  0.00     0.158 HD
BRANCH   5   7
HETATM    7  C3  UNL     1      11.968  36.241  39.349  1.00  0.00     0.118 C 
BRANCH   7   8
HETATM    8  C2  UNL     1      11.282  35.916  40.690  1.00  0.00     0.015 C 
HETATM    9  C1  UNL     1      12.114  36.653  41.734  1.00  0.00     0.006 C 
ENDBRANCH   7   8
ENDBRANCH   5   7
ENDBRANCH   4   5
ENDBRANCH   3   4
ENDBRANCH   1   3
BRANCH   1  10
HETATM   10  C6  UNL     1      13.135  31.839  37.057  1.00  0.00     0.086 C 
HETATM   11  C7  UNL     1      13.782  31.658  35.700  1.00  0.00     0.069 C 
HETATM   12  C8  UNL     1      12.729  30.948  34.865  1.00  0.00     0.062 C 
HETATM   13  N3  UNL     1      12.172  29.812  35.462  1.00  0.00    -0.382 N 
HETATM   14  C9  UNL     1      12.448  29.464  36.797  1.00  0.00     0.062 C 
ATOM     15  H3  UNL     1      11.549  29.220  34.914  1.00  0.00     0.163 HD
HETATM   16  C10 UNL     1      13.181  30.454  37.651  1.00  0.00     0.069 C 
ENDBRANCH   1  10
TORSDOF 6
ENDMDL
MODEL 4
REMARK VINA RESULT: -6.009328180      1.564      5.834
REMARK  6 active torsions:
REMARK  status: ('A' for Active; 'I' for Inactive)
REMARK    1  A    between atoms: C2_2  and  C3_3 
REMARK    2  A    between atoms: C3_3  and  N1_4 
REMARK    3  A    between atoms: N1_4  and  C4_6 
REMARK    4  A    between atoms: C4_6  and  C5_7 
REMARK    5  A    between atoms: C5_7  and  N2_8 
REMARK    6  A    between atoms: N2_8  and  C6_10 
ROOT
HETATM    1  N2  UNL     1      10.483  32.343  39.200  1.00  0.00    -0.412 N 
ATOM      2  H2  UNL     1       9.680  31.913  39.660  1.00  0.00     0.153 HD
ENDROOT
BRANCH   1   3
HETATM    3  C5  UNL     1      11.210  31.548  38.274  1.00  0.00     0.158 C 
BRANCH   3   4
HETATM    4  C4  UNL     1      12.702  31.911  38.445  1.00  0.00     0.074 C 
BRANCH   4   5
HETATM    5  N1  UNL     1      13.344  32.474  37.352  1.00  0.00    -0.401 N 
ATOM      6  H1  UNL     1      13.514  33.479  37.317  1.00  0.00     0.158 HD
BRANCH   5   7
HETATM    7  C3  UNL     1      13.761  31.643  36.290  1.00  0.00     0.118 C 
BRANCH   7   8
HETATM    8  C2  UNL     1      12.900  31.929  35.044  1.00  0.00     0.015 C 
HETATM    9  C1  UNL     1      13.905  32.322  33.967  1.00  0.00     0.006 C 
ENDBRANCH   7   8
ENDBRANCH   5   7
ENDBRANCH   4   5
ENDBRANCH   3   4
ENDBRANCH   1   3
BRANCH   1  10
HETATM   10  C6  UNL     1      10.774  33.632  39.522  1.00  0.00     0.086 C 
HETATM   11  C7  UNL     1      10.490  34.710  38.498  1.00  0.00     0.069 C 
HETATM   12  C8  UNL     1      11.519  35.791  38.786  1.00  0.00     0.062 C 
HETATM   13  N3  UNL     1      11.598  36.188  40.125  1.00  0.00    -0.382 N 
HETATM   14  C9  UNL     1      10.898  35.513  41.142  1.00  0.00     0.062 C 
ATOM     15  H3  UNL     1      12.179  36.989  40.371  1.00  0.00     0.163 HD
HETATM   16  C10 UNL     1      10.231  34.215  40.802  1.00  0.00     0.069 C 
ENDBRANCH   1  10
TORSDOF 6
ENDMDL
MODEL 5
REMARK VINA RESULT: -5.987895250      1.288      2.089
REMARK  6 active torsions:
REMARK  status: ('A' for Active; 'I' for Inactive)
REMARK    1  A    between atoms: C2_2  and  C3_3 
REMARK    2  A    between atoms: C3_3  and  N1_4 
REMARK    3  A    between atoms: N1_4  and  C4_6 
REMARK    4  A    between atoms: C4_6  and  C5_7 
REMARK    5  A    between atoms: C5_7  and  N2_8 
REMARK    6  A    between atoms: N2_8  and  C6_10 
ROOT
HETATM    1  N2  UNL     1      13.500  32.871  37.679  1.00  0.00    -0.412 N 
ATOM      2  H2  UNL     1      14.193  33.482  37.245  1.00  0.00     0.153 HD
ENDROOT
BRANCH   1   3
HETATM    3  C5  UNL     1      13.028  33.228  38.970  1.00  0.00     0.158 C 
BRANCH   3   4
HETATM    4  C4  UNL     1      13.533  34.661  39.252  1.00  0.00     0.074 C 
BRANCH   4   5
HETATM    5  N1  UNL     1      12.718  35.708  38.848  1.00  0.00    -0.401 N 
ATOM      6  H1  UNL     1      13.104  36.480  38.305  1.00  0.00     0.158 HD
BRANCH   5   7
HETATM    7  C3  UNL     1      11.351  35.695  39.196  1.00  0.00     0.118 C 
BRANCH   7   8
HETATM    8  C2  UNL     1      11.206  35.842  40.724  1.00  0.00     0.015 C 
HETATM    9  C1  UNL     1      10.048  34.921  41.089  1.00  0.00     0.006 C 
ENDBRANCH   7   8
ENDBRANCH   5   7
ENDBRANCH   4   5
ENDBRANCH   3   4
ENDBRANCH   1   3
BRANCH   1  10
HETATM   10  C6  UNL     1      13.099  31.779  36.974  1.00  0.00     0.086 C 
HETATM   11  C7  UNL     1      12.021  30.896  37.567  1.00  0.00     0.069 C 
HETATM   12  C8  UNL     1      12.314  29.511  37.015  1.00  0.00     0.062 C 
HETATM   13  N3  UNL     1      12.492  29.456  35.629  1.00  0.00    -0.382 N 
HETATM   14  C9  UNL     1      12.564  30.620  34.842  1.00  0.00     0.062 C 
ATOM     15  H3  UNL     1      12.573  28.546  35.176  1.00  0.00     0.163 HD
HETATM   16  C10 UNL     1      12.665  31.941  35.540  1.00  0.00     0.069 C 
ENDBRANCH   1  10
TORSDOF 6
ENDMDL
