MODEL 1
REMARK VINA RESULT: -7.903033618      0.000      0.000
REMARK  8 active torsions:
REMARK  status: ('A' for Active; 'I' for Inactive)
REMARK    1  A    between atoms: C2_2  and  C4_4 
REMARK    2  A    between atoms: C4_4  and  C6_6 
REMARK    3  A    between atoms: C6_6  and  O2_8 
REMARK    4  A    between atoms: O2_8  and  C7_9 
REMARK    5  A    between atoms: C8_10  and  O3_11 
REMARK    6  A    between atoms: C19_24  and  C20_25 
REMARK    7  A    between atoms: C20_25  and  O5_26 
REMARK    8  A    between atoms: C22_29  and  O6_30 
ROOT
HETATM    1  O5  UNL     1       8.387   7.321  23.615  1.00  0.00    -0.282 OA
HETATM    2  C21 UNL     1       8.942   7.708  24.795  1.00  0.00     0.228 C 
HETATM    3  N1  UNL     1       9.388   8.038  25.788  1.00  0.00    -0.164 NA
ENDROOT
BRANCH   1   4
HETATM    4  C20 UNL     1       7.101   7.655  23.207  1.00  0.00     0.211 C 
BRANCH   4   5
HETATM    5  C19 UNL     1       6.892   7.663  21.685  1.00  0.00     0.055 C 
HETATM    6  C14 UNL     1       6.236   8.875  21.196  1.00  0.00    -0.059 C 
HETATM    7  C13 UNL     1       5.215   8.879  20.391  1.00  0.00    -0.022 C 
HETATM    8  C15 UNL     1       6.788  10.203  21.619  1.00  0.00     0.118 C 
HETATM    9  C12 UNL     1       4.529   7.683  19.855  1.00  0.00     0.035 C 
HETATM   10  C11 UNL     1       4.862   6.491  20.654  1.00  0.00     0.030 C 
HETATM   11  C10 UNL     1       4.537   5.265  19.832  1.00  0.00     0.006 C 
HETATM   12  C22 UNL     1       6.154   6.418  21.362  1.00  0.00     0.079 C 
HETATM   13  C9  UNL     1       5.080   5.271  18.439  1.00  0.00     0.040 C 
HETATM   14  C25 UNL     1       5.022   3.974  20.400  1.00  0.00    -0.011 C 
HETATM   15  C8  UNL     1       5.546   3.854  18.133  1.00  0.00     0.148 C 
HETATM   16  C7  UNL     1       4.805   3.065  19.175  1.00  0.00     0.169 C 
HETATM   17  C24 UNL     1       6.462   3.993  20.803  1.00  0.00     0.015 C 
HETATM   18  C26 UNL     1       4.184   3.459  21.527  1.00  0.00     0.018 C 
HETATM   19  C23 UNL     1       7.102   5.347  20.770  1.00  0.00     0.040 C 
HETATM   20  C16 UNL     1       8.218  10.183  21.152  1.00  0.00     0.153 C 
HETATM   21  O4  UNL     1       8.789  11.286  21.001  1.00  0.00    -0.293 OA
HETATM   22  C17 UNL     1       8.830   8.883  20.910  1.00  0.00     0.048 C 
HETATM   23  C18 UNL     1       8.278   7.711  21.132  1.00  0.00    -0.004 C 
BRANCH  15  24
HETATM   24  O3  UNL     1       5.194   3.547  16.841  1.00  0.00    -0.393 OA
ATOM     25  H3  UNL     1       5.872   3.726  16.201  1.00  0.00     0.210 HD
ENDBRANCH  15  24
BRANCH  16  26
HETATM   26  O2  UNL     1       5.287   1.784  19.386  1.00  0.00    -0.312 OA
BRANCH  26  27
HETATM   27  C6  UNL     1       5.699   0.895  18.419  1.00  0.00     0.263 C 
HETATM   28  O1  UNL     1       4.779   0.394  17.698  1.00  0.00    -0.265 OA
BRANCH  27  29
HETATM   29  C4  UNL     1       7.106   0.510  18.186  1.00  0.00     0.085 C 
HETATM   30  C5  UNL     1       7.489   0.812  16.753  1.00  0.00     0.021 C 
BRANCH  29  31
HETATM   31  C2  UNL     1       8.056   1.192  19.139  1.00  0.00    -0.010 C 
HETATM   32  C1  UNL     1       9.497   0.870  18.814  1.00  0.00     0.010 C 
HETATM   33  C3  UNL     1       7.747   0.924  20.571  1.00  0.00     0.010 C 
ENDBRANCH  29  31
ENDBRANCH  27  29
ENDBRANCH  26  27
ENDBRANCH  16  26
BRANCH  12  34
HETATM   34  O6  UNL     1       5.906   5.800  22.653  1.00  0.00    -0.388 OA
ATOM     35  H6  UNL     1       5.459   6.441  23.194  1.00  0.00     0.210 HD
ENDBRANCH  12  34
ENDBRANCH   4   5
ENDBRANCH   1   4
TORSDOF 8
ENDMDL
MODEL 2
REMARK VINA RESULT: -7.902888722      4.808      6.466
REMARK  8 active torsions:
REMARK  status: ('A' for Active; 'I' for Inactive)
REMARK    1  A    between atoms: C2_2  and  C4_4 
REMARK    2  A    between atoms: C4_4  and  C6_6 
REMARK    3  A    between atoms: C6_6  and  O2_8 
REMARK    4  A    between atoms: O2_8  and  C7_9 
REMARK    5  A    between atoms: C8_10  and  O3_11 
REMARK    6  A    between atoms: C19_24  and  C20_25 
REMARK    7  A    between atoms: C20_25  and  O5_26 
REMARK    8  A    between atoms: C22_29  and  O6_30 
ROOT
HETATM    1  O5  UNL     1       6.892   8.529  16.095  1.00  0.00    -0.282 OA
HETATM    2  C21 UNL     1       6.962   9.718  16.754  1.00  0.00     0.228 C 
HETATM    3  N1  UNL     1       7.007  10.719  17.290  1.00  0.00    -0.164 NA
ENDROOT
BRANCH   1   4
HETATM    4  C20 UNL     1       6.312   8.360  14.844  1.00  0.00     0.211 C 
BRANCH   4   5
HETATM    5  C19 UNL     1       6.850   7.163  14.044  1.00  0.00     0.055 C 
HETATM    6  C14 UNL     1       6.984   7.436  12.613  1.00  0.00    -0.059 C 
HETATM    7  C13 UNL     1       6.532   6.657  11.676  1.00  0.00    -0.022 C 
HETATM    8  C15 UNL     1       7.715   8.674  12.190  1.00  0.00     0.118 C 
HETATM    9  C12 UNL     1       5.792   5.392  11.881  1.00  0.00     0.035 C 
HETATM   10  C11 UNL     1       5.260   5.318  13.254  1.00  0.00     0.030 C 
HETATM   11  C10 UNL     1       4.934   3.874  13.557  1.00  0.00     0.006 C 
HETATM   12  C22 UNL     1       5.952   6.024  14.349  1.00  0.00     0.079 C 
HETATM   13  C9  UNL     1       6.020   2.896  13.240  1.00  0.00     0.040 C 
HETATM   14  C25 UNL     1       4.597   3.586  14.980  1.00  0.00    -0.011 C 
HETATM   15  C8  UNL     1       6.027   1.857  14.352  1.00  0.00     0.148 C 
HETATM   16  C7  UNL     1       4.660   2.046  14.945  1.00  0.00     0.169 C 
HETATM   17  C24 UNL     1       5.583   4.138  15.960  1.00  0.00     0.015 C 
HETATM   18  C26 UNL     1       3.211   3.995  15.367  1.00  0.00     0.018 C 
HETATM   19  C23 UNL     1       6.606   5.058  15.366  1.00  0.00     0.040 C 
HETATM   20  C16 UNL     1       9.082   8.533  12.804  1.00  0.00     0.153 C 
HETATM   21  O4  UNL     1      10.013   9.195  12.292  1.00  0.00    -0.293 OA
HETATM   22  C17 UNL     1       9.218   7.639  13.946  1.00  0.00     0.048 C 
HETATM   23  C18 UNL     1       8.245   6.992  14.548  1.00  0.00    -0.004 C 
BRANCH  15  24
HETATM   24  O3  UNL     1       6.228   0.618  13.792  1.00  0.00    -0.393 OA
ATOM     25  H3  UNL     1       6.386   0.637  12.856  1.00  0.00     0.210 HD
ENDBRANCH  15  24
BRANCH  16  26
HETATM   26  O2  UNL     1       4.488   1.490  16.202  1.00  0.00    -0.312 OA
BRANCH  26  27
HETATM   27  C6  UNL     1       5.418   0.760  16.907  1.00  0.00     0.263 C 
HETATM   28  O1  UNL     1       5.501  -0.472  16.604  1.00  0.00    -0.265 OA
BRANCH  27  29
HETATM   29  C4  UNL     1       6.292   1.317  17.959  1.00  0.00     0.085 C 
HETATM   30  C5  UNL     1       5.561   1.320  19.284  1.00  0.00     0.021 C 
BRANCH  29  31
HETATM   31  C2  UNL     1       7.597   0.570  18.080  1.00  0.00    -0.010 C 
HETATM   32  C1  UNL     1       8.339   0.945  19.342  1.00  0.00     0.010 C 
HETATM   33  C3  UNL     1       8.466   0.703  16.877  1.00  0.00     0.010 C 
ENDBRANCH  29  31
ENDBRANCH  27  29
ENDBRANCH  26  27
ENDBRANCH  16  26
BRANCH  12  34
HETATM   34  O6  UNL     1       4.930   6.590  15.212  1.00  0.00    -0.388 OA
ATOM     35  H6  UNL     1       5.356   6.858  16.018  1.00  0.00     0.210 HD
ENDBRANCH  12  34
ENDBRANCH   4   5
ENDBRANCH   1   4
TORSDOF 8
ENDMDL
MODEL 3
REMARK VINA RESULT: -7.581215458      0.456      1.065
REMARK  8 active torsions:
REMARK  status: ('A' for Active; 'I' for Inactive)
REMARK    1  A    between atoms: C2_2  and  C4_4 
REMARK    2  A    between atoms: C4_4  and  C6_6 
REMARK    3  A    between atoms: C6_6  and  O2_8 
REMARK    4  A    between atoms: O2_8  and  C7_9 
REMARK    5  A    between atoms: C8_10  and  O3_11 
REMARK    6  A    between atoms: C19_24  and  C20_25 
REMARK    7  A    between atoms: C20_25  and  O5_26 
REMARK    8  A    between atoms: C22_29  and  O6_30 
ROOT
HETATM    1  O5  UNL     1       8.316   7.476  23.489  1.00  0.00    -0.282 OA
HETATM    2  C21 UNL     1       8.903   7.700  24.696  1.00  0.00     0.228 C 
HETATM    3  N1  UNL     1       9.376   7.896  25.711  1.00  0.00    -0.164 NA
ENDROOT
BRANCH   1   4
HETATM    4  C20 UNL     1       7.115   8.047  23.084  1.00  0.00     0.211 C 
BRANCH   4   5
HETATM    5  C19 UNL     1       6.839   7.959  21.575  1.00  0.00     0.055 C 
HETATM    6  C14 UNL     1       6.201   9.157  21.031  1.00  0.00    -0.059 C 
HETATM    7  C13 UNL     1       5.146   9.142  20.272  1.00  0.00    -0.022 C 
HETATM    8  C15 UNL     1       6.812  10.491  21.339  1.00  0.00     0.118 C 
HETATM    9  C12 UNL     1       4.399   7.936  19.849  1.00  0.00     0.035 C 
HETATM   10  C11 UNL     1       4.730   6.790  20.714  1.00  0.00     0.030 C 
HETATM   11  C10 UNL     1       4.331   5.523  19.993  1.00  0.00     0.006 C 
HETATM   12  C22 UNL     1       6.049   6.721  21.370  1.00  0.00     0.079 C 
HETATM   13  C9  UNL     1       4.812   5.417  18.581  1.00  0.00     0.040 C 
HETATM   14  C25 UNL     1       4.800   4.258  20.627  1.00  0.00    -0.011 C 
HETATM   15  C8  UNL     1       5.219   3.967  18.354  1.00  0.00     0.148 C 
HETATM   16  C7  UNL     1       4.501   3.276  19.478  1.00  0.00     0.169 C 
HETATM   17  C24 UNL     1       6.257   4.254  20.967  1.00  0.00     0.015 C 
HETATM   18  C26 UNL     1       3.997   3.849  21.822  1.00  0.00     0.018 C 
HETATM   19  C23 UNL     1       6.937   5.581  20.814  1.00  0.00     0.040 C 
HETATM   20  C16 UNL     1       8.219  10.390  20.813  1.00  0.00     0.153 C 
HETATM   21  O4  UNL     1       8.817  11.461  20.563  1.00  0.00    -0.293 OA
HETATM   22  C17 UNL     1       8.778   9.057  20.637  1.00  0.00     0.048 C 
HETATM   23  C18 UNL     1       8.200   7.922  20.962  1.00  0.00    -0.004 C 
BRANCH  15  24
HETATM   24  O3  UNL     1       4.801   3.585  17.102  1.00  0.00    -0.393 OA
ATOM     25  H3  UNL     1       3.971   3.124  17.095  1.00  0.00     0.210 HD
ENDBRANCH  15  24
BRANCH  16  26
HETATM   26  O2  UNL     1       4.951   1.996  19.756  1.00  0.00    -0.312 OA
BRANCH  26  27
HETATM   27  C6  UNL     1       5.894   1.288  19.046  1.00  0.00     0.263 C 
HETATM   28  O1  UNL     1       5.441   0.499  18.158  1.00  0.00    -0.265 OA
BRANCH  27  29
HETATM   29  C4  UNL     1       7.352   1.396  19.257  1.00  0.00     0.085 C 
HETATM   30  C5  UNL     1       7.691   1.039  20.688  1.00  0.00     0.021 C 
BRANCH  29  31
HETATM   31  C2  UNL     1       8.138   0.536  18.299  1.00  0.00    -0.010 C 
HETATM   32  C1  UNL     1       9.609   0.516  18.648  1.00  0.00     0.010 C 
HETATM   33  C3  UNL     1       7.921   0.896  16.870  1.00  0.00     0.010 C 
ENDBRANCH  29  31
ENDBRANCH  27  29
ENDBRANCH  26  27
ENDBRANCH  16  26
BRANCH  12  34
HETATM   34  O6  UNL     1       5.840   6.200  22.710  1.00  0.00    -0.388 OA
ATOM     35  H6  UNL     1       5.241   6.790  23.153  1.00  0.00     0.210 HD
ENDBRANCH  12  34
ENDBRANCH   4   5
ENDBRANCH   1   4
TORSDOF 8
ENDMDL
MODEL 4
REMARK VINA RESULT: -7.341635234      2.785      3.923
REMARK  8 active torsions:
REMARK  status: ('A' for Active; 'I' for Inactive)
REMARK    1  A    between atoms: C2_2  and  C4_4 
REMARK    2  A    between atoms: C4_4  and  C6_6 
REMARK    3  A    between atoms: C6_6  and  O2_8 
REMARK    4  A    between atoms: O2_8  and  C7_9 
REMARK    5  A    between atoms: C8_10  and  O3_11 
REMARK    6  A    between atoms: C19_24  and  C20_25 
REMARK    7  A    between atoms: C20_25  and  O5_26 
REMARK    8  A    between atoms: C22_29  and  O6_30 
ROOT
HETATM    1  O5  UNL     1       5.658   7.923  23.973  1.00  0.00    -0.282 OA
HETATM    2  C21 UNL     1       6.796   8.421  24.528  1.00  0.00     0.228 C 
HETATM    3  N1  UNL     1       7.746   8.823  25.007  1.00  0.00    -0.164 NA
ENDROOT
BRANCH   1   4
HETATM    4  C20 UNL     1       4.816   7.011  24.598  1.00  0.00     0.211 C 
BRANCH   4   5
HETATM    5  C19 UNL     1       3.619   6.557  23.749  1.00  0.00     0.055 C 
HETATM    6  C14 UNL     1       2.414   6.300  24.536  1.00  0.00    -0.059 C 
HETATM    7  C13 UNL     1       1.691   5.224  24.436  1.00  0.00    -0.022 C 
HETATM    8  C15 UNL     1       1.957   7.352  25.502  1.00  0.00     0.118 C 
HETATM    9  C12 UNL     1       1.965   4.075  23.544  1.00  0.00     0.035 C 
HETATM   10  C11 UNL     1       3.365   4.097  23.084  1.00  0.00     0.030 C 
HETATM   11  C10 UNL     1       3.473   3.221  21.858  1.00  0.00     0.006 C 
HETATM   12  C22 UNL     1       4.083   5.381  22.974  1.00  0.00     0.079 C 
HETATM   13  C9  UNL     1       2.449   3.479  20.799  1.00  0.00     0.040 C 
HETATM   14  C25 UNL     1       4.771   3.307  21.129  1.00  0.00    -0.011 C 
HETATM   15  C8  UNL     1       3.153   3.352  19.454  1.00  0.00     0.148 C 
HETATM   16  C7  UNL     1       4.380   2.572  19.832  1.00  0.00     0.169 C 
HETATM   17  C24 UNL     1       5.211   4.706  20.838  1.00  0.00     0.015 C 
HETATM   18  C26 UNL     1       5.882   2.550  21.786  1.00  0.00     0.018 C 
HETATM   19  C23 UNL     1       4.394   5.770  21.508  1.00  0.00     0.040 C 
HETATM   20  C16 UNL     1       1.749   8.577  24.653  1.00  0.00     0.153 C 
HETATM   21  O4  UNL     1       0.994   9.467  25.104  1.00  0.00    -0.293 OA
HETATM   22  C17 UNL     1       2.443   8.636  23.373  1.00  0.00     0.048 C 
HETATM   23  C18 UNL     1       3.298   7.751  22.912  1.00  0.00    -0.004 C 
BRANCH  15  24
HETATM   24  O3  UNL     1       2.317   2.695  18.584  1.00  0.00    -0.393 OA
ATOM     25  H3  UNL     1       1.671   3.254  18.169  1.00  0.00     0.210 HD
ENDBRANCH  15  24
BRANCH  16  26
HETATM   26  O2  UNL     1       5.397   2.597  18.893  1.00  0.00    -0.312 OA
BRANCH  26  27
HETATM   27  C6  UNL     1       5.523   1.767  17.803  1.00  0.00     0.263 C 
HETATM   28  O1  UNL     1       4.810   2.065  16.793  1.00  0.00    -0.265 OA
BRANCH  27  29
HETATM   29  C4  UNL     1       6.416   0.591  17.748  1.00  0.00     0.085 C 
HETATM   30  C5  UNL     1       6.218  -0.143  16.440  1.00  0.00     0.021 C 
BRANCH  29  31
HETATM   31  C2  UNL     1       7.867   0.960  17.931  1.00  0.00    -0.010 C 
HETATM   32  C1  UNL     1       8.771   0.102  17.076  1.00  0.00     0.010 C 
HETATM   33  C3  UNL     1       8.301   0.959  19.356  1.00  0.00     0.010 C 
ENDBRANCH  29  31
ENDBRANCH  27  29
ENDBRANCH  26  27
ENDBRANCH  16  26
BRANCH  12  34
HETATM   34  O6  UNL     1       5.442   5.158  23.434  1.00  0.00    -0.388 OA
ATOM     35  H6  UNL     1       6.027   5.485  22.760  1.00  0.00     0.210 HD
ENDBRANCH  12  34
ENDBRANCH   4   5
ENDBRANCH   1   4
TORSDOF 8
ENDMDL
MODEL 5
REMARK VINA RESULT: -7.201854787      3.798      5.530
REMARK  8 active torsions:
REMARK  status: ('A' for Active; 'I' for Inactive)
REMARK    1  A    between atoms: C2_2  and  C4_4 
REMARK    2  A    between atoms: C4_4  and  C6_6 
REMARK    3  A    between atoms: C6_6  and  O2_8 
REMARK    4  A    between atoms: O2_8  and  C7_9 
REMARK    5  A    between atoms: C8_10  and  O3_11 
REMARK    6  A    between atoms: C19_24  and  C20_25 
REMARK    7  A    between atoms: C20_25  and  O5_26 
REMARK    8  A    between atoms: C22_29  and  O6_30 
ROOT
HETATM    1  O5  UNL     1       6.256   9.811  17.610  1.00  0.00    -0.282 OA
HETATM    2  C21 UNL     1       6.535  10.315  16.378  1.00  0.00     0.228 C 
HETATM    3  N1  UNL     1       6.788  10.736  15.353  1.00  0.00    -0.164 NA
ENDROOT
BRANCH   1   4
HETATM    4  C20 UNL     1       7.182   9.707  18.642  1.00  0.00     0.211 C 
BRANCH   4   5
HETATM    5  C19 UNL     1       6.648  10.104  20.026  1.00  0.00     0.055 C 
HETATM    6  C14 UNL     1       7.590  10.908  20.803  1.00  0.00    -0.059 C 
HETATM    7  C13 UNL     1       7.915  10.663  22.038  1.00  0.00    -0.022 C 
HETATM    8  C15 UNL     1       8.205  12.111  20.153  1.00  0.00     0.118 C 
HETATM    9  C12 UNL     1       7.420   9.535  22.857  1.00  0.00     0.035 C 
HETATM   10  C11 UNL     1       6.842   8.485  22.000  1.00  0.00     0.030 C 
HETATM   11  C10 UNL     1       5.960   7.607  22.858  1.00  0.00     0.006 C 
HETATM   12  C22 UNL     1       6.252   8.842  20.696  1.00  0.00     0.079 C 
HETATM   13  C9  UNL     1       4.981   8.338  23.720  1.00  0.00     0.040 C 
HETATM   14  C25 UNL     1       5.119   6.629  22.110  1.00  0.00    -0.011 C 
HETATM   15  C8  UNL     1       3.687   7.534  23.709  1.00  0.00     0.148 C 
HETATM   16  C7  UNL     1       4.174   6.191  23.246  1.00  0.00     0.169 C 
HETATM   17  C24 UNL     1       4.349   7.233  20.979  1.00  0.00     0.015 C 
HETATM   18  C26 UNL     1       5.872   5.429  21.630  1.00  0.00     0.018 C 
HETATM   19  C23 UNL     1       4.717   8.651  20.660  1.00  0.00     0.040 C 
HETATM   20  C16 UNL     1       7.030  12.963  19.753  1.00  0.00     0.153 C 
HETATM   21  O4  UNL     1       7.241  14.183  19.569  1.00  0.00    -0.293 OA
HETATM   22  C17 UNL     1       5.738  12.305  19.609  1.00  0.00     0.048 C 
HETATM   23  C18 UNL     1       5.505  11.016  19.722  1.00  0.00    -0.004 C 
BRANCH  15  24
HETATM   24  O3  UNL     1       3.163   7.533  24.980  1.00  0.00    -0.393 OA
ATOM     25  H3  UNL     1       3.798   7.347  25.661  1.00  0.00     0.210 HD
ENDBRANCH  15  24
BRANCH  16  26
HETATM   26  O2  UNL     1       3.182   5.336  22.797  1.00  0.00    -0.312 OA
BRANCH  26  27
HETATM   27  C6  UNL     1       2.852   4.113  23.334  1.00  0.00     0.263 C 
HETATM   28  O1  UNL     1       2.519   4.117  24.561  1.00  0.00    -0.265 OA
BRANCH  27  29
HETATM   29  C4  UNL     1       2.863   2.841  22.582  1.00  0.00     0.085 C 
HETATM   30  C5  UNL     1       2.994   3.123  21.101  1.00  0.00     0.021 C 
BRANCH  29  31
HETATM   31  C2  UNL     1       3.959   1.911  23.039  1.00  0.00    -0.010 C 
HETATM   32  C1  UNL     1       5.068   1.812  22.017  1.00  0.00     0.010 C 
HETATM   33  C3  UNL     1       3.461   0.564  23.437  1.00  0.00     0.010 C 
ENDBRANCH  29  31
ENDBRANCH  27  29
ENDBRANCH  26  27
ENDBRANCH  16  26
BRANCH  12  34
HETATM   34  O6  UNL     1       6.624   7.801  19.753  1.00  0.00    -0.388 OA
ATOM     35  H6  UNL     1       6.601   8.184  18.884  1.00  0.00     0.210 HD
ENDBRANCH  12  34
ENDBRANCH   4   5
ENDBRANCH   1   4
TORSDOF 8
ENDMDL
