MODEL 1
REMARK VINA RESULT: -6.883955470      0.000      0.000
REMARK  7 active torsions:
REMARK  status: ('A' for Active; 'I' for Inactive)
REMARK    1  A    between atoms: C9_9  and  O1_10 
REMARK    2  A    between atoms: O1_10  and  C10_11 
REMARK    3  A    between atoms: C13_15  and  C14_16 
REMARK    4  A    between atoms: C14_16  and  C17_19 
REMARK    5  A    between atoms: C18_22  and  O5_23 
REMARK    6  A    between atoms: C23_30  and  O7_31 
REMARK    7  A    between atoms: O7_31  and  C24_32 
ROOT
HETATM    1  C1  UNL     1       7.875  11.125  21.952  1.00  0.00     0.017 C 
HETATM    2  C2  UNL     1       7.452   9.892  22.216  1.00  0.00    -0.055 C 
HETATM    3  C3  UNL     1       6.105   9.443  21.779  1.00  0.00     0.046 C 
HETATM    4  C4  UNL     1       5.536   8.355  22.655  1.00  0.00    -0.026 C 
HETATM    5  C5  UNL     1       5.388   8.905  24.049  1.00  0.00     0.016 C 
HETATM    6  C6  UNL     1       4.155   8.087  22.134  1.00  0.00     0.011 C 
HETATM    7  C7  UNL     1       3.518   6.850  22.708  1.00  0.00     0.011 C 
HETATM    8  C8  UNL     1       3.650   5.759  21.720  1.00  0.00     0.058 C 
HETATM    9  C9  UNL     1       2.755   4.583  21.881  1.00  0.00     0.139 C 
HETATM   10  C12 UNL     1       3.518   3.420  21.250  1.00  0.00     0.042 C 
HETATM   11  C13 UNL     1       5.007   3.734  21.522  1.00  0.00     0.049 C 
HETATM   12  C18 UNL     1       5.023   5.064  22.002  1.00  0.00     0.129 C 
HETATM   13  C19 UNL     1       5.961   6.118  21.684  1.00  0.00     0.171 C 
HETATM   14  O6  UNL     1       6.413   6.207  20.587  1.00  0.00    -0.294 OA
HETATM   15  C20 UNL     1       6.468   7.182  22.595  1.00  0.00     0.098 C 
HETATM   16  C21 UNL     1       7.887   7.540  22.402  1.00  0.00    -0.044 C 
HETATM   17  C22 UNL     1       8.807   6.789  21.838  1.00  0.00     0.018 C 
HETATM   18  C23 UNL     1       8.281   8.907  22.948  1.00  0.00     0.189 C 
ENDROOT
BRANCH  11  19
HETATM   19  C14 UNL     1       5.744   3.160  20.378  1.00  0.00     0.048 C 
HETATM   20  C15 UNL     1       7.234   3.337  20.367  1.00  0.00     0.027 C 
HETATM   21  C16 UNL     1       5.145   3.554  19.026  1.00  0.00     0.027 C 
BRANCH  19  22
HETATM   22  C17 UNL     1       5.515   1.688  20.461  1.00  0.00     0.181 C 
HETATM   23  O3  UNL     1       5.826   1.078  21.531  1.00  0.00    -0.647 OA
HETATM   24  O4  UNL     1       4.978   0.916  19.441  1.00  0.00    -0.647 OA
ENDBRANCH  19  22
ENDBRANCH  11  19
BRANCH  12  25
HETATM   25  O5  UNL     1       4.927   4.958  23.446  1.00  0.00    -0.381 OA
ATOM     26  H5  UNL     1       5.854   4.952  23.654  1.00  0.00     0.211 HD
ENDBRANCH  12  25
BRANCH   9  27
HETATM   27  O1  UNL     1       2.430   4.330  23.234  1.00  0.00    -0.316 OA
BRANCH  27  28
HETATM   28  C10 UNL     1       2.040   3.112  23.729  1.00  0.00     0.255 C 
HETATM   29  C11 UNL     1       0.780   2.421  23.332  1.00  0.00     0.126 C 
HETATM   30  O2  UNL     1       2.788   2.550  24.567  1.00  0.00    -0.266 OA
ENDBRANCH  27  28
ENDBRANCH   9  27
BRANCH  18  31
HETATM   31  O7  UNL     1       9.666   9.119  22.735  1.00  0.00    -0.307 OA
BRANCH  31  32
HETATM   32  C24 UNL     1      10.473   9.236  23.858  1.00  0.00     0.255 C 
HETATM   33  C25 UNL     1      10.093   8.637  25.169  1.00  0.00     0.126 C 
HETATM   34  O8  UNL     1      11.565   9.858  23.804  1.00  0.00    -0.266 OA
ENDBRANCH  31  32
ENDBRANCH  18  31
TORSDOF 7
ENDMDL
MODEL 2
REMARK VINA RESULT: -6.881242492      2.472      7.441
REMARK  7 active torsions:
REMARK  status: ('A' for Active; 'I' for Inactive)
REMARK    1  A    between atoms: C9_9  and  O1_10 
REMARK    2  A    between atoms: O1_10  and  C10_11 
REMARK    3  A    between atoms: C13_15  and  C14_16 
REMARK    4  A    between atoms: C14_16  and  C17_19 
REMARK    5  A    between atoms: C18_22  and  O5_23 
REMARK    6  A    between atoms: C23_30  and  O7_31 
REMARK    7  A    between atoms: O7_31  and  C24_32 
ROOT
HETATM    1  C1  UNL     1       4.332   1.134  20.435  1.00  0.00     0.017 C 
HETATM    2  C2  UNL     1       4.785   2.347  20.134  1.00  0.00    -0.055 C 
HETATM    3  C3  UNL     1       3.972   3.555  20.426  1.00  0.00     0.046 C 
HETATM    4  C4  UNL     1       4.275   4.706  19.501  1.00  0.00    -0.026 C 
HETATM    5  C5  UNL     1       3.942   4.278  18.096  1.00  0.00     0.016 C 
HETATM    6  C6  UNL     1       3.316   5.798  19.873  1.00  0.00     0.011 C 
HETATM    7  C7  UNL     1       3.632   7.127  19.240  1.00  0.00     0.011 C 
HETATM    8  C8  UNL     1       4.322   7.965  20.242  1.00  0.00     0.058 C 
HETATM    9  C9  UNL     1       4.363   9.430  19.992  1.00  0.00     0.139 C 
HETATM   10  C12 UNL     1       5.622   9.915  20.708  1.00  0.00     0.042 C 
HETATM   11  C13 UNL     1       6.617   8.736  20.595  1.00  0.00     0.049 C 
HETATM   12  C18 UNL     1       5.849   7.650  20.112  1.00  0.00     0.129 C 
HETATM   13  C19 UNL     1       5.904   6.265  20.524  1.00  0.00     0.171 C 
HETATM   14  O6  UNL     1       6.107   5.985  21.662  1.00  0.00    -0.294 OA
HETATM   15  C20 UNL     1       5.723   5.060  19.666  1.00  0.00     0.098 C 
HETATM   16  C21 UNL     1       6.594   3.919  20.008  1.00  0.00    -0.044 C 
HETATM   17  C22 UNL     1       7.728   3.978  20.671  1.00  0.00     0.018 C 
HETATM   18  C23 UNL     1       6.105   2.567  19.500  1.00  0.00     0.189 C 
ENDROOT
BRANCH  11  19
HETATM   19  C14 UNL     1       7.447   8.805  21.814  1.00  0.00     0.048 C 
HETATM   20  C15 UNL     1       8.427   7.691  22.037  1.00  0.00     0.027 C 
HETATM   21  C16 UNL     1       6.626   9.062  23.080  1.00  0.00     0.027 C 
BRANCH  19  22
HETATM   22  C17 UNL     1       8.271  10.040  21.660  1.00  0.00     0.181 C 
HETATM   23  O3  UNL     1       8.425  10.803  22.663  1.00  0.00    -0.647 OA
HETATM   24  O4  UNL     1       8.896  10.428  20.484  1.00  0.00    -0.647 OA
ENDBRANCH  19  22
ENDBRANCH  11  19
BRANCH  12  25
HETATM   25  O5  UNL     1       5.966   7.703  18.667  1.00  0.00    -0.381 OA
ATOM     26  H5  UNL     1       6.666   8.342  18.600  1.00  0.00     0.211 HD
ENDBRANCH  12  25
BRANCH   9  27
HETATM   27  O1  UNL     1       4.383   9.744  18.614  1.00  0.00    -0.316 OA
BRANCH  27  28
HETATM   28  C10 UNL     1       4.606  10.997  18.102  1.00  0.00     0.255 C 
HETATM   29  C11 UNL     1       3.731  12.172  18.375  1.00  0.00     0.126 C 
HETATM   30  O2  UNL     1       5.606  11.160  17.359  1.00  0.00    -0.266 OA
ENDBRANCH  27  28
ENDBRANCH   9  27
BRANCH  18  31
HETATM   31  O7  UNL     1       7.038   1.563  19.858  1.00  0.00    -0.307 OA
BRANCH  31  32
HETATM   32  C24 UNL     1       7.700   0.910  18.828  1.00  0.00     0.255 C 
HETATM   33  C25 UNL     1       9.174   0.694  18.849  1.00  0.00     0.126 C 
HETATM   34  O8  UNL     1       7.068   0.474  17.831  1.00  0.00    -0.266 OA
ENDBRANCH  31  32
ENDBRANCH  18  31
TORSDOF 7
ENDMDL
MODEL 3
REMARK VINA RESULT: -6.862863106      2.510      7.926
REMARK  7 active torsions:
REMARK  status: ('A' for Active; 'I' for Inactive)
REMARK    1  A    between atoms: C9_9  and  O1_10 
REMARK    2  A    between atoms: O1_10  and  C10_11 
REMARK    3  A    between atoms: C13_15  and  C14_16 
REMARK    4  A    between atoms: C14_16  and  C17_19 
REMARK    5  A    between atoms: C18_22  and  O5_23 
REMARK    6  A    between atoms: C23_30  and  O7_31 
REMARK    7  A    between atoms: O7_31  and  C24_32 
ROOT
HETATM    1  C1  UNL     1       3.209   0.377  20.265  1.00  0.00     0.017 C 
HETATM    2  C2  UNL     1       3.553   1.359  21.094  1.00  0.00    -0.055 C 
HETATM    3  C3  UNL     1       3.989   2.678  20.568  1.00  0.00     0.046 C 
HETATM    4  C4  UNL     1       4.918   3.407  21.506  1.00  0.00    -0.026 C 
HETATM    5  C5  UNL     1       6.157   2.570  21.683  1.00  0.00     0.016 C 
HETATM    6  C6  UNL     1       5.326   4.661  20.790  1.00  0.00     0.011 C 
HETATM    7  C7  UNL     1       6.045   5.653  21.664  1.00  0.00     0.011 C 
HETATM    8  C8  UNL     1       5.080   6.697  22.069  1.00  0.00     0.058 C 
HETATM    9  C9  UNL     1       5.638   7.978  22.579  1.00  0.00     0.139 C 
HETATM   10  C12 UNL     1       4.562   8.531  23.511  1.00  0.00     0.042 C 
HETATM   11  C13 UNL     1       3.896   7.280  24.129  1.00  0.00     0.049 C 
HETATM   12  C18 UNL     1       4.395   6.188  23.380  1.00  0.00     0.129 C 
HETATM   13  C19 UNL     1       3.675   5.026  22.907  1.00  0.00     0.171 C 
HETATM   14  O6  UNL     1       2.546   5.126  22.546  1.00  0.00    -0.294 OA
HETATM   15  C20 UNL     1       4.186   3.631  22.796  1.00  0.00     0.098 C 
HETATM   16  C21 UNL     1       3.202   2.582  23.128  1.00  0.00    -0.044 C 
HETATM   17  C22 UNL     1       2.123   2.734  23.863  1.00  0.00     0.018 C 
HETATM   18  C23 UNL     1       3.525   1.202  22.566  1.00  0.00     0.189 C 
ENDROOT
BRANCH  11  19
HETATM   19  C14 UNL     1       2.491   7.662  24.372  1.00  0.00     0.048 C 
HETATM   20  C15 UNL     1       1.620   6.660  25.071  1.00  0.00     0.027 C 
HETATM   21  C16 UNL     1       1.794   8.200  23.120  1.00  0.00     0.027 C 
BRANCH  19  22
HETATM   22  C17 UNL     1       2.556   8.842  25.284  1.00  0.00     0.181 C 
HETATM   23  O3  UNL     1       1.793   9.832  25.062  1.00  0.00    -0.647 OA
HETATM   24  O4  UNL     1       3.401   8.944  26.380  1.00  0.00    -0.647 OA
ENDBRANCH  19  22
ENDBRANCH  11  19
BRANCH  12  25
HETATM   25  O5  UNL     1       5.577   5.736  24.090  1.00  0.00    -0.381 OA
ATOM     26  H5  UNL     1       5.254   4.894  24.390  1.00  0.00     0.211 HD
ENDBRANCH  12  25
BRANCH   9  27
HETATM   27  O1  UNL     1       6.874   7.804  23.244  1.00  0.00    -0.316 OA
BRANCH  27  28
HETATM   28  C10 UNL     1       7.649   8.825  23.732  1.00  0.00     0.255 C 
HETATM   29  C11 UNL     1       8.396   9.784  22.870  1.00  0.00     0.126 C 
HETATM   30  O2  UNL     1       7.733   8.956  24.979  1.00  0.00    -0.266 OA
ENDBRANCH  27  28
ENDBRANCH   9  27
BRANCH  18  31
HETATM   31  O7  UNL     1       2.533   0.279  22.981  1.00  0.00    -0.307 OA
BRANCH  31  32
HETATM   32  C24 UNL     1       2.937  -0.769  23.795  1.00  0.00     0.255 C 
HETATM   33  C25 UNL     1       3.224  -2.126  23.251  1.00  0.00     0.126 C 
HETATM   34  O8  UNL     1       3.076  -0.604  25.035  1.00  0.00    -0.266 OA
ENDBRANCH  31  32
ENDBRANCH  18  31
TORSDOF 7
ENDMDL
MODEL 4
REMARK VINA RESULT: -6.453640507      3.086      7.903
REMARK  7 active torsions:
REMARK  status: ('A' for Active; 'I' for Inactive)
REMARK    1  A    between atoms: C9_9  and  O1_10 
REMARK    2  A    between atoms: O1_10  and  C10_11 
REMARK    3  A    between atoms: C13_15  and  C14_16 
REMARK    4  A    between atoms: C14_16  and  C17_19 
REMARK    5  A    between atoms: C18_22  and  O5_23 
REMARK    6  A    between atoms: C23_30  and  O7_31 
REMARK    7  A    between atoms: O7_31  and  C24_32 
ROOT
HETATM    1  C1  UNL     1       1.379   4.772  21.456  1.00  0.00     0.017 C 
HETATM    2  C2  UNL     1       2.199   5.792  21.695  1.00  0.00    -0.055 C 
HETATM    3  C3  UNL     1       3.669   5.630  21.565  1.00  0.00     0.046 C 
HETATM    4  C4  UNL     1       4.445   6.578  22.444  1.00  0.00    -0.026 C 
HETATM    5  C5  UNL     1       4.093   6.281  23.877  1.00  0.00     0.016 C 
HETATM    6  C6  UNL     1       5.891   6.222  22.258  1.00  0.00     0.011 C 
HETATM    7  C7  UNL     1       6.845   7.225  22.850  1.00  0.00     0.011 C 
HETATM    8  C8  UNL     1       7.348   8.085  21.758  1.00  0.00     0.058 C 
HETATM    9  C9  UNL     1       8.589   8.862  22.021  1.00  0.00     0.139 C 
HETATM   10  C12 UNL     1       8.486  10.083  21.110  1.00  0.00     0.042 C 
HETATM   11  C13 UNL     1       6.973  10.391  21.033  1.00  0.00     0.049 C 
HETATM   12  C18 UNL     1       6.338   9.272  21.622  1.00  0.00     0.129 C 
HETATM   13  C19 UNL     1       5.139   8.593  21.184  1.00  0.00     0.171 C 
HETATM   14  O6  UNL     1       4.907   8.473  20.024  1.00  0.00    -0.294 OA
HETATM   15  C20 UNL     1       4.086   7.977  22.041  1.00  0.00     0.098 C 
HETATM   16  C21 UNL     1       2.708   8.131  21.537  1.00  0.00    -0.044 C 
HETATM   17  C22 UNL     1       2.288   9.046  20.692  1.00  0.00     0.018 C 
HETATM   18  C23 UNL     1       1.707   7.129  22.099  1.00  0.00     0.189 C 
ENDROOT
BRANCH  11  19
HETATM   19  C14 UNL     1       6.758  10.969  19.692  1.00  0.00     0.048 C 
HETATM   20  C15 UNL     1       5.376  11.459  19.372  1.00  0.00     0.027 C 
HETATM   21  C16 UNL     1       7.287  10.078  18.566  1.00  0.00     0.027 C 
BRANCH  19  22
HETATM   22  C17 UNL     1       7.633  12.177  19.639  1.00  0.00     0.181 C 
HETATM   23  O3  UNL     1       8.381  12.349  18.627  1.00  0.00    -0.647 OA
HETATM   24  O4  UNL     1       7.696  13.149  20.627  1.00  0.00    -0.647 OA
ENDBRANCH  19  22
ENDBRANCH  11  19
BRANCH  12  25
HETATM   25  O5  UNL     1       6.191   9.602  23.027  1.00  0.00    -0.381 OA
ATOM     26  H5  UNL     1       5.263   9.805  23.032  1.00  0.00     0.211 HD
ENDBRANCH  12  25
BRANCH   9  27
HETATM   27  O1  UNL     1       8.722   9.226  23.381  1.00  0.00    -0.316 OA
BRANCH  27  28
HETATM   28  C10 UNL     1       9.859   9.050  24.129  1.00  0.00     0.255 C 
HETATM   29  C11 UNL     1       9.918   8.219  25.364  1.00  0.00     0.126 C 
HETATM   30  O2  UNL     1      10.909   9.626  23.748  1.00  0.00    -0.266 OA
ENDBRANCH  27  28
ENDBRANCH   9  27
BRANCH  18  31
HETATM   31  O7  UNL     1       0.420   7.400  21.571  1.00  0.00    -0.307 OA
BRANCH  31  32
HETATM   32  C24 UNL     1      -0.585   7.720  22.473  1.00  0.00     0.255 C 
HETATM   33  C25 UNL     1      -0.309   7.921  23.923  1.00  0.00     0.126 C 
HETATM   34  O8  UNL     1      -1.776   7.853  22.089  1.00  0.00    -0.266 OA
ENDBRANCH  31  32
ENDBRANCH  18  31
TORSDOF 7
ENDMDL
MODEL 5
REMARK VINA RESULT: -6.447636703      3.482      6.921
REMARK  7 active torsions:
REMARK  status: ('A' for Active; 'I' for Inactive)
REMARK    1  A    between atoms: C9_9  and  O1_10 
REMARK    2  A    between atoms: O1_10  and  C10_11 
REMARK    3  A    between atoms: C13_15  and  C14_16 
REMARK    4  A    between atoms: C14_16  and  C17_19 
REMARK    5  A    between atoms: C18_22  and  O5_23 
REMARK    6  A    between atoms: C23_30  and  O7_31 
REMARK    7  A    between atoms: O7_31  and  C24_32 
ROOT
HETATM    1  C1  UNL     1      -0.139   8.427  26.801  1.00  0.00     0.017 C 
HETATM    2  C2  UNL     1       0.767   8.550  25.835  1.00  0.00    -0.055 C 
HETATM    3  C3  UNL     1       2.061   7.824  25.912  1.00  0.00     0.046 C 
HETATM    4  C4  UNL     1       3.170   8.519  25.164  1.00  0.00    -0.026 C 
HETATM    5  C5  UNL     1       3.384   9.870  25.792  1.00  0.00     0.016 C 
HETATM    6  C6  UNL     1       4.408   7.710  25.418  1.00  0.00     0.011 C 
HETATM    7  C7  UNL     1       5.573   8.091  24.544  1.00  0.00     0.011 C 
HETATM    8  C8  UNL     1       5.664   7.112  23.441  1.00  0.00     0.058 C 
HETATM    9  C9  UNL     1       6.952   7.037  22.702  1.00  0.00     0.139 C 
HETATM   10  C12 UNL     1       6.577   6.537  21.309  1.00  0.00     0.042 C 
HETATM   11  C13 UNL     1       5.173   7.127  21.044  1.00  0.00     0.049 C 
HETATM   12  C18 UNL     1       4.751   7.650  22.290  1.00  0.00     0.129 C 
HETATM   13  C19 UNL     1       3.438   7.575  22.892  1.00  0.00     0.171 C 
HETATM   14  O6  UNL     1       2.768   6.602  22.751  1.00  0.00    -0.294 OA
HETATM   15  C20 UNL     1       2.765   8.612  23.723  1.00  0.00     0.098 C 
HETATM   16  C21 UNL     1       1.311   8.734  23.506  1.00  0.00    -0.044 C 
HETATM   17  C22 UNL     1       0.650   8.348  22.437  1.00  0.00     0.018 C 
HETATM   18  C23 UNL     1       0.548   9.401  24.644  1.00  0.00     0.189 C 
ENDROOT
BRANCH  11  19
HETATM   19  C14 UNL     1       4.489   6.142  20.182  1.00  0.00     0.048 C 
HETATM   20  C15 UNL     1       3.086   6.463  19.757  1.00  0.00     0.027 C 
HETATM   21  C16 UNL     1       4.573   4.714  20.726  1.00  0.00     0.027 C 
BRANCH  19  22
HETATM   22  C17 UNL     1       5.290   6.098  18.924  1.00  0.00     0.181 C 
HETATM   23  O3  UNL     1       5.481   7.177  18.281  1.00  0.00    -0.647 OA
HETATM   24  O4  UNL     1       5.855   4.950  18.389  1.00  0.00    -0.647 OA
ENDBRANCH  19  22
ENDBRANCH  11  19
BRANCH  12  25
HETATM   25  O5  UNL     1       5.178   9.036  22.295  1.00  0.00    -0.381 OA
ATOM     26  H5  UNL     1       5.740   9.019  21.529  1.00  0.00     0.211 HD
ENDBRANCH  12  25
BRANCH   9  27
HETATM   27  O1  UNL     1       7.623   8.282  22.654  1.00  0.00    -0.316 OA
BRANCH  27  28
HETATM   28  C10 UNL     1       8.844   8.534  23.226  1.00  0.00     0.255 C 
HETATM   29  C11 UNL     1       9.232   8.070  24.588  1.00  0.00     0.126 C 
HETATM   30  O2  UNL     1       9.680   9.196  22.562  1.00  0.00    -0.266 OA
ENDBRANCH  27  28
ENDBRANCH   9  27
BRANCH  18  31
HETATM   31  O7  UNL     1      -0.824   9.493  24.304  1.00  0.00    -0.307 OA
BRANCH  31  32
HETATM   32  C24 UNL     1      -1.460  10.704  24.536  1.00  0.00     0.255 C 
HETATM   33  C25 UNL     1      -2.827  10.778  25.124  1.00  0.00     0.126 C 
HETATM   34  O8  UNL     1      -0.895  11.792  24.253  1.00  0.00    -0.266 OA
ENDBRANCH  31  32
ENDBRANCH  18  31
TORSDOF 7
ENDMDL
