MODEL 1
REMARK VINA RESULT: -8.979226590      0.000      0.000
REMARK  8 active torsions:
REMARK  status: ('A' for Active; 'I' for Inactive)
REMARK    1  A    between atoms: C2_2  and  C4_4 
REMARK    2  A    between atoms: C4_4  and  O1_5 
REMARK    3  A    between atoms: O1_5  and  C5_6 
REMARK    4  A    between atoms: C5_6  and  C6_8 
REMARK    5  A    between atoms: C10_18  and  O5_19 
REMARK    6  A    between atoms: O5_19  and  C11_20 
REMARK    7  A    between atoms: C11_20  and  C12_22 
REMARK    8  A    between atoms: C24_34  and  O7_35 
ROOT
HETATM    1  C6  UNL     1       7.967   7.827  23.056  1.00  0.00     0.163 C 
HETATM    2  C7  UNL     1       6.613   7.273  23.260  1.00  0.00     0.022 C 
HETATM    3  N1  UNL     1       6.505   6.563  24.318  1.00  0.00    -0.403 N 
ATOM      4  H11 UNL     1       5.570   6.181  24.459  1.00  0.00     0.155 HD
ATOM      5  H12 UNL     1       7.360   6.481  24.867  1.00  0.00     0.155 HD
HETATM    6  C8  UNL     1       5.359   7.393  22.454  1.00  0.00     0.254 C 
HETATM    7  O3  UNL     1       5.256   8.677  21.969  1.00  0.00    -0.269 OA
HETATM    8  N2  UNL     1       6.069   8.903  20.914  1.00  0.00    -0.216 N 
HETATM    9  C9  UNL     1       5.614   8.912  19.569  1.00  0.00     0.273 C 
HETATM   10  O4  UNL     1       4.515   8.493  19.151  1.00  0.00    -0.268 OA
HETATM   11  C10 UNL     1       6.673   9.507  18.761  1.00  0.00     0.228 C 
HETATM   12  C22 UNL     1       7.919   9.249  19.526  1.00  0.00     0.073 C 
HETATM   13  C23 UNL     1       7.480   9.164  20.973  1.00  0.00     0.151 C 
HETATM   14  C24 UNL     1       8.285   8.084  21.612  1.00  0.00     0.162 C 
ENDROOT
BRANCH  11  15
HETATM   15  O5  UNL     1       6.709   9.041  17.432  1.00  0.00    -0.306 OA
BRANCH  15  16
HETATM   16  C11 UNL     1       7.189   9.819  16.391  1.00  0.00     0.268 C 
HETATM   17  O6  UNL     1       7.311  11.051  16.613  1.00  0.00    -0.264 OA
BRANCH  16  18
HETATM   18  C12 UNL     1       7.519   9.156  15.110  1.00  0.00     0.049 C 
HETATM   19  C13 UNL     1       8.697   8.216  15.248  1.00  0.00     0.024 C 
HETATM   20  C14 UNL     1       8.974   7.635  13.892  1.00  0.00    -0.013 C 
HETATM   21  C15 UNL     1       7.777   6.819  13.395  1.00  0.00     0.009 C 
HETATM   22  C19 UNL     1       9.254   8.677  12.848  1.00  0.00     0.009 C 
HETATM   23  C16 UNL     1       6.589   7.722  13.323  1.00  0.00    -0.013 C 
HETATM   24  C17 UNL     1       6.850   8.849  12.347  1.00  0.00     0.009 C 
HETATM   25  C21 UNL     1       6.336   8.324  14.676  1.00  0.00     0.024 C 
HETATM   26  C18 UNL     1       8.059   9.626  12.753  1.00  0.00    -0.013 C 
HETATM   27  C20 UNL     1       7.861  10.232  14.112  1.00  0.00     0.024 C 
ENDBRANCH  16  18
ENDBRANCH  15  16
ENDBRANCH  11  15
BRANCH  14  28
HETATM   28  O7  UNL     1       9.632   8.422  21.520  1.00  0.00    -0.392 OA
ATOM     29  H7  UNL     1       9.929   8.219  20.640  1.00  0.00     0.210 HD
ENDBRANCH  14  28
BRANCH   1  30
HETATM   30  C5  UNL     1       8.230   9.004  23.919  1.00  0.00     0.271 C 
HETATM   31  O2  UNL     1       7.258   9.554  24.487  1.00  0.00    -0.264 OA
BRANCH  30  32
HETATM   32  O1  UNL     1       9.486   9.528  24.130  1.00  0.00    -0.320 OA
BRANCH  32  33
HETATM   33  C4  UNL     1      10.645   8.813  24.472  1.00  0.00     0.182 C 
BRANCH  33  34
HETATM   34  C2  UNL     1      10.721   8.618  25.968  1.00  0.00     0.002 C 
HETATM   35  C1  UNL     1       9.801   7.493  26.404  1.00  0.00     0.011 C 
HETATM   36  C3  UNL     1      12.139   8.156  26.330  1.00  0.00     0.011 C 
ENDBRANCH  33  34
ENDBRANCH  32  33
ENDBRANCH  30  32
ENDBRANCH   1  30
TORSDOF 8
ENDMDL
MODEL 2
REMARK VINA RESULT: -8.953244210      0.270      1.339
REMARK  8 active torsions:
REMARK  status: ('A' for Active; 'I' for Inactive)
REMARK    1  A    between atoms: C2_2  and  C4_4 
REMARK    2  A    between atoms: C4_4  and  O1_5 
REMARK    3  A    between atoms: O1_5  and  C5_6 
REMARK    4  A    between atoms: C5_6  and  C6_8 
REMARK    5  A    between atoms: C10_18  and  O5_19 
REMARK    6  A    between atoms: O5_19  and  C11_20 
REMARK    7  A    between atoms: C11_20  and  C12_22 
REMARK    8  A    between atoms: C24_34  and  O7_35 
ROOT
HETATM    1  C6  UNL     1       7.994   7.842  22.840  1.00  0.00     0.163 C 
HETATM    2  C7  UNL     1       6.648   7.285  23.087  1.00  0.00     0.022 C 
HETATM    3  N1  UNL     1       6.577   6.570  24.145  1.00  0.00    -0.403 N 
ATOM      4  H11 UNL     1       5.647   6.186  24.316  1.00  0.00     0.155 HD
ATOM      5  H12 UNL     1       7.450   6.486  24.664  1.00  0.00     0.155 HD
HETATM    6  C8  UNL     1       5.368   7.408  22.325  1.00  0.00     0.254 C 
HETATM    7  O3  UNL     1       5.247   8.694  21.851  1.00  0.00    -0.269 OA
HETATM    8  N2  UNL     1       6.024   8.926  20.769  1.00  0.00    -0.216 N 
HETATM    9  C9  UNL     1       5.523   8.942  19.441  1.00  0.00     0.273 C 
HETATM   10  O4  UNL     1       4.411   8.524  19.058  1.00  0.00    -0.268 OA
HETATM   11  C10 UNL     1       6.554   9.542  18.600  1.00  0.00     0.228 C 
HETATM   12  C22 UNL     1       7.825   9.282  19.321  1.00  0.00     0.073 C 
HETATM   13  C23 UNL     1       7.436   9.189  20.782  1.00  0.00     0.151 C 
HETATM   14  C24 UNL     1       8.263   8.106  21.388  1.00  0.00     0.162 C 
ENDROOT
BRANCH  11  15
HETATM   15  O5  UNL     1       6.545   9.083  17.269  1.00  0.00    -0.306 OA
BRANCH  15  16
HETATM   16  C11 UNL     1       7.079   9.828  16.229  1.00  0.00     0.268 C 
HETATM   17  O6  UNL     1       7.162  11.070  16.405  1.00  0.00    -0.264 OA
BRANCH  16  18
HETATM   18  C12 UNL     1       7.508   9.119  15.003  1.00  0.00     0.049 C 
HETATM   19  C13 UNL     1       7.788  10.077  13.866  1.00  0.00     0.024 C 
HETATM   20  C14 UNL     1       8.169   9.258  12.667  1.00  0.00    -0.013 C 
HETATM   21  C15 UNL     1       9.448   8.461  12.936  1.00  0.00     0.009 C 
HETATM   22  C19 UNL     1       7.114   8.266  12.269  1.00  0.00     0.009 C 
HETATM   23  C16 UNL     1       9.204   7.561  14.105  1.00  0.00    -0.013 C 
HETATM   24  C17 UNL     1       8.084   6.594  13.793  1.00  0.00     0.009 C 
HETATM   25  C21 UNL     1       8.795   8.385  15.293  1.00  0.00     0.024 C 
HETATM   26  C18 UNL     1       6.833   7.333  13.447  1.00  0.00    -0.013 C 
HETATM   27  C20 UNL     1       6.394   8.188  14.599  1.00  0.00     0.024 C 
ENDBRANCH  16  18
ENDBRANCH  15  16
ENDBRANCH  11  15
BRANCH  14  28
HETATM   28  O7  UNL     1       9.606   8.447  21.252  1.00  0.00    -0.392 OA
ATOM     29  H7  UNL     1      10.113   7.881  21.821  1.00  0.00     0.210 HD
ENDBRANCH  14  28
BRANCH   1  30
HETATM   30  C5  UNL     1       8.285   9.015  23.701  1.00  0.00     0.271 C 
HETATM   31  O2  UNL     1       7.331   9.570  24.292  1.00  0.00    -0.264 OA
BRANCH  30  32
HETATM   32  O1  UNL     1       9.549   9.529  23.884  1.00  0.00    -0.320 OA
BRANCH  32  33
HETATM   33  C4  UNL     1      10.692   8.820  24.286  1.00  0.00     0.182 C 
BRANCH  33  34
HETATM   34  C2  UNL     1      10.743   8.715  25.792  1.00  0.00     0.002 C 
HETATM   35  C1  UNL     1       9.734   7.695  26.288  1.00  0.00     0.011 C 
HETATM   36  C3  UNL     1      12.118   8.166  26.198  1.00  0.00     0.011 C 
ENDBRANCH  33  34
ENDBRANCH  32  33
ENDBRANCH  30  32
ENDBRANCH   1  30
TORSDOF 8
ENDMDL
MODEL 3
REMARK VINA RESULT: -8.941745654      0.162      1.282
REMARK  8 active torsions:
REMARK  status: ('A' for Active; 'I' for Inactive)
REMARK    1  A    between atoms: C2_2  and  C4_4 
REMARK    2  A    between atoms: C4_4  and  O1_5 
REMARK    3  A    between atoms: O1_5  and  C5_6 
REMARK    4  A    between atoms: C5_6  and  C6_8 
REMARK    5  A    between atoms: C10_18  and  O5_19 
REMARK    6  A    between atoms: O5_19  and  C11_20 
REMARK    7  A    between atoms: C11_20  and  C12_22 
REMARK    8  A    between atoms: C24_34  and  O7_35 
ROOT
HETATM    1  C6  UNL     1       8.039   7.896  22.926  1.00  0.00     0.163 C 
HETATM    2  C7  UNL     1       6.689   7.349  23.169  1.00  0.00     0.022 C 
HETATM    3  N1  UNL     1       6.605   6.651  24.238  1.00  0.00    -0.403 N 
ATOM      4  H11 UNL     1       5.672   6.274  24.406  1.00  0.00     0.155 HD
ATOM      5  H12 UNL     1       7.473   6.571  24.766  1.00  0.00     0.155 HD
HETATM    6  C8  UNL     1       5.416   7.467  22.395  1.00  0.00     0.254 C 
HETATM    7  O3  UNL     1       5.306   8.746  21.899  1.00  0.00    -0.269 OA
HETATM    8  N2  UNL     1       6.093   8.957  20.821  1.00  0.00    -0.216 N 
HETATM    9  C9  UNL     1       5.604   8.955  19.488  1.00  0.00     0.273 C 
HETATM   10  O4  UNL     1       4.493   8.536  19.103  1.00  0.00    -0.268 OA
HETATM   11  C10 UNL     1       6.646   9.537  18.648  1.00  0.00     0.228 C 
HETATM   12  C22 UNL     1       7.909   9.281  19.384  1.00  0.00     0.073 C 
HETATM   13  C23 UNL     1       7.506   9.214  20.842  1.00  0.00     0.151 C 
HETATM   14  C24 UNL     1       8.323   8.136  21.472  1.00  0.00     0.162 C 
ENDROOT
BRANCH  11  15
HETATM   15  O5  UNL     1       6.645   9.057  17.324  1.00  0.00    -0.306 OA
BRANCH  15  16
HETATM   16  C11 UNL     1       7.143   9.807  16.269  1.00  0.00     0.268 C 
HETATM   17  O6  UNL     1       7.327  11.032  16.481  1.00  0.00    -0.264 OA
BRANCH  16  18
HETATM   18  C12 UNL     1       7.419   9.121  14.987  1.00  0.00     0.049 C 
HETATM   19  C13 UNL     1       6.243   8.284  14.531  1.00  0.00     0.024 C 
HETATM   20  C14 UNL     1       6.642   7.601  13.254  1.00  0.00    -0.013 C 
HETATM   21  C15 UNL     1       6.942   8.628  12.158  1.00  0.00     0.009 C 
HETATM   22  C19 UNL     1       7.870   6.748  13.398  1.00  0.00     0.009 C 
HETATM   23  C16 UNL     1       8.055   9.507  12.629  1.00  0.00    -0.013 C 
HETATM   24  C17 UNL     1       9.299   8.683  12.879  1.00  0.00     0.009 C 
HETATM   25  C21 UNL     1       7.662  10.163  13.922  1.00  0.00     0.024 C 
HETATM   26  C18 UNL     1       9.029   7.616  13.888  1.00  0.00    -0.013 C 
HETATM   27  C20 UNL     1       8.611   8.224  15.195  1.00  0.00     0.024 C 
ENDBRANCH  16  18
ENDBRANCH  15  16
ENDBRANCH  11  15
BRANCH  14  28
HETATM   28  O7  UNL     1       9.668   8.468  21.343  1.00  0.00    -0.392 OA
ATOM     29  H7  UNL     1       9.887   9.089  22.027  1.00  0.00     0.210 HD
ENDBRANCH  14  28
BRANCH   1  30
HETATM   30  C5  UNL     1       8.329   9.080  23.771  1.00  0.00     0.271 C 
HETATM   31  O2  UNL     1       7.372   9.649  24.345  1.00  0.00    -0.264 OA
BRANCH  30  32
HETATM   32  O1  UNL     1       9.594   9.591  23.957  1.00  0.00    -0.320 OA
BRANCH  32  33
HETATM   33  C4  UNL     1      10.739   8.875  24.342  1.00  0.00     0.182 C 
BRANCH  33  34
HETATM   34  C2  UNL     1      10.800   8.748  25.846  1.00  0.00     0.002 C 
HETATM   35  C1  UNL     1       9.790   7.725  26.333  1.00  0.00     0.011 C 
HETATM   36  C3  UNL     1      12.175   8.189  26.233  1.00  0.00     0.011 C 
ENDBRANCH  33  34
ENDBRANCH  32  33
ENDBRANCH  30  32
ENDBRANCH   1  30
TORSDOF 8
ENDMDL
MODEL 4
REMARK VINA RESULT: -8.392980913      4.219      8.183
REMARK  8 active torsions:
REMARK  status: ('A' for Active; 'I' for Inactive)
REMARK    1  A    between atoms: C2_2  and  C4_4 
REMARK    2  A    between atoms: C4_4  and  O1_5 
REMARK    3  A    between atoms: O1_5  and  C5_6 
REMARK    4  A    between atoms: C5_6  and  C6_8 
REMARK    5  A    between atoms: C10_18  and  O5_19 
REMARK    6  A    between atoms: O5_19  and  C11_20 
REMARK    7  A    between atoms: C11_20  and  C12_22 
REMARK    8  A    between atoms: C24_34  and  O7_35 
ROOT
HETATM    1  C6  UNL     1       7.680   9.759  22.960  1.00  0.00     0.163 C 
HETATM    2  C7  UNL     1       7.773   9.810  21.487  1.00  0.00     0.022 C 
HETATM    3  N1  UNL     1       8.394  10.840  21.050  1.00  0.00    -0.403 N 
ATOM      4  H11 UNL     1       8.458  10.875  20.032  1.00  0.00     0.155 HD
ATOM      5  H12 UNL     1       8.733  11.474  21.772  1.00  0.00     0.155 HD
HETATM    6  C8  UNL     1       7.275   8.881  20.428  1.00  0.00     0.254 C 
HETATM    7  O3  UNL     1       7.448   7.583  20.849  1.00  0.00    -0.269 OA
HETATM    8  N2  UNL     1       6.521   7.199  21.754  1.00  0.00    -0.216 N 
HETATM    9  C9  UNL     1       5.398   6.395  21.427  1.00  0.00     0.273 C 
HETATM   10  O4  UNL     1       4.975   6.138  20.281  1.00  0.00    -0.268 OA
HETATM   11  C10 UNL     1       4.828   5.921  22.683  1.00  0.00     0.228 C 
HETATM   12  C22 UNL     1       5.229   6.939  23.686  1.00  0.00     0.073 C 
HETATM   13  C23 UNL     1       6.519   7.527  23.153  1.00  0.00     0.151 C 
HETATM   14  C24 UNL     1       6.487   8.989  23.447  1.00  0.00     0.162 C 
ENDROOT
BRANCH  11  15
HETATM   15  O5  UNL     1       3.441   5.685  22.628  1.00  0.00    -0.306 OA
BRANCH  15  16
HETATM   16  C11 UNL     1       2.687   5.454  23.768  1.00  0.00     0.268 C 
HETATM   17  O6  UNL     1       2.898   4.376  24.380  1.00  0.00    -0.264 OA
BRANCH  16  18
HETATM   18  C12 UNL     1       1.700   6.478  24.179  1.00  0.00     0.049 C 
HETATM   19  C13 UNL     1       0.372   5.861  24.560  1.00  0.00     0.024 C 
HETATM   20  C14 UNL     1      -0.562   6.981  24.914  1.00  0.00    -0.013 C 
HETATM   21  C15 UNL     1      -0.042   7.763  26.124  1.00  0.00     0.009 C 
HETATM   22  C19 UNL     1      -0.745   7.973  23.802  1.00  0.00     0.009 C 
HETATM   23  C16 UNL     1       1.303   8.317  25.782  1.00  0.00    -0.013 C 
HETATM   24  C17 UNL     1       1.194   9.259  24.603  1.00  0.00     0.009 C 
HETATM   25  C21 UNL     1       2.225   7.194  25.400  1.00  0.00     0.024 C 
HETATM   26  C18 UNL     1       0.616   8.556  23.420  1.00  0.00    -0.013 C 
HETATM   27  C20 UNL     1       1.494   7.408  23.012  1.00  0.00     0.024 C 
ENDBRANCH  16  18
ENDBRANCH  15  16
ENDBRANCH  11  15
BRANCH  14  28
HETATM   28  O7  UNL     1       6.394   9.162  24.825  1.00  0.00    -0.392 OA
ATOM     29  H7  UNL     1       7.163   8.771  25.224  1.00  0.00     0.210 HD
ENDBRANCH  14  28
BRANCH   1  30
HETATM   30  C5  UNL     1       8.947   9.312  23.590  1.00  0.00     0.271 C 
HETATM   31  O2  UNL     1       9.945   9.131  22.855  1.00  0.00    -0.264 OA
BRANCH  30  32
HETATM   32  O1  UNL     1       9.086   9.084  24.941  1.00  0.00    -0.320 OA
BRANCH  32  33
HETATM   33  C4  UNL     1       9.452   7.874  25.553  1.00  0.00     0.182 C 
BRANCH  33  34
HETATM   34  C2  UNL     1      10.616   8.090  26.491  1.00  0.00     0.002 C 
HETATM   35  C1  UNL     1      10.893   6.830  27.291  1.00  0.00     0.011 C 
HETATM   36  C3  UNL     1      11.879   8.334  25.654  1.00  0.00     0.011 C 
ENDBRANCH  33  34
ENDBRANCH  32  33
ENDBRANCH  30  32
ENDBRANCH   1  30
TORSDOF 8
ENDMDL
MODEL 5
REMARK VINA RESULT: -8.356419529      4.238      8.221
REMARK  8 active torsions:
REMARK  status: ('A' for Active; 'I' for Inactive)
REMARK    1  A    between atoms: C2_2  and  C4_4 
REMARK    2  A    between atoms: C4_4  and  O1_5 
REMARK    3  A    between atoms: O1_5  and  C5_6 
REMARK    4  A    between atoms: C5_6  and  C6_8 
REMARK    5  A    between atoms: C10_18  and  O5_19 
REMARK    6  A    between atoms: O5_19  and  C11_20 
REMARK    7  A    between atoms: C11_20  and  C12_22 
REMARK    8  A    between atoms: C24_34  and  O7_35 
ROOT
HETATM    1  C6  UNL     1       7.699   9.747  22.985  1.00  0.00     0.163 C 
HETATM    2  C7  UNL     1       7.789   9.792  21.512  1.00  0.00     0.022 C 
HETATM    3  N1  UNL     1       8.407  10.821  21.068  1.00  0.00    -0.403 N 
ATOM      4  H11 UNL     1       8.469  10.851  20.050  1.00  0.00     0.155 HD
ATOM      5  H12 UNL     1       8.746  11.459  21.787  1.00  0.00     0.155 HD
HETATM    6  C8  UNL     1       7.291   8.856  20.458  1.00  0.00     0.254 C 
HETATM    7  O3  UNL     1       7.469   7.560  20.885  1.00  0.00    -0.269 OA
HETATM    8  N2  UNL     1       6.545   7.179  21.795  1.00  0.00    -0.216 N 
HETATM    9  C9  UNL     1       5.423   6.370  21.473  1.00  0.00     0.273 C 
HETATM   10  O4  UNL     1       4.998   6.107  20.329  1.00  0.00    -0.268 OA
HETATM   11  C10 UNL     1       4.857   5.901  22.733  1.00  0.00     0.228 C 
HETATM   12  C22 UNL     1       5.257   6.925  23.730  1.00  0.00     0.073 C 
HETATM   13  C23 UNL     1       6.544   7.514  23.192  1.00  0.00     0.151 C 
HETATM   14  C24 UNL     1       6.509   8.978  23.478  1.00  0.00     0.162 C 
ENDROOT
BRANCH  11  15
HETATM   15  O5  UNL     1       3.470   5.661  22.682  1.00  0.00    -0.306 OA
BRANCH  15  16
HETATM   16  C11 UNL     1       2.717   5.443  23.825  1.00  0.00     0.268 C 
HETATM   17  O6  UNL     1       2.904   4.355  24.428  1.00  0.00    -0.264 OA
BRANCH  16  18
HETATM   18  C12 UNL     1       1.761   6.489  24.249  1.00  0.00     0.049 C 
HETATM   19  C13 UNL     1       2.280   7.283  25.429  1.00  0.00     0.024 C 
HETATM   20  C14 UNL     1       1.222   8.280  25.804  1.00  0.00    -0.013 C 
HETATM   21  C15 UNL     1       0.965   9.259  24.654  1.00  0.00     0.009 C 
HETATM   22  C19 UNL     1      -0.097   7.646  26.138  1.00  0.00     0.009 C 
HETATM   23  C16 UNL     1       0.520   8.477  23.461  1.00  0.00    -0.013 C 
HETATM   24  C17 UNL     1      -0.765   7.740  23.771  1.00  0.00     0.009 C 
HETATM   25  C21 UNL     1       1.569   7.461  23.110  1.00  0.00     0.024 C 
HETATM   26  C18 UNL     1      -0.579   6.829  24.939  1.00  0.00    -0.013 C 
HETATM   27  C20 UNL     1       0.478   5.805  24.643  1.00  0.00     0.024 C 
ENDBRANCH  16  18
ENDBRANCH  15  16
ENDBRANCH  11  15
BRANCH  14  28
HETATM   28  O7  UNL     1       6.418   9.156  24.856  1.00  0.00    -0.392 OA
ATOM     29  H7  UNL     1       5.966   9.976  25.018  1.00  0.00     0.210 HD
ENDBRANCH  14  28
BRANCH   1  30
HETATM   30  C5  UNL     1       8.968   9.307  23.615  1.00  0.00     0.271 C 
HETATM   31  O2  UNL     1       9.967   9.132  22.880  1.00  0.00    -0.264 OA
BRANCH  30  32
HETATM   32  O1  UNL     1       9.108   9.078  24.965  1.00  0.00    -0.320 OA
BRANCH  32  33
HETATM   33  C4  UNL     1       9.478   7.869  25.577  1.00  0.00     0.182 C 
BRANCH  33  34
HETATM   34  C2  UNL     1      10.649   8.086  26.507  1.00  0.00     0.002 C 
HETATM   35  C1  UNL     1      10.928   6.829  27.310  1.00  0.00     0.011 C 
HETATM   36  C3  UNL     1      11.907   8.325  25.662  1.00  0.00     0.011 C 
ENDBRANCH  33  34
ENDBRANCH  32  33
ENDBRANCH  30  32
ENDBRANCH   1  30
TORSDOF 8
ENDMDL
