MODEL 1
REMARK VINA RESULT: -7.075296074      0.000      0.000
REMARK  9 active torsions:
REMARK  status: ('A' for Active; 'I' for Inactive)
REMARK    1  A    between atoms: C11_11  and  O1_12 
REMARK    2  A    between atoms: C13_15  and  O2_16 
REMARK    3  A    between atoms: C14_18  and  C15_19 
REMARK    4  A    between atoms: C15_19  and  O4_21 
REMARK    5  A    between atoms: O4_21  and  C16_22 
REMARK    6  A    between atoms: C19_25  and  C20_26 
REMARK    7  A    between atoms: C23_30  and  C24_31 
REMARK    8  A    between atoms: C24_31  and  O6_32 
REMARK    9  A    between atoms: O6_32  and  C25_33 
ROOT
HETATM    1  C1  UNL     1       4.572   9.351  18.459  1.00  0.00     0.015 C 
HETATM    2  C2  UNL     1       4.606   8.789  19.638  1.00  0.00    -0.080 C 
HETATM    3  C3  UNL     1       3.421   8.794  20.510  1.00  0.00     0.044 C 
HETATM    4  C4  UNL     1       3.503   7.592  21.468  1.00  0.00    -0.031 C 
HETATM    5  C5  UNL     1       2.024   7.227  21.661  1.00  0.00     0.016 C 
HETATM    6  C6  UNL     1       4.101   6.396  20.778  1.00  0.00     0.011 C 
HETATM    7  C7  UNL     1       5.452   6.638  20.188  1.00  0.00     0.014 C 
HETATM    8  C8  UNL     1       5.803   8.098  20.228  1.00  0.00     0.044 C 
HETATM    9  C9  UNL     1       6.226   8.683  21.513  1.00  0.00    -0.050 C 
HETATM   10  C10 UNL     1       5.621   8.056  22.753  1.00  0.00    -0.040 C 
HETATM   11  C11 UNL     1       6.337   6.842  23.249  1.00  0.00     0.151 C 
HETATM   12  C12 UNL     1       7.800   6.896  23.044  1.00  0.00     0.076 C 
HETATM   13  C13 UNL     1       8.410   8.197  22.676  1.00  0.00     0.092 C 
HETATM   14  C14 UNL     1       8.643   9.149  23.801  1.00  0.00     0.144 C 
HETATM   15  C18 UNL     1       8.465  10.522  23.240  1.00  0.00     0.002 C 
HETATM   16  C19 UNL     1       7.937  10.428  22.056  1.00  0.00    -0.008 C 
HETATM   17  C21 UNL     1       7.687   8.992  21.663  1.00  0.00     0.042 C 
HETATM   18  C22 UNL     1       8.458   8.876  20.338  1.00  0.00     0.029 C 
HETATM   19  C23 UNL     1       4.145   8.023  22.732  1.00  0.00     0.050 C 
ENDROOT
BRANCH  14  20
HETATM   20  C15 UNL     1      10.062   9.109  24.307  1.00  0.00     0.269 C 
HETATM   21  O3  UNL     1      10.924   9.948  23.937  1.00  0.00    -0.264 OA
BRANCH  20  22
HETATM   22  O4  UNL     1      10.475   8.138  25.208  1.00  0.00    -0.321 OA
BRANCH  22  23
HETATM   23  C16 UNL     1      11.461   8.453  26.190  1.00  0.00     0.174 C 
HETATM   24  C17 UNL     1      11.596   7.330  27.196  1.00  0.00     0.034 C 
ENDBRANCH  22  23
ENDBRANCH  20  22
ENDBRANCH  14  20
BRANCH  13  25
HETATM   25  O2  UNL     1       9.710   7.868  22.200  1.00  0.00    -0.387 OA
ATOM     26  H2  UNL     1      10.250   8.614  22.432  1.00  0.00     0.210 HD
ENDBRANCH  13  25
BRANCH  16  27
HETATM   27  C20 UNL     1       7.632  11.615  21.229  1.00  0.00     0.266 C 
HETATM   28  O5  UNL     1       8.432  12.548  21.078  1.00  0.00    -0.302 OA
ENDBRANCH  16  27
BRANCH  11  29
HETATM   29  O1  UNL     1       6.153   6.652  24.641  1.00  0.00    -0.391 OA
ATOM     30  H1  UNL     1       6.004   5.739  24.856  1.00  0.00     0.210 HD
ENDBRANCH  11  29
BRANCH  19  31
HETATM   31  C24 UNL     1       3.629   7.377  23.994  1.00  0.00     0.188 C 
BRANCH  31  32
HETATM   32  O6  UNL     1       3.861   8.160  25.150  1.00  0.00    -0.321 OA
BRANCH  32  33
HETATM   33  C25 UNL     1       2.961   9.166  25.446  1.00  0.00     0.254 C 
HETATM   34  C26 UNL     1       1.500   9.013  25.317  1.00  0.00     0.126 C 
HETATM   35  O7  UNL     1       3.418  10.263  25.844  1.00  0.00    -0.266 OA
ENDBRANCH  32  33
ENDBRANCH  31  32
ENDBRANCH  19  31
TORSDOF 9
ENDMDL
MODEL 2
REMARK VINA RESULT: -6.978015052      1.693      2.227
REMARK  9 active torsions:
REMARK  status: ('A' for Active; 'I' for Inactive)
REMARK    1  A    between atoms: C11_11  and  O1_12 
REMARK    2  A    between atoms: C13_15  and  O2_16 
REMARK    3  A    between atoms: C14_18  and  C15_19 
REMARK    4  A    between atoms: C15_19  and  O4_21 
REMARK    5  A    between atoms: O4_21  and  C16_22 
REMARK    6  A    between atoms: C19_25  and  C20_26 
REMARK    7  A    between atoms: C23_30  and  C24_31 
REMARK    8  A    between atoms: C24_31  and  O6_32 
REMARK    9  A    between atoms: O6_32  and  C25_33 
ROOT
HETATM    1  C1  UNL     1       3.982   5.817  18.815  1.00  0.00     0.015 C 
HETATM    2  C2  UNL     1       3.799   6.176  20.058  1.00  0.00    -0.080 C 
HETATM    3  C3  UNL     1       2.547   6.824  20.478  1.00  0.00     0.044 C 
HETATM    4  C4  UNL     1       2.326   6.556  21.977  1.00  0.00    -0.031 C 
HETATM    5  C5  UNL     1       0.794   6.496  22.076  1.00  0.00     0.016 C 
HETATM    6  C6  UNL     1       2.784   5.172  22.347  1.00  0.00     0.011 C 
HETATM    7  C7  UNL     1       4.211   4.886  22.009  1.00  0.00     0.014 C 
HETATM    8  C8  UNL     1       4.795   5.983  21.166  1.00  0.00     0.044 C 
HETATM    9  C9  UNL     1       5.173   7.246  21.823  1.00  0.00    -0.050 C 
HETATM   10  C10 UNL     1       4.345   7.634  23.032  1.00  0.00    -0.040 C 
HETATM   11  C11 UNL     1       4.793   7.014  24.316  1.00  0.00     0.151 C 
HETATM   12  C12 UNL     1       6.257   6.836  24.405  1.00  0.00     0.076 C 
HETATM   13  C13 UNL     1       7.111   7.530  23.411  1.00  0.00     0.092 C 
HETATM   14  C14 UNL     1       7.382   8.973  23.677  1.00  0.00     0.144 C 
HETATM   15  C18 UNL     1       7.496   9.637  22.343  1.00  0.00     0.002 C 
HETATM   16  C19 UNL     1       7.086   8.813  21.426  1.00  0.00    -0.008 C 
HETATM   17  C21 UNL     1       6.642   7.494  22.011  1.00  0.00     0.042 C 
HETATM   18  C22 UNL     1       7.517   6.485  21.249  1.00  0.00     0.029 C 
HETATM   19  C23 UNL     1       2.896   7.679  22.759  1.00  0.00     0.050 C 
ENDROOT
BRANCH  14  20
HETATM   20  C15 UNL     1       8.713   9.198  24.346  1.00  0.00     0.269 C 
HETATM   21  O3  UNL     1       9.619   9.889  23.811  1.00  0.00    -0.264 OA
BRANCH  20  22
HETATM   22  O4  UNL     1       8.994   8.646  25.588  1.00  0.00    -0.321 OA
BRANCH  22  23
HETATM   23  C16 UNL     1      10.340   8.324  25.934  1.00  0.00     0.174 C 
HETATM   24  C17 UNL     1      10.382   7.165  26.907  1.00  0.00     0.034 C 
ENDBRANCH  22  23
ENDBRANCH  20  22
ENDBRANCH  14  20
BRANCH  13  25
HETATM   25  O2  UNL     1       8.381   6.895  23.515  1.00  0.00    -0.387 OA
ATOM     26  H2  UNL     1       8.639   7.012  24.421  1.00  0.00     0.210 HD
ENDBRANCH  13  25
BRANCH  16  27
HETATM   27  C20 UNL     1       7.072   9.169  19.991  1.00  0.00     0.266 C 
HETATM   28  O5  UNL     1       8.104   9.250  19.313  1.00  0.00    -0.302 OA
ENDBRANCH  16  27
BRANCH  11  29
HETATM   29  O1  UNL     1       4.435   7.805  25.436  1.00  0.00    -0.391 OA
ATOM     30  H1  UNL     1       4.540   7.330  26.252  1.00  0.00     0.210 HD
ENDBRANCH  11  29
BRANCH  19  31
HETATM   31  C24 UNL     1       2.150   8.062  24.013  1.00  0.00     0.188 C 
BRANCH  31  32
HETATM   32  O6  UNL     1       1.947   9.458  24.132  1.00  0.00    -0.321 OA
BRANCH  32  33
HETATM   33  C25 UNL     1       0.668   9.947  23.950  1.00  0.00     0.254 C 
HETATM   34  C26 UNL     1      -0.549   9.188  24.292  1.00  0.00     0.126 C 
HETATM   35  O7  UNL     1       0.543  11.097  23.467  1.00  0.00    -0.266 OA
ENDBRANCH  32  33
ENDBRANCH  31  32
ENDBRANCH  19  31
TORSDOF 9
ENDMDL
MODEL 3
REMARK VINA RESULT: -6.640496451      2.696      5.682
REMARK  9 active torsions:
REMARK  status: ('A' for Active; 'I' for Inactive)
REMARK    1  A    between atoms: C11_11  and  O1_12 
REMARK    2  A    between atoms: C13_15  and  O2_16 
REMARK    3  A    between atoms: C14_18  and  C15_19 
REMARK    4  A    between atoms: C15_19  and  O4_21 
REMARK    5  A    between atoms: O4_21  and  C16_22 
REMARK    6  A    between atoms: C19_25  and  C20_26 
REMARK    7  A    between atoms: C23_30  and  C24_31 
REMARK    8  A    between atoms: C24_31  and  O6_32 
REMARK    9  A    between atoms: O6_32  and  C25_33 
ROOT
HETATM    1  C1  UNL     1       2.180   7.194  19.341  1.00  0.00     0.015 C 
HETATM    2  C2  UNL     1       3.238   7.912  19.072  1.00  0.00    -0.080 C 
HETATM    3  C3  UNL     1       3.789   7.963  17.709  1.00  0.00     0.044 C 
HETATM    4  C4  UNL     1       4.553   9.286  17.528  1.00  0.00    -0.031 C 
HETATM    5  C5  UNL     1       4.328   9.593  16.040  1.00  0.00     0.016 C 
HETATM    6  C6  UNL     1       3.862  10.407  18.255  1.00  0.00     0.011 C 
HETATM    7  C7  UNL     1       3.658  10.161  19.714  1.00  0.00     0.014 C 
HETATM    8  C8  UNL     1       3.993   8.741  20.072  1.00  0.00     0.044 C 
HETATM    9  C9  UNL     1       5.413   8.361  20.176  1.00  0.00    -0.050 C 
HETATM   10  C10 UNL     1       6.366   9.117  19.271  1.00  0.00    -0.040 C 
HETATM   11  C11 UNL     1       6.838  10.424  19.820  1.00  0.00     0.151 C 
HETATM   12  C12 UNL     1       7.003  10.422  21.288  1.00  0.00     0.076 C 
HETATM   13  C13 UNL     1       6.987   9.118  21.995  1.00  0.00     0.092 C 
HETATM   14  C14 UNL     1       8.261   8.341  21.961  1.00  0.00     0.144 C 
HETATM   15  C18 UNL     1       7.878   6.897  21.954  1.00  0.00     0.002 C 
HETATM   16  C19 UNL     1       6.602   6.801  21.733  1.00  0.00    -0.008 C 
HETATM   17  C21 UNL     1       5.955   8.154  21.560  1.00  0.00     0.042 C 
HETATM   18  C22 UNL     1       4.854   8.131  22.633  1.00  0.00     0.029 C 
HETATM   19  C23 UNL     1       5.983   9.067  17.847  1.00  0.00     0.050 C 
ENDROOT
BRANCH  14  20
HETATM   20  C15 UNL     1       9.083   8.527  23.210  1.00  0.00     0.269 C 
HETATM   21  O3  UNL     1       9.860   9.506  23.357  1.00  0.00    -0.264 OA
BRANCH  20  22
HETATM   22  O4  UNL     1       9.014   7.617  24.256  1.00  0.00    -0.321 OA
BRANCH  22  23
HETATM   23  C16 UNL     1       8.972   8.084  25.603  1.00  0.00     0.174 C 
HETATM   24  C17 UNL     1      10.232   7.696  26.347  1.00  0.00     0.034 C 
ENDBRANCH  22  23
ENDBRANCH  20  22
ENDBRANCH  14  20
BRANCH  13  25
HETATM   25  O2  UNL     1       6.796   9.449  23.366  1.00  0.00    -0.387 OA
ATOM     26  H2  UNL     1       6.658   8.616  23.801  1.00  0.00     0.210 HD
ENDBRANCH  13  25
BRANCH  16  27
HETATM   27  C20 UNL     1       5.907   5.498  21.664  1.00  0.00     0.266 C 
HETATM   28  O5  UNL     1       6.155   4.653  20.794  1.00  0.00    -0.302 OA
ENDBRANCH  16  27
BRANCH  11  29
HETATM   29  O1  UNL     1       8.101  10.791  19.294  1.00  0.00    -0.391 OA
ATOM     30  H1  UNL     1       8.763  10.848  19.973  1.00  0.00     0.210 HD
ENDBRANCH  11  29
BRANCH  19  31
HETATM   31  C24 UNL     1       6.976   9.849  17.023  1.00  0.00     0.188 C 
BRANCH  31  32
HETATM   32  O6  UNL     1       8.070   9.066  16.583  1.00  0.00    -0.321 OA
BRANCH  32  33
HETATM   33  C25 UNL     1       8.109   8.690  15.255  1.00  0.00     0.254 C 
HETATM   34  C26 UNL     1       8.166   9.652  14.138  1.00  0.00     0.126 C 
HETATM   35  O7  UNL     1       8.095   7.464  14.991  1.00  0.00    -0.266 OA
ENDBRANCH  32  33
ENDBRANCH  31  32
ENDBRANCH  19  31
TORSDOF 9
ENDMDL
MODEL 4
REMARK VINA RESULT: -6.403539878      2.523      4.790
REMARK  9 active torsions:
REMARK  status: ('A' for Active; 'I' for Inactive)
REMARK    1  A    between atoms: C11_11  and  O1_12 
REMARK    2  A    between atoms: C13_15  and  O2_16 
REMARK    3  A    between atoms: C14_18  and  C15_19 
REMARK    4  A    between atoms: C15_19  and  O4_21 
REMARK    5  A    between atoms: O4_21  and  C16_22 
REMARK    6  A    between atoms: C19_25  and  C20_26 
REMARK    7  A    between atoms: C23_30  and  C24_31 
REMARK    8  A    between atoms: C24_31  and  O6_32 
REMARK    9  A    between atoms: O6_32  and  C25_33 
ROOT
HETATM    1  C1  UNL     1       0.660   4.425  21.569  1.00  0.00     0.015 C 
HETATM    2  C2  UNL     1       0.813   5.472  22.336  1.00  0.00    -0.080 C 
HETATM    3  C3  UNL     1      -0.119   6.607  22.258  1.00  0.00     0.044 C 
HETATM    4  C4  UNL     1      -0.121   7.344  23.608  1.00  0.00    -0.031 C 
HETATM    5  C5  UNL     1      -1.567   7.854  23.700  1.00  0.00     0.016 C 
HETATM    6  C6  UNL     1       0.012   6.373  24.749  1.00  0.00     0.011 C 
HETATM    7  C7  UNL     1       1.222   5.500  24.676  1.00  0.00     0.014 C 
HETATM    8  C8  UNL     1       1.910   5.644  23.349  1.00  0.00     0.044 C 
HETATM    9  C9  UNL     1       2.727   6.846  23.109  1.00  0.00    -0.050 C 
HETATM   10  C10 UNL     1       2.273   8.104  23.822  1.00  0.00    -0.040 C 
HETATM   11  C11 UNL     1       2.770   8.237  25.225  1.00  0.00     0.151 C 
HETATM   12  C12 UNL     1       4.123   7.680  25.426  1.00  0.00     0.076 C 
HETATM   13  C13 UNL     1       4.931   7.347  24.227  1.00  0.00     0.092 C 
HETATM   14  C14 UNL     1       5.621   8.493  23.566  1.00  0.00     0.144 C 
HETATM   15  C18 UNL     1       5.658   8.182  22.105  1.00  0.00     0.002 C 
HETATM   16  C19 UNL     1       4.880   7.168  21.871  1.00  0.00    -0.008 C 
HETATM   17  C21 UNL     1       4.217   6.663  23.130  1.00  0.00     0.042 C 
HETATM   18  C22 UNL     1       4.633   5.183  23.149  1.00  0.00     0.029 C 
HETATM   19  C23 UNL     1       0.863   8.451  23.556  1.00  0.00     0.050 C 
ENDROOT
BRANCH  14  20
HETATM   20  C15 UNL     1       7.065   8.615  23.981  1.00  0.00     0.269 C 
HETATM   21  O3  UNL     1       7.407   9.219  25.031  1.00  0.00    -0.264 OA
BRANCH  20  22
HETATM   22  O4  UNL     1       8.080   8.060  23.215  1.00  0.00    -0.321 OA
BRANCH  22  23
HETATM   23  C16 UNL     1       9.132   8.889  22.722  1.00  0.00     0.174 C 
HETATM   24  C17 UNL     1       9.151   8.890  21.208  1.00  0.00     0.034 C 
ENDBRANCH  22  23
ENDBRANCH  20  22
ENDBRANCH  14  20
BRANCH  13  25
HETATM   25  O2  UNL     1       5.982   6.519  24.714  1.00  0.00    -0.387 OA
ATOM     26  H2  UNL     1       6.241   5.991  23.968  1.00  0.00     0.210 HD
ENDBRANCH  13  25
BRANCH  16  27
HETATM   27  C20 UNL     1       4.694   6.610  20.515  1.00  0.00     0.266 C 
HETATM   28  O5  UNL     1       5.632   6.457  19.721  1.00  0.00    -0.302 OA
ENDBRANCH  16  27
BRANCH  11  29
HETATM   29  O1  UNL     1       2.851   9.593  25.630  1.00  0.00    -0.391 OA
ATOM     30  H1  UNL     1       2.497   9.723  26.502  1.00  0.00     0.210 HD
ENDBRANCH  11  29
BRANCH  19  31
HETATM   31  C24 UNL     1       0.494   9.705  24.309  1.00  0.00     0.188 C 
BRANCH  31  32
HETATM   32  O6  UNL     1       0.902  10.888  23.648  1.00  0.00    -0.321 OA
BRANCH  32  33
HETATM   33  C25 UNL     1       0.220  11.264  22.507  1.00  0.00     0.254 C 
HETATM   34  C26 UNL     1      -1.252  11.323  22.421  1.00  0.00     0.126 C 
HETATM   35  O7  UNL     1       0.893  11.569  21.494  1.00  0.00    -0.266 OA
ENDBRANCH  32  33
ENDBRANCH  31  32
ENDBRANCH  19  31
TORSDOF 9
ENDMDL
MODEL 5
REMARK VINA RESULT: -6.290883755      1.801      2.995
REMARK  9 active torsions:
REMARK  status: ('A' for Active; 'I' for Inactive)
REMARK    1  A    between atoms: C11_11  and  O1_12 
REMARK    2  A    between atoms: C13_15  and  O2_16 
REMARK    3  A    between atoms: C14_18  and  C15_19 
REMARK    4  A    between atoms: C15_19  and  O4_21 
REMARK    5  A    between atoms: O4_21  and  C16_22 
REMARK    6  A    between atoms: C19_25  and  C20_26 
REMARK    7  A    between atoms: C23_30  and  C24_31 
REMARK    8  A    between atoms: C24_31  and  O6_32 
REMARK    9  A    between atoms: O6_32  and  C25_33 
ROOT
HETATM    1  C1  UNL     1       1.780   5.456  19.960  1.00  0.00     0.015 C 
HETATM    2  C2  UNL     1       2.370   5.775  21.081  1.00  0.00    -0.080 C 
HETATM    3  C3  UNL     1       1.586   6.172  22.261  1.00  0.00     0.044 C 
HETATM    4  C4  UNL     1       2.404   5.868  23.528  1.00  0.00    -0.031 C 
HETATM    5  C5  UNL     1       1.309   5.516  24.546  1.00  0.00     0.016 C 
HETATM    6  C6  UNL     1       3.193   4.598  23.366  1.00  0.00     0.011 C 
HETATM    7  C7  UNL     1       4.108   4.589  22.185  1.00  0.00     0.014 C 
HETATM    8  C8  UNL     1       3.857   5.776  21.301  1.00  0.00     0.044 C 
HETATM    9  C9  UNL     1       4.372   7.090  21.727  1.00  0.00    -0.050 C 
HETATM   10  C10 UNL     1       4.446   7.313  23.225  1.00  0.00    -0.040 C 
HETATM   11  C11 UNL     1       5.690   6.792  23.870  1.00  0.00     0.151 C 
HETATM   12  C12 UNL     1       6.887   6.897  23.010  1.00  0.00     0.076 C 
HETATM   13  C13 UNL     1       6.807   7.740  21.793  1.00  0.00     0.092 C 
HETATM   14  C14 UNL     1       6.965   9.209  22.005  1.00  0.00     0.144 C 
HETATM   15  C18 UNL     1       6.112   9.881  20.979  1.00  0.00     0.002 C 
HETATM   16  C19 UNL     1       5.344   8.993  20.423  1.00  0.00    -0.008 C 
HETATM   17  C21 UNL     1       5.571   7.614  20.993  1.00  0.00     0.042 C 
HETATM   18  C22 UNL     1       5.907   6.791  19.739  1.00  0.00     0.029 C 
HETATM   19  C23 UNL     1       3.164   7.079  23.916  1.00  0.00     0.050 C 
ENDROOT
BRANCH  14  20
HETATM   20  C15 UNL     1       8.368   9.685  21.726  1.00  0.00     0.269 C 
HETATM   21  O3  UNL     1       8.650  10.364  20.704  1.00  0.00    -0.264 OA
BRANCH  20  22
HETATM   22  O4  UNL     1       9.411   9.389  22.592  1.00  0.00    -0.321 OA
BRANCH  22  23
HETATM   23  C16 UNL     1       9.224   9.524  24.000  1.00  0.00     0.174 C 
HETATM   24  C17 UNL     1      10.302   8.781  24.759  1.00  0.00     0.034 C 
ENDBRANCH  22  23
ENDBRANCH  20  22
ENDBRANCH  14  20
BRANCH  13  25
HETATM   25  O2  UNL     1       7.933   7.360  21.010  1.00  0.00    -0.387 OA
ATOM     26  H2  UNL     1       8.422   6.761  21.562  1.00  0.00     0.210 HD
ENDBRANCH  13  25
BRANCH  16  27
HETATM   27  C20 UNL     1       4.375   9.338  19.361  1.00  0.00     0.266 C 
HETATM   28  O5  UNL     1       3.388  10.057  19.565  1.00  0.00    -0.302 OA
ENDBRANCH  16  27
BRANCH  11  29
HETATM   29  O1  UNL     1       6.007   7.500  25.055  1.00  0.00    -0.391 OA
ATOM     30  H1  UNL     1       6.822   7.200  25.439  1.00  0.00     0.210 HD
ENDBRANCH  11  29
BRANCH  19  31
HETATM   31  C24 UNL     1       3.330   7.314  25.397  1.00  0.00     0.188 C 
BRANCH  31  32
HETATM   32  O6  UNL     1       2.994   8.631  25.791  1.00  0.00    -0.321 OA
BRANCH  32  33
HETATM   33  C25 UNL     1       1.712   9.080  25.534  1.00  0.00     0.254 C 
HETATM   34  C26 UNL     1       0.517   8.566  26.229  1.00  0.00     0.126 C 
HETATM   35  O7  UNL     1       1.565   9.969  24.663  1.00  0.00    -0.266 OA
ENDBRANCH  32  33
ENDBRANCH  31  32
ENDBRANCH  19  31
TORSDOF 9
ENDMDL
