MODEL 1
REMARK VINA RESULT: -7.265571813      0.000      0.000
REMARK  7 active torsions:
REMARK  status: ('A' for Active; 'I' for Inactive)
REMARK    1  A    between atoms: C2_2  and  C3_3 
REMARK    2  A    between atoms: C19_22  and  O4_23 
REMARK    3  A    between atoms: C19_22  and  C20_25 
REMARK    4  A    between atoms: C20_25  and  O5_26 
REMARK    5  A    between atoms: O5_26  and  C21_27 
REMARK    6  A    between atoms: C21_27  and  C22_28 
REMARK    7  A    between atoms: C24_31  and  O7_32 
ROOT
HETATM    1  C3  UNL     1       7.657   0.902  19.514  1.00  0.00     0.178 C 
HETATM    2  O1  UNL     1       6.722   0.620  18.559  1.00  0.00    -0.371 OA
HETATM    3  C4  UNL     1       6.551   1.745  17.758  1.00  0.00     0.135 C 
HETATM    4  C5  UNL     1       6.685   1.237  16.310  1.00  0.00     0.042 C 
HETATM    5  C6  UNL     1       5.685   2.022  15.557  1.00  0.00    -0.031 C 
HETATM    6  C7  UNL     1       6.173   2.704  14.336  1.00  0.00     0.016 C 
HETATM    7  C8  UNL     1       5.041   2.999  16.558  1.00  0.00     0.025 C 
HETATM    8  C9  UNL     1       5.138   2.266  17.825  1.00  0.00     0.028 C 
HETATM    9  C10 UNL     1       4.227   1.034  17.743  1.00  0.00     0.094 C 
HETATM   10  C11 UNL     1       4.391   0.273  16.484  1.00  0.00     0.132 C 
HETATM   11  O2  UNL     1       4.383  -0.943  16.477  1.00  0.00    -0.298 OA
HETATM   12  C12 UNL     1       4.572   1.025  15.190  1.00  0.00     0.059 C 
HETATM   13  C13 UNL     1       5.134   0.093  14.149  1.00  0.00     0.018 C 
HETATM   14  C14 UNL     1       4.753   2.988  19.078  1.00  0.00     0.111 C 
HETATM   15  C15 UNL     1       3.389   3.622  18.755  1.00  0.00     0.045 C 
HETATM   16  C16 UNL     1       2.411   3.121  19.767  1.00  0.00     0.034 C 
HETATM   17  C17 UNL     1       3.159   1.953  20.344  1.00  0.00     0.118 C 
HETATM   18  C18 UNL     1       2.803   1.928  21.837  1.00  0.00     0.039 C 
HETATM   19  O3  UNL     1       4.460   2.046  20.052  1.00  0.00    -0.371 OA
HETATM   20  C19 UNL     1       5.732   3.943  19.657  1.00  0.00     0.159 C 
HETATM   21  C24 UNL     1       6.977   3.394  20.285  1.00  0.00     0.091 C 
HETATM   22  C25 UNL     1       7.186   1.978  20.444  1.00  0.00    -0.003 C 
HETATM   23  C26 UNL     1       6.957   1.447  21.621  1.00  0.00     0.024 C 
ENDROOT
BRANCH  20  24
HETATM   24  O4  UNL     1       6.190   4.884  18.702  1.00  0.00    -0.378 OA
ATOM     25  H4  UNL     1       5.515   5.118  18.076  1.00  0.00     0.211 HD
ENDBRANCH  20  24
BRANCH  20  26
HETATM   26  C20 UNL     1       5.172   4.837  20.754  1.00  0.00     0.215 C 
BRANCH  26  27
HETATM   27  O5  UNL     1       5.522   6.164  20.700  1.00  0.00    -0.385 OA
BRANCH  27  28
HETATM   28  C21 UNL     1       5.259   6.835  21.886  1.00  0.00     0.201 C 
BRANCH  28  29
HETATM   29  C22 UNL     1       4.702   5.915  22.934  1.00  0.00     0.169 A 
HETATM   30  C23 UNL     1       3.836   6.543  23.963  1.00  0.00     0.202 A 
HETATM   31  O6  UNL     1       5.184   6.193  24.273  1.00  0.00    -0.379 OA
ENDBRANCH  28  29
ENDBRANCH  27  28
ENDBRANCH  26  27
ENDBRANCH  20  26
BRANCH  21  32
HETATM   32  O7  UNL     1       7.362   4.024  21.476  1.00  0.00    -0.361 OA
ATOM     33  H7  UNL     1       6.678   4.527  21.901  1.00  0.00     0.217 HD
ENDBRANCH  21  32
BRANCH   1  34
HETATM   34  C2  UNL     1       8.953   1.324  18.931  1.00  0.00    -0.001 C 
HETATM   35  C1  UNL     1       9.891   0.454  18.600  1.00  0.00     0.010 C 
ENDBRANCH   1  34
TORSDOF 7
ENDMDL
MODEL 2
REMARK VINA RESULT: -7.231647099      0.875      1.256
REMARK  7 active torsions:
REMARK  status: ('A' for Active; 'I' for Inactive)
REMARK    1  A    between atoms: C2_2  and  C3_3 
REMARK    2  A    between atoms: C19_22  and  O4_23 
REMARK    3  A    between atoms: C19_22  and  C20_25 
REMARK    4  A    between atoms: C20_25  and  O5_26 
REMARK    5  A    between atoms: O5_26  and  C21_27 
REMARK    6  A    between atoms: C21_27  and  C22_28 
REMARK    7  A    between atoms: C24_31  and  O7_32 
ROOT
HETATM    1  C3  UNL     1       7.635   0.889  19.502  1.00  0.00     0.178 C 
HETATM    2  O1  UNL     1       6.710   0.620  18.534  1.00  0.00    -0.371 OA
HETATM    3  C4  UNL     1       6.555   1.753  17.741  1.00  0.00     0.135 C 
HETATM    4  C5  UNL     1       6.702   1.256  16.290  1.00  0.00     0.042 C 
HETATM    5  C6  UNL     1       5.715   2.054  15.533  1.00  0.00    -0.031 C 
HETATM    6  C7  UNL     1       6.221   2.742  14.323  1.00  0.00     0.016 C 
HETATM    7  C8  UNL     1       5.065   3.026  16.535  1.00  0.00     0.025 C 
HETATM    8  C9  UNL     1       5.144   2.282  17.796  1.00  0.00     0.028 C 
HETATM    9  C10 UNL     1       4.226   1.056  17.694  1.00  0.00     0.094 C 
HETATM   10  C11 UNL     1       4.400   0.305  16.430  1.00  0.00     0.132 C 
HETATM   11  O2  UNL     1       4.385  -0.911  16.413  1.00  0.00    -0.298 OA
HETATM   12  C12 UNL     1       4.600   1.066  15.145  1.00  0.00     0.059 C 
HETATM   13  C13 UNL     1       5.169   0.140  14.102  1.00  0.00     0.018 C 
HETATM   14  C14 UNL     1       4.749   2.995  19.051  1.00  0.00     0.111 C 
HETATM   15  C15 UNL     1       3.392   3.640  18.718  1.00  0.00     0.045 C 
HETATM   16  C16 UNL     1       2.400   3.137  19.715  1.00  0.00     0.034 C 
HETATM   17  C17 UNL     1       3.135   1.959  20.291  1.00  0.00     0.118 C 
HETATM   18  C18 UNL     1       2.762   1.925  21.779  1.00  0.00     0.039 C 
HETATM   19  O3  UNL     1       4.440   2.048  20.014  1.00  0.00    -0.371 OA
HETATM   20  C19 UNL     1       5.728   3.940  19.649  1.00  0.00     0.159 C 
HETATM   21  C24 UNL     1       6.962   3.378  20.286  1.00  0.00     0.091 C 
HETATM   22  C25 UNL     1       7.161   1.959  20.436  1.00  0.00    -0.003 C 
HETATM   23  C26 UNL     1       6.915   1.420  21.606  1.00  0.00     0.024 C 
ENDROOT
BRANCH  20  24
HETATM   24  O4  UNL     1       6.202   4.886  18.707  1.00  0.00    -0.378 OA
ATOM     25  H4  UNL     1       5.820   5.746  18.840  1.00  0.00     0.211 HD
ENDBRANCH  20  24
BRANCH  20  26
HETATM   26  C20 UNL     1       5.160   4.828  20.747  1.00  0.00     0.215 C 
BRANCH  26  27
HETATM   27  O5  UNL     1       5.210   6.182  20.526  1.00  0.00    -0.385 OA
BRANCH  27  28
HETATM   28  C21 UNL     1       5.440   6.906  21.686  1.00  0.00     0.201 C 
BRANCH  28  29
HETATM   29  C22 UNL     1       6.902   7.185  21.887  1.00  0.00     0.169 A 
HETATM   30  C23 UNL     1       7.472   8.300  21.091  1.00  0.00     0.202 A 
HETATM   31  O6  UNL     1       7.711   6.948  20.708  1.00  0.00    -0.379 OA
ENDBRANCH  28  29
ENDBRANCH  27  28
ENDBRANCH  26  27
ENDBRANCH  20  26
BRANCH  21  32
HETATM   32  O7  UNL     1       7.338   3.996  21.487  1.00  0.00    -0.361 OA
ATOM     33  H7  UNL     1       8.251   3.887  21.723  1.00  0.00     0.217 HD
ENDBRANCH  21  32
BRANCH   1  34
HETATM   34  C2  UNL     1       8.941   1.308  18.937  1.00  0.00    -0.001 C 
HETATM   35  C1  UNL     1       9.865   0.433  18.581  1.00  0.00     0.010 C 
ENDBRANCH   1  34
TORSDOF 7
ENDMDL
MODEL 3
REMARK VINA RESULT: -6.657922066      2.965      6.559
REMARK  7 active torsions:
REMARK  status: ('A' for Active; 'I' for Inactive)
REMARK    1  A    between atoms: C2_2  and  C3_3 
REMARK    2  A    between atoms: C19_22  and  O4_23 
REMARK    3  A    between atoms: C19_22  and  C20_25 
REMARK    4  A    between atoms: C20_25  and  O5_26 
REMARK    5  A    between atoms: O5_26  and  C21_27 
REMARK    6  A    between atoms: C21_27  and  C22_28 
REMARK    7  A    between atoms: C24_31  and  O7_32 
ROOT
HETATM    1  C3  UNL     1       2.973   6.151  22.558  1.00  0.00     0.178 C 
HETATM    2  O1  UNL     1       3.612   5.649  21.460  1.00  0.00    -0.371 OA
HETATM    3  C4  UNL     1       4.872   5.201  21.845  1.00  0.00     0.135 C 
HETATM    4  C5  UNL     1       4.983   3.770  21.287  1.00  0.00     0.042 C 
HETATM    5  C6  UNL     1       6.391   3.659  20.854  1.00  0.00    -0.031 C 
HETATM    6  C7  UNL     1       7.139   2.482  21.356  1.00  0.00     0.016 C 
HETATM    7  C8  UNL     1       7.075   4.989  21.217  1.00  0.00     0.025 C 
HETATM    8  C9  UNL     1       5.970   5.949  21.131  1.00  0.00     0.028 C 
HETATM    9  C10 UNL     1       5.530   6.051  19.664  1.00  0.00     0.094 C 
HETATM   10  C11 UNL     1       5.358   4.731  19.017  1.00  0.00     0.132 C 
HETATM   11  O2  UNL     1       4.437   4.520  18.252  1.00  0.00    -0.298 OA
HETATM   12  C12 UNL     1       6.346   3.633  19.315  1.00  0.00     0.059 C 
HETATM   13  C13 UNL     1       5.754   2.308  18.910  1.00  0.00     0.018 C 
HETATM   14  C14 UNL     1       6.228   7.350  21.588  1.00  0.00     0.111 C 
HETATM   15  C15 UNL     1       7.539   7.750  20.890  1.00  0.00     0.045 C 
HETATM   16  C16 UNL     1       7.263   8.978  20.086  1.00  0.00     0.034 C 
HETATM   17  C17 UNL     1       5.761   8.975  20.053  1.00  0.00     0.118 C 
HETATM   18  C18 UNL     1       5.340  10.449  20.123  1.00  0.00     0.039 C 
HETATM   19  O3  UNL     1       5.278   8.180  21.013  1.00  0.00    -0.371 OA
HETATM   20  C19 UNL     1       6.227   7.614  23.050  1.00  0.00     0.159 C 
HETATM   21  C24 UNL     1       4.922   7.551  23.785  1.00  0.00     0.091 C 
HETATM   22  C25 UNL     1       3.671   7.362  23.096  1.00  0.00    -0.003 C 
HETATM   23  C26 UNL     1       2.923   8.415  22.871  1.00  0.00     0.024 C 
ENDROOT
BRANCH  20  24
HETATM   24  O4  UNL     1       7.084   6.732  23.754  1.00  0.00    -0.378 OA
ATOM     25  H4  UNL     1       7.731   6.331  23.186  1.00  0.00     0.211 HD
ENDBRANCH  20  24
BRANCH  20  26
HETATM   26  C20 UNL     1       6.767   8.980  23.447  1.00  0.00     0.215 C 
BRANCH  26  27
HETATM   27  O5  UNL     1       7.816   8.990  24.334  1.00  0.00    -0.385 OA
BRANCH  27  28
HETATM   28  C21 UNL     1       8.922   9.670  23.848  1.00  0.00     0.201 C 
BRANCH  28  29
HETATM   29  C22 UNL     1      10.186   8.879  24.031  1.00  0.00     0.169 A 
HETATM   30  C23 UNL     1      11.049   9.278  25.171  1.00  0.00     0.202 A 
HETATM   31  O6  UNL     1      11.395   9.656  23.840  1.00  0.00    -0.379 OA
ENDBRANCH  28  29
ENDBRANCH  27  28
ENDBRANCH  26  27
ENDBRANCH  20  26
BRANCH  21  32
HETATM   32  O7  UNL     1       4.738   8.555  24.745  1.00  0.00    -0.361 OA
ATOM     33  H7  UNL     1       3.865   8.596  25.118  1.00  0.00     0.217 HD
ENDBRANCH  21  32
BRANCH   1  34
HETATM   34  C2  UNL     1       2.857   5.156  23.650  1.00  0.00    -0.001 C 
HETATM   35  C1  UNL     1       1.903   5.222  24.563  1.00  0.00     0.010 C 
ENDBRANCH   1  34
TORSDOF 7
ENDMDL
MODEL 4
REMARK VINA RESULT: -6.588411019      1.814      3.807
REMARK  7 active torsions:
REMARK  status: ('A' for Active; 'I' for Inactive)
REMARK    1  A    between atoms: C2_2  and  C3_3 
REMARK    2  A    between atoms: C19_22  and  O4_23 
REMARK    3  A    between atoms: C19_22  and  C20_25 
REMARK    4  A    between atoms: C20_25  and  O5_26 
REMARK    5  A    between atoms: O5_26  and  C21_27 
REMARK    6  A    between atoms: C21_27  and  C22_28 
REMARK    7  A    between atoms: C24_31  and  O7_32 
ROOT
HETATM    1  C3  UNL     1       3.336   1.572  21.557  1.00  0.00     0.178 C 
HETATM    2  O1  UNL     1       3.867   1.558  20.299  1.00  0.00    -0.371 OA
HETATM    3  C4  UNL     1       5.175   2.027  20.363  1.00  0.00     0.135 C 
HETATM    4  C5  UNL     1       6.020   0.977  19.618  1.00  0.00     0.042 C 
HETATM    5  C6  UNL     1       7.036   1.774  18.900  1.00  0.00    -0.031 C 
HETATM    6  C7  UNL     1       8.446   1.359  19.088  1.00  0.00     0.016 C 
HETATM    7  C8  UNL     1       6.801   3.246  19.285  1.00  0.00     0.025 C 
HETATM    8  C9  UNL     1       5.358   3.280  19.545  1.00  0.00     0.028 C 
HETATM    9  C10 UNL     1       4.621   3.033  18.221  1.00  0.00     0.094 C 
HETATM   10  C11 UNL     1       5.165   1.887  17.459  1.00  0.00     0.132 C 
HETATM   11  O2  UNL     1       4.431   1.115  16.874  1.00  0.00    -0.298 OA
HETATM   12  C12 UNL     1       6.657   1.678  17.411  1.00  0.00     0.059 C 
HETATM   13  C13 UNL     1       6.947   0.268  16.968  1.00  0.00     0.018 C 
HETATM   14  C14 UNL     1       4.783   4.538  20.115  1.00  0.00     0.111 C 
HETATM   15  C15 UNL     1       5.345   5.659  19.224  1.00  0.00     0.045 C 
HETATM   16  C16 UNL     1       4.184   6.405  18.655  1.00  0.00     0.034 C 
HETATM   17  C17 UNL     1       3.059   5.446  18.923  1.00  0.00     0.118 C 
HETATM   18  C18 UNL     1       1.842   6.316  19.263  1.00  0.00     0.039 C 
HETATM   19  O3  UNL     1       3.421   4.555  19.852  1.00  0.00    -0.371 OA
HETATM   20  C19 UNL     1       4.961   4.785  21.569  1.00  0.00     0.159 C 
HETATM   21  C24 UNL     1       4.201   3.929  22.536  1.00  0.00     0.091 C 
HETATM   22  C25 UNL     1       3.226   2.966  22.094  1.00  0.00    -0.003 C 
HETATM   23  C26 UNL     1       1.958   3.294  22.159  1.00  0.00     0.024 C 
ENDROOT
BRANCH  20  24
HETATM   24  O4  UNL     1       6.315   4.673  21.969  1.00  0.00    -0.378 OA
ATOM     25  H4  UNL     1       6.406   4.244  22.812  1.00  0.00     0.211 HD
ENDBRANCH  20  24
BRANCH  20  26
HETATM   26  C20 UNL     1       4.604   6.194  22.020  1.00  0.00     0.215 C 
BRANCH  26  27
HETATM   27  O5  UNL     1       5.472   6.794  22.899  1.00  0.00    -0.385 OA
BRANCH  27  28
HETATM   28  C21 UNL     1       5.996   7.981  22.407  1.00  0.00     0.201 C 
BRANCH  28  29
HETATM   29  C22 UNL     1       7.475   8.080  22.652  1.00  0.00     0.169 A 
HETATM   30  C23 UNL     1       8.354   7.695  21.519  1.00  0.00     0.202 A 
HETATM   31  O6  UNL     1       8.161   6.803  22.615  1.00  0.00    -0.379 OA
ENDBRANCH  28  29
ENDBRANCH  27  28
ENDBRANCH  26  27
ENDBRANCH  20  26
BRANCH  21  32
HETATM   32  O7  UNL     1       3.663   4.615  23.633  1.00  0.00    -0.361 OA
ATOM     33  H7  UNL     1       2.744   4.441  23.802  1.00  0.00     0.217 HD
ENDBRANCH  21  32
BRANCH   1  34
HETATM   34  C2  UNL     1       4.128   0.765  22.516  1.00  0.00    -0.001 C 
HETATM   35  C1  UNL     1       3.600  -0.242  23.191  1.00  0.00     0.010 C 
ENDBRANCH   1  34
TORSDOF 7
ENDMDL
MODEL 5
REMARK VINA RESULT: -6.558142050      2.468      5.630
REMARK  7 active torsions:
REMARK  status: ('A' for Active; 'I' for Inactive)
REMARK    1  A    between atoms: C2_2  and  C3_3 
REMARK    2  A    between atoms: C19_22  and  O4_23 
REMARK    3  A    between atoms: C19_22  and  C20_25 
REMARK    4  A    between atoms: C20_25  and  O5_26 
REMARK    5  A    between atoms: O5_26  and  C21_27 
REMARK    6  A    between atoms: C21_27  and  C22_28 
REMARK    7  A    between atoms: C24_31  and  O7_32 
ROOT
HETATM    1  C3  UNL     1       2.127   4.438  21.274  1.00  0.00     0.178 C 
HETATM    2  O1  UNL     1       3.161   4.125  20.438  1.00  0.00    -0.371 OA
HETATM    3  C4  UNL     1       4.279   3.822  21.209  1.00  0.00     0.135 C 
HETATM    4  C5  UNL     1       4.791   2.472  20.670  1.00  0.00     0.042 C 
HETATM    5  C6  UNL     1       6.262   2.593  20.732  1.00  0.00    -0.031 C 
HETATM    6  C7  UNL     1       6.980   1.490  21.413  1.00  0.00     0.016 C 
HETATM    7  C8  UNL     1       6.571   3.967  21.352  1.00  0.00     0.025 C 
HETATM    8  C9  UNL     1       5.418   4.771  20.934  1.00  0.00     0.028 C 
HETATM    9  C10 UNL     1       5.472   4.939  19.409  1.00  0.00     0.094 C 
HETATM   10  C11 UNL     1       5.733   3.669  18.694  1.00  0.00     0.132 C 
HETATM   11  O2  UNL     1       5.158   3.402  17.657  1.00  0.00    -0.298 OA
HETATM   12  C12 UNL     1       6.728   2.694  19.268  1.00  0.00     0.059 C 
HETATM   13  C13 UNL     1       6.518   1.341  18.639  1.00  0.00     0.018 C 
HETATM   14  C14 UNL     1       5.288   6.149  21.501  1.00  0.00     0.111 C 
HETATM   15  C15 UNL     1       6.675   6.783  21.300  1.00  0.00     0.045 C 
HETATM   16  C16 UNL     1       6.487   8.027  20.496  1.00  0.00     0.034 C 
HETATM   17  C17 UNL     1       5.099   7.822  19.958  1.00  0.00     0.118 C 
HETATM   18  C18 UNL     1       4.452   9.213  19.936  1.00  0.00     0.039 C 
HETATM   19  O3  UNL     1       4.460   6.889  20.670  1.00  0.00    -0.371 OA
HETATM   20  C19 UNL     1       4.766   6.283  22.886  1.00  0.00     0.159 C 
HETATM   21  C24 UNL     1       3.320   5.979  23.135  1.00  0.00     0.091 C 
HETATM   22  C25 UNL     1       2.410   5.681  22.059  1.00  0.00    -0.003 C 
HETATM   23  C26 UNL     1       1.621   6.638  21.633  1.00  0.00     0.024 C 
ENDROOT
BRANCH  20  24
HETATM   24  O4  UNL     1       5.473   5.469  23.805  1.00  0.00    -0.378 OA
ATOM     25  H4  UNL     1       6.397   5.689  23.843  1.00  0.00     0.211 HD
ENDBRANCH  20  24
BRANCH  20  26
HETATM   26  C20 UNL     1       4.924   7.670  23.491  1.00  0.00     0.215 C 
BRANCH  26  27
HETATM   27  O5  UNL     1       5.711   7.763  24.613  1.00  0.00    -0.385 OA
BRANCH  27  28
HETATM   28  C21 UNL     1       6.637   8.792  24.534  1.00  0.00     0.201 C 
BRANCH  28  29
HETATM   29  C22 UNL     1       7.997   8.353  24.997  1.00  0.00     0.169 A 
HETATM   30  C23 UNL     1       9.102   8.503  24.018  1.00  0.00     0.202 A 
HETATM   31  O6  UNL     1       8.528   7.221  24.263  1.00  0.00    -0.379 OA
ENDBRANCH  28  29
ENDBRANCH  27  28
ENDBRANCH  26  27
ENDBRANCH  20  26
BRANCH  21  32
HETATM   32  O7  UNL     1       2.676   6.862  24.013  1.00  0.00    -0.361 OA
ATOM     33  H7  UNL     1       2.015   6.463  24.567  1.00  0.00     0.217 HD
ENDBRANCH  21  32
BRANCH   1  34
HETATM   34  C2  UNL     1       1.818   3.345  22.227  1.00  0.00    -0.001 C 
HETATM   35  C1  UNL     1       0.658   3.269  22.856  1.00  0.00     0.010 C 
ENDBRANCH   1  34
TORSDOF 7
ENDMDL
