MODEL 1
REMARK VINA RESULT: -6.641649818      0.000      0.000
REMARK  8 active torsions:
REMARK  status: ('A' for Active; 'I' for Inactive)
REMARK    1  A    between atoms: C6_6  and  O1_7 
REMARK    2  A    between atoms: O1_7  and  C7_8 
REMARK       I    between atoms: C7_8  and  N1_10 
REMARK    3  A    between atoms: N1_10  and  C8_12 
REMARK    4  A    between atoms: C8_12  and  C9_13 
REMARK    5  A    between atoms: C9_13  and  C10_14 
REMARK    6  A    between atoms: C10_14  and  C11_15 
REMARK       I    between atoms: C11_15  and  N2_17 
REMARK       I    between atoms: N3_20  and  C14_21 
REMARK    7  A    between atoms: C14_21  and  O5_23 
REMARK    8  A    between atoms: O5_23  and  C15_24 
ROOT
HETATM    1  C9  UNL     1      -0.507   5.599  23.019  1.00  0.00     0.029 C 
ENDROOT
BRANCH   1   2
HETATM    2  C8  UNL     1       0.439   4.497  23.398  1.00  0.00     0.125 C 
BRANCH   2   3
HETATM    3  N1  UNL     1       1.234   4.142  22.256  1.00  0.00    -0.337 N 
HETATM    4  C7  UNL     1       2.499   3.539  22.422  1.00  0.00     0.362 C 
HETATM    5  O2  UNL     1       3.042   3.254  23.503  1.00  0.00    -0.238 OA
ATOM      6  H1  UNL     1       0.882   4.328  21.317  1.00  0.00     0.164 HD
BRANCH   4   7
HETATM    7  O1  UNL     1       3.255   3.210  21.281  1.00  0.00    -0.278 OA
BRANCH   7   8
HETATM    8  C6  UNL     1       4.668   3.218  21.316  1.00  0.00     0.227 C 
HETATM    9  C5  UNL     1       5.277   3.785  20.095  1.00  0.00     0.054 C 
HETATM   10  C4  UNL     1       6.607   3.263  19.689  1.00  0.00     0.014 C 
HETATM   11  C2  UNL     1       6.595   1.752  19.780  1.00  0.00    -0.032 C 
HETATM   12  C1  UNL     1       5.484   1.252  18.889  1.00  0.00     0.016 C 
HETATM   13  C3  UNL     1       7.886   1.119  19.383  1.00  0.00     0.016 C 
HETATM   14  C21 UNL     1       6.331   1.440  21.238  1.00  0.00     0.125 C 
HETATM   15  N4  UNL     1       5.054   1.876  21.650  1.00  0.00    -0.396 N 
ATOM     16  H4  UNL     1       4.427   1.259  22.166  1.00  0.00     0.155 HD
ENDBRANCH   7   8
ENDBRANCH   4   7
ENDBRANCH   2   3
ENDBRANCH   1   2
BRANCH   1  17
HETATM   17  C10 UNL     1       0.212   6.914  22.793  1.00  0.00     0.104 C 
BRANCH  17  18
HETATM   18  C11 UNL     1       0.820   7.323  24.081  1.00  0.00     0.219 C 
HETATM   19  O3  UNL     1       0.093   7.570  25.090  1.00  0.00    -0.273 OA
HETATM   20  N2  UNL     1       2.237   7.429  24.155  1.00  0.00    -0.349 N 
HETATM   21  C12 UNL     1       2.894   7.829  25.409  1.00  0.00     0.145 C 
HETATM   22  C20 UNL     1       3.020   7.141  22.987  1.00  0.00     0.145 C 
HETATM   23  C13 UNL     1       4.134   8.628  25.008  1.00  0.00     0.148 C 
HETATM   24  N3  UNL     1       4.967   7.824  24.150  1.00  0.00    -0.325 N 
HETATM   25  C14 UNL     1       6.347   8.104  24.028  1.00  0.00     0.363 C 
HETATM   26  C19 UNL     1       4.417   6.717  23.397  1.00  0.00     0.148 C 
HETATM   27  O4  UNL     1       6.832   9.053  24.672  1.00  0.00    -0.238 OA
BRANCH  25  28
HETATM   28  O5  UNL     1       7.197   7.361  23.215  1.00  0.00    -0.294 OA
BRANCH  28  29
HETATM   29  C15 UNL     1       7.605   7.749  21.938  1.00  0.00     0.061 C 
HETATM   30  C16 UNL     1       8.987   8.363  21.905  1.00  0.00     0.046 C 
HETATM   31  C17 UNL     1       7.648   6.496  21.067  1.00  0.00     0.046 C 
HETATM   32  C18 UNL     1       6.608   8.683  21.271  1.00  0.00     0.046 C 
ENDBRANCH  28  29
ENDBRANCH  25  28
ENDBRANCH  17  18
ENDBRANCH   1  17
TORSDOF 8
ENDMDL
MODEL 2
REMARK VINA RESULT: -6.537166711      3.683      5.585
REMARK  8 active torsions:
REMARK  status: ('A' for Active; 'I' for Inactive)
REMARK    1  A    between atoms: C6_6  and  O1_7 
REMARK    2  A    between atoms: O1_7  and  C7_8 
REMARK       I    between atoms: C7_8  and  N1_10 
REMARK    3  A    between atoms: N1_10  and  C8_12 
REMARK    4  A    between atoms: C8_12  and  C9_13 
REMARK    5  A    between atoms: C9_13  and  C10_14 
REMARK    6  A    between atoms: C10_14  and  C11_15 
REMARK       I    between atoms: C11_15  and  N2_17 
REMARK       I    between atoms: N3_20  and  C14_21 
REMARK    7  A    between atoms: C14_21  and  O5_23 
REMARK    8  A    between atoms: O5_23  and  C15_24 
ROOT
HETATM    1  C9  UNL     1       6.374   8.345  24.168  1.00  0.00     0.029 C 
ENDROOT
BRANCH   1   2
HETATM    2  C8  UNL     1       4.989   7.837  23.893  1.00  0.00     0.125 C 
BRANCH   2   3
HETATM    3  N1  UNL     1       5.061   6.461  23.490  1.00  0.00    -0.337 N 
HETATM    4  C7  UNL     1       4.343   6.006  22.362  1.00  0.00     0.362 C 
HETATM    5  O2  UNL     1       3.614   6.693  21.627  1.00  0.00    -0.238 OA
ATOM      6  H1  UNL     1       5.635   5.807  24.021  1.00  0.00     0.164 HD
BRANCH   4   7
HETATM    7  O1  UNL     1       4.430   4.650  21.998  1.00  0.00    -0.278 OA
BRANCH   7   8
HETATM    8  C6  UNL     1       5.007   4.260  20.767  1.00  0.00     0.227 C 
HETATM    9  C5  UNL     1       4.460   2.992  20.243  1.00  0.00     0.054 C 
HETATM   10  C4  UNL     1       5.362   2.147  19.421  1.00  0.00     0.014 C 
HETATM   11  C2  UNL     1       6.710   2.051  20.104  1.00  0.00    -0.032 C 
HETATM   12  C1  UNL     1       6.481   1.478  21.482  1.00  0.00     0.016 C 
HETATM   13  C3  UNL     1       7.696   1.212  19.364  1.00  0.00     0.016 C 
HETATM   14  C21 UNL     1       7.231   3.472  20.164  1.00  0.00     0.125 C 
HETATM   15  N4  UNL     1       6.427   4.296  20.978  1.00  0.00    -0.396 N 
ATOM     16  H4  UNL     1       6.840   4.897  21.692  1.00  0.00     0.155 HD
ENDBRANCH   7   8
ENDBRANCH   4   7
ENDBRANCH   2   3
ENDBRANCH   1   2
BRANCH   1  17
HETATM   17  C10 UNL     1       7.371   7.871  23.130  1.00  0.00     0.104 C 
BRANCH  17  18
HETATM   18  C11 UNL     1       7.908   9.070  22.441  1.00  0.00     0.219 C 
HETATM   19  O3  UNL     1       8.730   9.837  23.027  1.00  0.00    -0.273 OA
HETATM   20  N2  UNL     1       7.478   9.333  21.110  1.00  0.00    -0.349 N 
HETATM   21  C12 UNL     1       7.981  10.507  20.380  1.00  0.00     0.145 C 
HETATM   22  C20 UNL     1       6.546   8.436  20.489  1.00  0.00     0.145 C 
HETATM   23  C13 UNL     1       6.836  10.973  19.479  1.00  0.00     0.148 C 
HETATM   24  N3  UNL     1       6.427   9.890  18.622  1.00  0.00    -0.325 N 
HETATM   25  C14 UNL     1       5.759  10.155  17.405  1.00  0.00     0.363 C 
HETATM   26  C19 UNL     1       6.689   8.512  18.981  1.00  0.00     0.148 C 
HETATM   27  O4  UNL     1       5.529  11.337  17.085  1.00  0.00    -0.238 OA
BRANCH  25  28
HETATM   28  O5  UNL     1       5.342   9.149  16.540  1.00  0.00    -0.294 OA
BRANCH  28  29
HETATM   29  C15 UNL     1       5.988   8.816  15.349  1.00  0.00     0.061 C 
HETATM   30  C16 UNL     1       7.478   9.077  15.374  1.00  0.00     0.046 C 
HETATM   31  C17 UNL     1       5.798   7.318  15.124  1.00  0.00     0.046 C 
HETATM   32  C18 UNL     1       5.364   9.498  14.143  1.00  0.00     0.046 C 
ENDBRANCH  28  29
ENDBRANCH  25  28
ENDBRANCH  17  18
ENDBRANCH   1  17
TORSDOF 8
ENDMDL
MODEL 3
REMARK VINA RESULT: -6.443637451      3.221      6.956
REMARK  8 active torsions:
REMARK  status: ('A' for Active; 'I' for Inactive)
REMARK    1  A    between atoms: C6_6  and  O1_7 
REMARK    2  A    between atoms: O1_7  and  C7_8 
REMARK       I    between atoms: C7_8  and  N1_10 
REMARK    3  A    between atoms: N1_10  and  C8_12 
REMARK    4  A    between atoms: C8_12  and  C9_13 
REMARK    5  A    between atoms: C9_13  and  C10_14 
REMARK    6  A    between atoms: C10_14  and  C11_15 
REMARK       I    between atoms: C11_15  and  N2_17 
REMARK       I    between atoms: N3_20  and  C14_21 
REMARK    7  A    between atoms: C14_21  and  O5_23 
REMARK    8  A    between atoms: O5_23  and  C15_24 
ROOT
HETATM    1  C9  UNL     1       4.585  10.704  17.735  1.00  0.00     0.029 C 
ENDROOT
BRANCH   1   2
HETATM    2  C8  UNL     1       5.672  11.128  18.679  1.00  0.00     0.125 C 
BRANCH   2   3
HETATM    3  N1  UNL     1       6.576  10.031  18.884  1.00  0.00    -0.337 N 
HETATM    4  C7  UNL     1       7.884  10.260  19.363  1.00  0.00     0.362 C 
HETATM    5  O2  UNL     1       8.379  11.362  19.653  1.00  0.00    -0.238 OA
ATOM      6  H1  UNL     1       6.271   9.079  18.681  1.00  0.00     0.164 HD
BRANCH   4   7
HETATM    7  O1  UNL     1       8.747   9.163  19.546  1.00  0.00    -0.278 OA
BRANCH   7   8
HETATM    8  C6  UNL     1       8.869   8.533  20.806  1.00  0.00     0.227 C 
HETATM    9  C5  UNL     1       8.146   7.247  20.887  1.00  0.00     0.054 C 
HETATM   10  C4  UNL     1       7.615   6.844  22.214  1.00  0.00     0.014 C 
HETATM   11  C2  UNL     1       6.925   8.030  22.853  1.00  0.00    -0.032 C 
HETATM   12  C1  UNL     1       5.836   8.483  21.911  1.00  0.00     0.016 C 
HETATM   13  C3  UNL     1       6.344   7.732  24.193  1.00  0.00     0.016 C 
HETATM   14  C21 UNL     1       8.003   9.081  23.015  1.00  0.00     0.125 C 
HETATM   15  N4  UNL     1       8.498   9.528  21.772  1.00  0.00    -0.396 N 
ATOM     16  H4  UNL     1       8.589  10.524  21.568  1.00  0.00     0.155 HD
ENDBRANCH   7   8
ENDBRANCH   4   7
ENDBRANCH   2   3
ENDBRANCH   1   2
BRANCH   1  17
HETATM   17  C10 UNL     1       4.486   9.196  17.621  1.00  0.00     0.104 C 
BRANCH  17  18
HETATM   18  C11 UNL     1       3.468   8.736  18.597  1.00  0.00     0.219 C 
HETATM   19  O3  UNL     1       2.515   9.497  18.942  1.00  0.00    -0.273 OA
HETATM   20  N2  UNL     1       3.591   7.423  19.132  1.00  0.00    -0.349 N 
HETATM   21  C12 UNL     1       2.609   6.916  20.102  1.00  0.00     0.145 C 
HETATM   22  C20 UNL     1       4.688   6.599  18.712  1.00  0.00     0.145 C 
HETATM   23  C13 UNL     1       3.378   5.992  21.047  1.00  0.00     0.148 C 
HETATM   24  N3  UNL     1       4.025   4.955  20.283  1.00  0.00    -0.325 N 
HETATM   25  C14 UNL     1       4.382   3.733  20.897  1.00  0.00     0.363 C 
HETATM   26  C19 UNL     1       4.323   5.136  18.878  1.00  0.00     0.148 C 
HETATM   27  O4  UNL     1       4.129   3.565  22.106  1.00  0.00    -0.238 OA
BRANCH  25  28
HETATM   28  O5  UNL     1       5.008   2.700  20.209  1.00  0.00    -0.294 OA
BRANCH  28  29
HETATM   29  C15 UNL     1       6.343   2.331  20.383  1.00  0.00     0.061 C 
HETATM   30  C16 UNL     1       6.578   1.465  21.601  1.00  0.00     0.046 C 
HETATM   31  C17 UNL     1       6.760   1.515  19.162  1.00  0.00     0.046 C 
HETATM   32  C18 UNL     1       7.275   3.532  20.415  1.00  0.00     0.046 C 
ENDBRANCH  28  29
ENDBRANCH  25  28
ENDBRANCH  17  18
ENDBRANCH   1  17
TORSDOF 8
ENDMDL
MODEL 4
REMARK VINA RESULT: -6.380529497      2.526      3.409
REMARK  8 active torsions:
REMARK  status: ('A' for Active; 'I' for Inactive)
REMARK    1  A    between atoms: C6_6  and  O1_7 
REMARK    2  A    between atoms: O1_7  and  C7_8 
REMARK       I    between atoms: C7_8  and  N1_10 
REMARK    3  A    between atoms: N1_10  and  C8_12 
REMARK    4  A    between atoms: C8_12  and  C9_13 
REMARK    5  A    between atoms: C9_13  and  C10_14 
REMARK    6  A    between atoms: C10_14  and  C11_15 
REMARK       I    between atoms: C11_15  and  N2_17 
REMARK       I    between atoms: N3_20  and  C14_21 
REMARK    7  A    between atoms: C14_21  and  O5_23 
REMARK    8  A    between atoms: O5_23  and  C15_24 
ROOT
HETATM    1  C9  UNL     1       2.192   6.499  24.076  1.00  0.00     0.029 C 
ENDROOT
BRANCH   1   2
HETATM    2  C8  UNL     1       1.596   5.214  23.581  1.00  0.00     0.125 C 
BRANCH   2   3
HETATM    3  N1  UNL     1       2.311   4.779  22.414  1.00  0.00    -0.337 N 
HETATM    4  C7  UNL     1       3.134   3.633  22.462  1.00  0.00     0.362 C 
HETATM    5  O2  UNL     1       3.325   2.906  23.452  1.00  0.00    -0.238 OA
ATOM      6  H1  UNL     1       2.223   5.302  21.543  1.00  0.00     0.164 HD
BRANCH   4   7
HETATM    7  O1  UNL     1       3.826   3.239  21.302  1.00  0.00    -0.278 OA
BRANCH   7   8
HETATM    8  C6  UNL     1       5.235   3.122  21.297  1.00  0.00     0.227 C 
HETATM    9  C5  UNL     1       5.863   3.700  20.091  1.00  0.00     0.054 C 
HETATM   10  C4  UNL     1       7.131   3.088  19.621  1.00  0.00     0.014 C 
HETATM   11  C2  UNL     1       6.988   1.581  19.633  1.00  0.00    -0.032 C 
HETATM   12  C1  UNL     1       5.817   1.229  18.748  1.00  0.00     0.016 C 
HETATM   13  C3  UNL     1       8.208   0.861  19.167  1.00  0.00     0.016 C 
HETATM   14  C21 UNL     1       6.731   1.214  21.079  1.00  0.00     0.125 C 
HETATM   15  N4  UNL     1       5.508   1.735  21.549  1.00  0.00    -0.396 N 
ATOM     16  H4  UNL     1       4.841   1.148  22.049  1.00  0.00     0.155 HD
ENDBRANCH   7   8
ENDBRANCH   4   7
ENDBRANCH   2   3
ENDBRANCH   1   2
BRANCH   1  17
HETATM   17  C10 UNL     1       2.901   7.260  22.974  1.00  0.00     0.104 C 
BRANCH  17  18
HETATM   18  C11 UNL     1       4.323   7.404  23.369  1.00  0.00     0.219 C 
HETATM   19  O3  UNL     1       4.688   7.181  24.562  1.00  0.00    -0.273 OA
HETATM   20  N2  UNL     1       5.263   7.797  22.375  1.00  0.00    -0.349 N 
HETATM   21  C12 UNL     1       6.687   7.953  22.711  1.00  0.00     0.145 C 
HETATM   22  C20 UNL     1       4.803   8.040  21.037  1.00  0.00     0.145 C 
HETATM   23  C13 UNL     1       7.212   9.089  21.833  1.00  0.00     0.148 C 
HETATM   24  N3  UNL     1       6.977   8.773  20.447  1.00  0.00    -0.325 N 
HETATM   25  C14 UNL     1       7.757   9.376  19.434  1.00  0.00     0.363 C 
HETATM   26  C19 UNL     1       5.944   7.837  20.058  1.00  0.00     0.148 C 
HETATM   27  O4  UNL     1       8.651  10.182  19.757  1.00  0.00    -0.238 OA
BRANCH  25  28
HETATM   28  O5  UNL     1       7.574   9.107  18.083  1.00  0.00    -0.294 OA
BRANCH  28  29
HETATM   29  C15 UNL     1       6.737   9.841  17.240  1.00  0.00     0.061 C 
HETATM   30  C16 UNL     1       7.449  10.427  16.041  1.00  0.00     0.046 C 
HETATM   31  C17 UNL     1       5.668   8.889  16.708  1.00  0.00     0.046 C 
HETATM   32  C18 UNL     1       5.985  10.934  17.980  1.00  0.00     0.046 C 
ENDBRANCH  28  29
ENDBRANCH  25  28
ENDBRANCH  17  18
ENDBRANCH   1  17
TORSDOF 8
ENDMDL
MODEL 5
REMARK VINA RESULT: -6.342441055      4.647      6.548
REMARK  8 active torsions:
REMARK  status: ('A' for Active; 'I' for Inactive)
REMARK    1  A    between atoms: C6_6  and  O1_7 
REMARK    2  A    between atoms: O1_7  and  C7_8 
REMARK       I    between atoms: C7_8  and  N1_10 
REMARK    3  A    between atoms: N1_10  and  C8_12 
REMARK    4  A    between atoms: C8_12  and  C9_13 
REMARK    5  A    between atoms: C9_13  and  C10_14 
REMARK    6  A    between atoms: C10_14  and  C11_15 
REMARK       I    between atoms: C11_15  and  N2_17 
REMARK       I    between atoms: N3_20  and  C14_21 
REMARK    7  A    between atoms: C14_21  and  O5_23 
REMARK    8  A    between atoms: O5_23  and  C15_24 
ROOT
HETATM    1  C9  UNL     1       7.417   7.192  21.932  1.00  0.00     0.029 C 
ENDROOT
BRANCH   1   2
HETATM    2  C8  UNL     1       6.018   7.009  21.419  1.00  0.00     0.125 C 
BRANCH   2   3
HETATM    3  N1  UNL     1       5.515   5.738  21.860  1.00  0.00    -0.337 N 
HETATM    4  C7  UNL     1       4.432   5.126  21.193  1.00  0.00     0.362 C 
HETATM    5  O2  UNL     1       3.825   5.576  20.207  1.00  0.00    -0.238 OA
ATOM      6  H1  UNL     1       5.943   5.275  22.662  1.00  0.00     0.164 HD
BRANCH   4   7
HETATM    7  O1  UNL     1       3.958   3.884  21.656  1.00  0.00    -0.278 OA
BRANCH   7   8
HETATM    8  C6  UNL     1       4.427   2.671  21.100  1.00  0.00     0.227 C 
HETATM    9  C5  UNL     1       5.509   2.048  21.891  1.00  0.00     0.054 C 
HETATM   10  C4  UNL     1       6.513   1.239  21.155  1.00  0.00     0.014 C 
HETATM   11  C2  UNL     1       6.952   1.996  19.920  1.00  0.00    -0.032 C 
HETATM   12  C1  UNL     1       7.504   3.326  20.375  1.00  0.00     0.016 C 
HETATM   13  C3  UNL     1       7.973   1.274  19.108  1.00  0.00     0.016 C 
HETATM   14  C21 UNL     1       5.698   2.163  19.086  1.00  0.00     0.125 C 
HETATM   15  N4  UNL     1       4.737   2.970  19.730  1.00  0.00    -0.396 N 
ATOM     16  H4  UNL     1       4.279   3.738  19.240  1.00  0.00     0.155 HD
ENDBRANCH   7   8
ENDBRANCH   4   7
ENDBRANCH   2   3
ENDBRANCH   1   2
BRANCH   1  17
HETATM   17  C10 UNL     1       8.343   7.758  20.874  1.00  0.00     0.104 C 
BRANCH  17  18
HETATM   18  C11 UNL     1       8.062   9.210  20.761  1.00  0.00     0.219 C 
HETATM   19  O3  UNL     1       8.283   9.989  21.737  1.00  0.00    -0.273 OA
HETATM   20  N2  UNL     1       7.540   9.702  19.532  1.00  0.00    -0.349 N 
HETATM   21  C12 UNL     1       7.245  11.133  19.364  1.00  0.00     0.145 C 
HETATM   22  C20 UNL     1       7.305   8.782  18.456  1.00  0.00     0.145 C 
HETATM   23  C13 UNL     1       6.033  11.215  18.435  1.00  0.00     0.148 C 
HETATM   24  N3  UNL     1       6.328  10.536  17.200  1.00  0.00    -0.325 N 
HETATM   25  C14 UNL     1       5.614  10.855  16.022  1.00  0.00     0.363 C 
HETATM   26  C19 UNL     1       7.356   9.519  17.131  1.00  0.00     0.148 C 
HETATM   27  O4  UNL     1       4.729  11.730  16.068  1.00  0.00    -0.238 OA
BRANCH  25  28
HETATM   28  O5  UNL     1       5.857  10.232  14.802  1.00  0.00    -0.294 OA
BRANCH  28  29
HETATM   29  C15 UNL     1       6.709  10.734  13.817  1.00  0.00     0.061 C 
HETATM   30  C16 UNL     1       7.896   9.841  13.530  1.00  0.00     0.046 C 
HETATM   31  C17 UNL     1       5.905  10.842  12.523  1.00  0.00     0.046 C 
HETATM   32  C18 UNL     1       7.185  12.144  14.126  1.00  0.00     0.046 C 
ENDBRANCH  28  29
ENDBRANCH  25  28
ENDBRANCH  17  18
ENDBRANCH   1  17
TORSDOF 8
ENDMDL
