MODEL 1
REMARK VINA RESULT: -7.745360986      0.000      0.000
REMARK  6 active torsions:
REMARK  status: ('A' for Active; 'I' for Inactive)
REMARK       I    between atoms: N1_2  and  C2_4 
REMARK       I    between atoms: C2_4  and  N2_6 
REMARK       I    between atoms: N2_6  and  C3_8 
REMARK    1  A    between atoms: C3_8  and  C4_10 
REMARK       I    between atoms: N3_17  and  C11_18 
REMARK    2  A    between atoms: C11_18  and  C12_20 
REMARK    3  A    between atoms: C12_20  and  C13_21 
REMARK    4  A    between atoms: C12_20  and  N4_25 
REMARK    5  A    between atoms: C13_21  and  C14_22 
REMARK       I    between atoms: N4_25  and  C15_27 
REMARK    6  A    between atoms: C15_27  and  C16_29 
ROOT
HETATM    1  C4  UNL     1      13.610  -8.836  21.360  1.00  0.00     0.101 C 
HETATM    2  C5  UNL     1      12.551  -9.887  21.560  1.00  0.00     0.018 C 
HETATM    3  C6  UNL     1      11.255  -9.291  22.037  1.00  0.00     0.026 C 
HETATM    4  C7  UNL     1      11.006  -7.889  21.626  1.00  0.00     0.087 C 
HETATM    5  C8  UNL     1      10.828  -7.845  20.126  1.00  0.00     0.027 C 
HETATM    6  C9  UNL     1      12.247  -7.806  19.612  1.00  0.00     0.028 C 
HETATM    7  C10 UNL     1      13.112  -7.546  20.853  1.00  0.00     0.100 C 
HETATM    8  N3  UNL     1      12.152  -6.983  21.790  1.00  0.00    -0.340 N 
HETATM    9  C11 UNL     1      12.220  -5.829  22.596  1.00  0.00     0.243 C 
HETATM   10  O3  UNL     1      11.196  -5.487  23.241  1.00  0.00    -0.271 OA
ENDROOT
BRANCH   9  11
HETATM   11  C12 UNL     1      13.414  -4.991  22.722  1.00  0.00     0.186 C 
BRANCH  11  12
HETATM   12  C13 UNL     1      13.137  -3.905  23.753  1.00  0.00     0.147 C 
BRANCH  12  13
HETATM   13  C14 UNL     1      14.292  -3.407  24.480  1.00  0.00     0.175 C 
HETATM   14  O4  UNL     1      15.452  -3.758  24.125  1.00  0.00    -0.648 OA
HETATM   15  O5  UNL     1      14.120  -2.554  25.554  1.00  0.00    -0.648 OA
ENDBRANCH  12  13
ENDBRANCH  11  12
BRANCH  11  16
HETATM   16  N4  UNL     1      13.698  -4.301  21.446  1.00  0.00    -0.345 N 
HETATM   17  C15 UNL     1      14.913  -4.498  20.752  1.00  0.00     0.253 C 
HETATM   18  O6  UNL     1      15.755  -5.294  21.275  1.00  0.00    -0.270 OA
ATOM     19  H4  UNL     1      12.999  -3.668  21.056  1.00  0.00     0.163 HD
BRANCH  17  20
HETATM   20  C16 UNL     1      15.280  -3.875  19.508  1.00  0.00     0.141 C 
HETATM   21  C17 UNL     1      14.163  -3.811  18.459  1.00  0.00     0.048 C 
HETATM   22  C18 UNL     1      14.913  -3.570  17.157  1.00  0.00     0.010 C 
HETATM   23  C19 UNL     1      16.356  -3.628  17.560  1.00  0.00     0.013 C 
HETATM   24  C20 UNL     1      16.618  -2.415  18.437  1.00  0.00     0.174 C 
HETATM   25  C21 UNL     1      16.296  -4.685  18.678  1.00  0.00     0.054 C 
HETATM   26  O7  UNL     1      15.930  -2.667  19.623  1.00  0.00    -0.370 OA
ENDBRANCH  17  20
ENDBRANCH  11  16
ENDBRANCH   9  11
BRANCH   1  27
HETATM   27  C3  UNL     1      14.806  -9.278  20.635  1.00  0.00     0.231 C 
HETATM   28  N2  UNL     1      15.057 -10.598  20.201  1.00  0.00    -0.279 N 
HETATM   29  C2  UNL     1      16.188 -11.004  19.484  1.00  0.00     0.322 C 
ATOM     30  H2  UNL     1      14.362 -11.309  20.427  1.00  0.00     0.173 HD
HETATM   31  N1  UNL     1      17.281 -10.239  19.052  1.00  0.00    -0.347 N 
HETATM   32  O1  UNL     1      16.226 -12.256  19.182  1.00  0.00    -0.247 OA
HETATM   33  C1  UNL     1      18.352 -10.918  18.308  1.00  0.00     0.151 C 
ATOM     34  H1  UNL     1      17.331  -9.239  19.249  1.00  0.00     0.163 HD
HETATM   35  O2  UNL     1      15.657  -8.347  20.400  1.00  0.00    -0.273 OA
ENDBRANCH   1  27
TORSDOF 6
ENDMDL
MODEL 2
REMARK VINA RESULT: -7.560029922      2.332      6.405
REMARK  6 active torsions:
REMARK  status: ('A' for Active; 'I' for Inactive)
REMARK       I    between atoms: N1_2  and  C2_4 
REMARK       I    between atoms: C2_4  and  N2_6 
REMARK       I    between atoms: N2_6  and  C3_8 
REMARK    1  A    between atoms: C3_8  and  C4_10 
REMARK       I    between atoms: N3_17  and  C11_18 
REMARK    2  A    between atoms: C11_18  and  C12_20 
REMARK    3  A    between atoms: C12_20  and  C13_21 
REMARK    4  A    between atoms: C12_20  and  N4_25 
REMARK    5  A    between atoms: C13_21  and  C14_22 
REMARK       I    between atoms: N4_25  and  C15_27 
REMARK    6  A    between atoms: C15_27  and  C16_29 
ROOT
HETATM    1  C4  UNL     1      12.689  -4.102  22.608  1.00  0.00     0.101 C 
HETATM    2  C5  UNL     1      11.213  -3.829  22.706  1.00  0.00     0.018 C 
HETATM    3  C6  UNL     1      10.481  -4.253  21.462  1.00  0.00     0.026 C 
HETATM    4  C7  UNL     1      11.100  -5.368  20.706  1.00  0.00     0.087 C 
HETATM    5  C8  UNL     1      11.028  -6.623  21.545  1.00  0.00     0.027 C 
HETATM    6  C9  UNL     1      12.227  -6.498  22.454  1.00  0.00     0.028 C 
HETATM    7  C10 UNL     1      13.042  -5.332  21.878  1.00  0.00     0.100 C 
HETATM    8  N3  UNL     1      12.552  -5.253  20.510  1.00  0.00    -0.340 N 
HETATM    9  C11 UNL     1      13.245  -5.178  19.286  1.00  0.00     0.243 C 
HETATM   10  O3  UNL     1      12.585  -5.241  18.218  1.00  0.00    -0.271 OA
ENDROOT
BRANCH   9  11
HETATM   11  C12 UNL     1      14.699  -5.040  19.178  1.00  0.00     0.186 C 
BRANCH  11  12
HETATM   12  C13 UNL     1      15.008  -3.833  18.303  1.00  0.00     0.147 C 
BRANCH  12  13
HETATM   13  C14 UNL     1      16.242  -3.127  18.604  1.00  0.00     0.175 C 
HETATM   14  O4  UNL     1      17.199  -3.747  19.147  1.00  0.00    -0.648 OA
HETATM   15  O5  UNL     1      16.365  -1.785  18.297  1.00  0.00    -0.648 OA
ENDBRANCH  12  13
ENDBRANCH  11  12
BRANCH  11  16
HETATM   16  N4  UNL     1      15.280  -6.217  18.498  1.00  0.00    -0.345 N 
HETATM   17  C15 UNL     1      15.688  -7.363  19.218  1.00  0.00     0.253 C 
HETATM   18  O6  UNL     1      15.534  -7.337  20.480  1.00  0.00    -0.270 OA
ATOM     19  H4  UNL     1      15.389  -6.202  17.484  1.00  0.00     0.163 HD
BRANCH  17  20
HETATM   20  C16 UNL     1      16.261  -8.553  18.648  1.00  0.00     0.141 C 
HETATM   21  C17 UNL     1      15.250  -9.636  18.253  1.00  0.00     0.048 C 
HETATM   22  C18 UNL     1      16.101 -10.893  18.146  1.00  0.00     0.010 C 
HETATM   23  C19 UNL     1      17.462 -10.442  18.585  1.00  0.00     0.013 C 
HETATM   24  C20 UNL     1      17.973  -9.484  17.521  1.00  0.00     0.174 C 
HETATM   25  C21 UNL     1      17.083  -9.392  19.646  1.00  0.00     0.054 C 
HETATM   26  O7  UNL     1      17.185  -8.342  17.649  1.00  0.00    -0.370 OA
ENDBRANCH  17  20
ENDBRANCH  11  16
ENDBRANCH   9  11
BRANCH   1  27
HETATM   27  C3  UNL     1      13.435  -3.985  23.865  1.00  0.00     0.231 C 
HETATM   28  N2  UNL     1      12.874  -3.670  25.122  1.00  0.00    -0.279 N 
HETATM   29  C2  UNL     1      13.590  -3.590  26.321  1.00  0.00     0.322 C 
ATOM     30  H2  UNL     1      11.871  -3.487  25.158  1.00  0.00     0.173 HD
HETATM   31  N1  UNL     1      14.960  -3.790  26.547  1.00  0.00    -0.347 N 
HETATM   32  O1  UNL     1      12.890  -3.288  27.360  1.00  0.00    -0.247 OA
HETATM   33  C1  UNL     1      15.465  -3.642  27.920  1.00  0.00     0.151 C 
ATOM     34  H1  UNL     1      15.588  -4.031  25.780  1.00  0.00     0.163 HD
HETATM   35  O2  UNL     1      14.695  -4.201  23.755  1.00  0.00    -0.273 OA
ENDBRANCH   1  27
TORSDOF 6
ENDMDL
MODEL 3
REMARK VINA RESULT: -7.497860951      2.330      6.471
REMARK  6 active torsions:
REMARK  status: ('A' for Active; 'I' for Inactive)
REMARK       I    between atoms: N1_2  and  C2_4 
REMARK       I    between atoms: C2_4  and  N2_6 
REMARK       I    between atoms: N2_6  and  C3_8 
REMARK    1  A    between atoms: C3_8  and  C4_10 
REMARK       I    between atoms: N3_17  and  C11_18 
REMARK    2  A    between atoms: C11_18  and  C12_20 
REMARK    3  A    between atoms: C12_20  and  C13_21 
REMARK    4  A    between atoms: C12_20  and  N4_25 
REMARK    5  A    between atoms: C13_21  and  C14_22 
REMARK       I    between atoms: N4_25  and  C15_27 
REMARK    6  A    between atoms: C15_27  and  C16_29 
ROOT
HETATM    1  C4  UNL     1      12.874  -4.177  22.491  1.00  0.00     0.101 C 
HETATM    2  C5  UNL     1      11.410  -3.832  22.514  1.00  0.00     0.018 C 
HETATM    3  C6  UNL     1      10.708  -4.283  21.262  1.00  0.00     0.026 C 
HETATM    4  C7  UNL     1      11.302  -5.462  20.587  1.00  0.00     0.087 C 
HETATM    5  C8  UNL     1      11.138  -6.669  21.481  1.00  0.00     0.027 C 
HETATM    6  C9  UNL     1      12.305  -6.554  22.432  1.00  0.00     0.028 C 
HETATM    7  C10 UNL     1      13.197  -5.456  21.836  1.00  0.00     0.100 C 
HETATM    8  N3  UNL     1      12.765  -5.423  20.447  1.00  0.00    -0.340 N 
HETATM    9  C11 UNL     1      13.509  -5.441  19.250  1.00  0.00     0.243 C 
HETATM   10  O3  UNL     1      12.889  -5.526  18.159  1.00  0.00    -0.271 OA
ENDROOT
BRANCH   9  11
HETATM   11  C12 UNL     1      14.971  -5.375  19.197  1.00  0.00     0.186 C 
BRANCH  11  12
HETATM   12  C13 UNL     1      15.372  -4.159  18.374  1.00  0.00     0.147 C 
BRANCH  12  13
HETATM   13  C14 UNL     1      16.428  -3.331  18.932  1.00  0.00     0.175 C 
HETATM   14  O4  UNL     1      16.133  -2.395  19.727  1.00  0.00    -0.648 OA
HETATM   15  O5  UNL     1      17.747  -3.569  18.593  1.00  0.00    -0.648 OA
ENDBRANCH  12  13
ENDBRANCH  11  12
BRANCH  11  16
HETATM   16  N4  UNL     1      15.515  -6.559  18.498  1.00  0.00    -0.345 N 
HETATM   17  C15 UNL     1      16.071  -7.647  19.207  1.00  0.00     0.253 C 
HETATM   18  O6  UNL     1      16.084  -7.564  20.476  1.00  0.00    -0.270 OA
ATOM     19  H4  UNL     1      15.489  -6.590  17.479  1.00  0.00     0.163 HD
BRANCH  17  20
HETATM   20  C16 UNL     1      16.623  -8.838  18.619  1.00  0.00     0.141 C 
HETATM   21  C17 UNL     1      17.473  -8.609  17.363  1.00  0.00     0.048 C 
HETATM   22  C18 UNL     1      17.517  -9.983  16.709  1.00  0.00     0.010 C 
HETATM   23  C19 UNL     1      16.621 -10.819  17.574  1.00  0.00     0.013 C 
HETATM   24  C20 UNL     1      17.314 -10.960  18.918  1.00  0.00     0.174 C 
HETATM   25  C21 UNL     1      15.571  -9.771  17.989  1.00  0.00     0.054 C 
HETATM   26  O7  UNL     1      17.250  -9.694  19.498  1.00  0.00    -0.370 OA
ENDBRANCH  17  20
ENDBRANCH  11  16
ENDBRANCH   9  11
BRANCH   1  27
HETATM   27  C3  UNL     1      13.575  -4.033  23.771  1.00  0.00     0.231 C 
HETATM   28  N2  UNL     1      12.964  -3.725  25.007  1.00  0.00    -0.279 N 
HETATM   29  C2  UNL     1      13.638  -3.618  26.229  1.00  0.00     0.322 C 
ATOM     30  H2  UNL     1      11.956  -3.568  25.009  1.00  0.00     0.173 HD
HETATM   31  N1  UNL     1      15.004  -3.780  26.500  1.00  0.00    -0.347 N 
HETATM   32  O1  UNL     1      12.895  -3.329  27.242  1.00  0.00    -0.247 OA
HETATM   33  C1  UNL     1      15.459  -3.610  27.888  1.00  0.00     0.151 C 
ATOM     34  H1  UNL     1      15.663  -4.009  25.756  1.00  0.00     0.163 HD
HETATM   35  O2  UNL     1      14.843  -4.215  23.705  1.00  0.00    -0.273 OA
ENDBRANCH   1  27
TORSDOF 6
ENDMDL
MODEL 4
REMARK VINA RESULT: -7.102264884      3.967      8.858
REMARK  6 active torsions:
REMARK  status: ('A' for Active; 'I' for Inactive)
REMARK       I    between atoms: N1_2  and  C2_4 
REMARK       I    between atoms: C2_4  and  N2_6 
REMARK       I    between atoms: N2_6  and  C3_8 
REMARK    1  A    between atoms: C3_8  and  C4_10 
REMARK       I    between atoms: N3_17  and  C11_18 
REMARK    2  A    between atoms: C11_18  and  C12_20 
REMARK    3  A    between atoms: C12_20  and  C13_21 
REMARK    4  A    between atoms: C12_20  and  N4_25 
REMARK    5  A    between atoms: C13_21  and  C14_22 
REMARK       I    between atoms: N4_25  and  C15_27 
REMARK    6  A    between atoms: C15_27  and  C16_29 
ROOT
HETATM    1  C4  UNL     1      15.130  -9.369  20.989  1.00  0.00     0.101 C 
HETATM    2  C5  UNL     1      15.771  -9.516  19.636  1.00  0.00     0.018 C 
HETATM    3  C6  UNL     1      15.595 -10.903  19.081  1.00  0.00     0.026 C 
HETATM    4  C7  UNL     1      14.386 -11.627  19.543  1.00  0.00     0.087 C 
HETATM    5  C8  UNL     1      13.162 -10.925  19.002  1.00  0.00     0.027 C 
HETATM    6  C9  UNL     1      12.941  -9.807  19.992  1.00  0.00     0.028 C 
HETATM    7  C10 UNL     1      13.878 -10.125  21.166  1.00  0.00     0.100 C 
HETATM    8  N3  UNL     1      14.130 -11.547  20.988  1.00  0.00    -0.340 N 
HETATM    9  C11 UNL     1      14.068 -12.615  21.904  1.00  0.00     0.243 C 
HETATM   10  O3  UNL     1      14.217 -13.786  21.472  1.00  0.00    -0.271 OA
ENDROOT
BRANCH   9  11
HETATM   11  C12 UNL     1      13.831 -12.446  23.340  1.00  0.00     0.186 C 
BRANCH  11  12
HETATM   12  C13 UNL     1      14.837 -13.298  24.101  1.00  0.00     0.147 C 
BRANCH  12  13
HETATM   13  C14 UNL     1      14.296 -14.453  24.798  1.00  0.00     0.175 C 
HETATM   14  O4  UNL     1      14.227 -14.444  26.059  1.00  0.00    -0.648 OA
HETATM   15  O5  UNL     1      13.862 -15.553  24.083  1.00  0.00    -0.648 OA
ENDBRANCH  12  13
ENDBRANCH  11  12
BRANCH  11  16
HETATM   16  N4  UNL     1      12.488 -12.949  23.703  1.00  0.00    -0.345 N 
HETATM   17  C15 UNL     1      11.400 -12.072  23.909  1.00  0.00     0.253 C 
HETATM   18  O6  UNL     1      11.625 -10.828  23.770  1.00  0.00    -0.270 OA
ATOM     19  H4  UNL     1      12.345 -13.953  23.808  1.00  0.00     0.163 HD
BRANCH  17  20
HETATM   20  C16 UNL     1      10.062 -12.463  24.263  1.00  0.00     0.141 C 
HETATM   21  C17 UNL     1       9.784 -12.540  25.770  1.00  0.00     0.048 C 
HETATM   22  C18 UNL     1       8.530 -13.398  25.857  1.00  0.00     0.010 C 
HETATM   23  C19 UNL     1       8.280 -13.809  24.436  1.00  0.00     0.013 C 
HETATM   24  C20 UNL     1       7.890 -12.553  23.676  1.00  0.00     0.174 C 
HETATM   25  C21 UNL     1       9.725 -13.927  23.918  1.00  0.00     0.054 C 
HETATM   26  O7  UNL     1       9.057 -11.793  23.603  1.00  0.00    -0.370 OA
ENDBRANCH  17  20
ENDBRANCH  11  16
ENDBRANCH   9  11
BRANCH   1  27
HETATM   27  C3  UNL     1      15.004  -7.992  21.479  1.00  0.00     0.231 C 
HETATM   28  N2  UNL     1      13.933  -7.495  22.254  1.00  0.00    -0.279 N 
HETATM   29  C2  UNL     1      13.836  -6.187  22.742  1.00  0.00     0.322 C 
ATOM     30  H2  UNL     1      13.172  -8.138  22.474  1.00  0.00     0.173 HD
HETATM   31  N1  UNL     1      14.730  -5.118  22.584  1.00  0.00    -0.347 N 
HETATM   32  O1  UNL     1      12.776  -5.934  23.430  1.00  0.00    -0.247 OA
HETATM   33  C1  UNL     1      14.387  -3.830  23.205  1.00  0.00     0.151 C 
ATOM     34  H1  UNL     1      15.594  -5.231  22.053  1.00  0.00     0.163 HD
HETATM   35  O2  UNL     1      15.976  -7.222  21.151  1.00  0.00    -0.273 OA
ENDBRANCH   1  27
TORSDOF 6
ENDMDL
MODEL 5
REMARK VINA RESULT: -7.047644558      2.087      6.632
REMARK  6 active torsions:
REMARK  status: ('A' for Active; 'I' for Inactive)
REMARK       I    between atoms: N1_2  and  C2_4 
REMARK       I    between atoms: C2_4  and  N2_6 
REMARK       I    between atoms: N2_6  and  C3_8 
REMARK    1  A    between atoms: C3_8  and  C4_10 
REMARK       I    between atoms: N3_17  and  C11_18 
REMARK    2  A    between atoms: C11_18  and  C12_20 
REMARK    3  A    between atoms: C12_20  and  C13_21 
REMARK    4  A    between atoms: C12_20  and  N4_25 
REMARK    5  A    between atoms: C13_21  and  C14_22 
REMARK       I    between atoms: N4_25  and  C15_27 
REMARK    6  A    between atoms: C15_27  and  C16_29 
ROOT
HETATM    1  C4  UNL     1      11.755  -4.610  21.689  1.00  0.00     0.101 C 
HETATM    2  C5  UNL     1      10.437  -4.159  21.120  1.00  0.00     0.018 C 
HETATM    3  C6  UNL     1      10.238  -4.652  19.712  1.00  0.00     0.026 C 
HETATM    4  C7  UNL     1      10.932  -5.918  19.374  1.00  0.00     0.087 C 
HETATM    5  C8  UNL     1      10.319  -7.039  20.180  1.00  0.00     0.027 C 
HETATM    6  C9  UNL     1      11.029  -6.937  21.508  1.00  0.00     0.028 C 
HETATM    7  C10 UNL     1      12.183  -5.955  21.267  1.00  0.00     0.100 C 
HETATM    8  N3  UNL     1      12.331  -5.995  19.820  1.00  0.00    -0.340 N 
HETATM    9  C11 UNL     1      13.476  -6.156  19.015  1.00  0.00     0.243 C 
HETATM   10  O3  UNL     1      13.324  -6.278  17.773  1.00  0.00    -0.271 OA
ENDROOT
BRANCH   9  11
HETATM   11  C12 UNL     1      14.842  -6.199  19.539  1.00  0.00     0.186 C 
BRANCH  11  12
HETATM   12  C13 UNL     1      15.615  -5.014  18.978  1.00  0.00     0.147 C 
BRANCH  12  13
HETATM   13  C14 UNL     1      15.471  -3.760  19.697  1.00  0.00     0.175 C 
HETATM   14  O4  UNL     1      15.734  -2.671  19.113  1.00  0.00    -0.648 OA
HETATM   15  O5  UNL     1      15.049  -3.761  21.014  1.00  0.00    -0.648 OA
ENDBRANCH  12  13
ENDBRANCH  11  12
BRANCH  11  16
HETATM   16  N4  UNL     1      15.536  -7.418  19.071  1.00  0.00    -0.345 N 
HETATM   17  C15 UNL     1      15.370  -8.662  19.722  1.00  0.00     0.253 C 
HETATM   18  O6  UNL     1      14.597  -8.687  20.731  1.00  0.00    -0.270 OA
ATOM     19  H4  UNL     1      16.150  -7.360  18.258  1.00  0.00     0.163 HD
BRANCH  17  20
HETATM   20  C16 UNL     1      15.999  -9.898  19.342  1.00  0.00     0.141 C 
HETATM   21  C17 UNL     1      17.510  -9.810  19.095  1.00  0.00     0.048 C 
HETATM   22  C18 UNL     1      17.810 -11.062  18.282  1.00  0.00     0.010 C 
HETATM   23  C19 UNL     1      16.459 -11.673  18.056  1.00  0.00     0.013 C 
HETATM   24  C20 UNL     1      15.958 -12.148  19.409  1.00  0.00     0.174 C 
HETATM   25  C21 UNL     1      15.591 -10.406  17.945  1.00  0.00     0.054 C 
HETATM   26  O7  UNL     1      15.682 -10.985  20.126  1.00  0.00    -0.370 OA
ENDBRANCH  17  20
ENDBRANCH  11  16
ENDBRANCH   9  11
BRANCH   1  27
HETATM   27  C3  UNL     1      11.913  -4.421  23.135  1.00  0.00     0.231 C 
HETATM   28  N2  UNL     1      12.981  -3.739  23.758  1.00  0.00    -0.279 N 
HETATM   29  C2  UNL     1      13.108  -3.538  25.137  1.00  0.00     0.322 C 
ATOM     30  H2  UNL     1      13.716  -3.365  23.157  1.00  0.00     0.173 HD
HETATM   31  N1  UNL     1      12.253  -3.946  26.170  1.00  0.00    -0.347 N 
HETATM   32  O1  UNL     1      14.160  -2.889  25.503  1.00  0.00    -0.247 OA
HETATM   33  C1  UNL     1      12.623  -3.604  27.552  1.00  0.00     0.151 C 
ATOM     34  H1  UNL     1      11.398  -4.466  25.969  1.00  0.00     0.163 HD
HETATM   35  O2  UNL     1      10.973  -4.934  23.843  1.00  0.00    -0.273 OA
ENDBRANCH   1  27
TORSDOF 6
ENDMDL
