MODEL 1
REMARK VINA RESULT: -6.995408640      0.000      0.000
REMARK  7 active torsions:
REMARK  status: ('A' for Active; 'I' for Inactive)
REMARK       I    between atoms: N1_2  and  C2_4 
REMARK    1  A    between atoms: C2_4  and  C3_6 
REMARK    2  A    between atoms: C3_6  and  N2_7 
REMARK    3  A    between atoms: C3_6  and  C13_23 
REMARK       I    between atoms: N2_7  and  C4_9 
REMARK    4  A    between atoms: C4_9  and  C5_11 
REMARK    5  A    between atoms: N3_16  and  C10_17 
REMARK       I    between atoms: C13_23  and  N5_25 
REMARK    6  A    between atoms: C17_29  and  C18_30 
REMARK       I    between atoms: C18_30  and  N6_32 
REMARK    7  A    between atoms: N6_32  and  C19_34 
ROOT
HETATM    1  C3  UNL     1      15.008  -5.926  20.824  1.00  0.00     0.269 C 
ENDROOT
BRANCH   1   2
HETATM    2  C2  UNL     1      15.556  -7.318  20.777  1.00  0.00     0.249 C 
HETATM    3  N1  UNL     1      16.064  -7.844  19.580  1.00  0.00    -0.363 N 
HETATM    4  C1  UNL     1      16.606  -9.219  19.528  1.00  0.00     0.149 C 
ATOM      5  H1  UNL     1      16.060  -7.272  18.735  1.00  0.00     0.162 HD
HETATM    6  O1  UNL     1      15.540  -7.991  21.856  1.00  0.00    -0.271 OA
ENDBRANCH   1   2
BRANCH   1   7
HETATM    7  N2  UNL     1      15.041  -5.416  19.438  1.00  0.00    -0.339 N 
HETATM    8  C4  UNL     1      15.377  -4.076  19.171  1.00  0.00     0.228 C 
HETATM    9  O2  UNL     1      15.651  -3.319  20.161  1.00  0.00    -0.273 OA
ATOM     10  H2  UNL     1      14.818  -6.042  18.665  1.00  0.00     0.163 HD
BRANCH   8  11
HETATM   11  C5  UNL     1      15.429  -3.499  17.809  1.00  0.00     0.053 C 
HETATM   12  C6  UNL     1      14.115  -3.717  17.073  1.00  0.00     0.027 C 
HETATM   13  C7  UNL     1      15.745  -2.041  17.874  1.00  0.00     0.022 C 
HETATM   14  C8  UNL     1      15.816  -1.385  16.535  1.00  0.00     0.021 C 
HETATM   15  C9  UNL     1      16.631  -2.170  15.538  1.00  0.00     0.124 C 
HETATM   16  N3  UNL     1      17.247  -3.338  16.153  1.00  0.00    -0.370 N 
HETATM   17  C12 UNL     1      16.509  -4.214  17.059  1.00  0.00     0.142 C 
BRANCH  16  18
HETATM   18  C10 UNL     1      18.606  -3.673  15.893  1.00  0.00     0.068 C 
HETATM   19  C11 UNL     1      19.283  -3.009  14.738  1.00  0.00     0.088 C 
HETATM   20  N4  UNL     1      19.237  -4.515  16.621  1.00  0.00    -0.389 N 
ATOM     21  H42 UNL     1      18.774  -4.968  17.409  1.00  0.00     0.157 HD
ATOM     22  H41 UNL     1      20.210  -4.755  16.434  1.00  0.00     0.157 HD
ENDBRANCH  16  18
ENDBRANCH   8  11
ENDBRANCH   1   7
BRANCH   1  23
HETATM   23  C13 UNL     1      13.584  -6.000  21.278  1.00  0.00     0.252 C 
HETATM   24  O3  UNL     1      12.793  -6.582  20.525  1.00  0.00    -0.270 OA
HETATM   25  N5  UNL     1      13.192  -5.427  22.495  1.00  0.00    -0.337 N 
HETATM   26  C14 UNL     1      14.185  -4.707  23.339  1.00  0.00     0.127 C 
HETATM   27  C17 UNL     1      11.968  -5.369  23.215  1.00  0.00     0.179 C 
HETATM   28  C15 UNL     1      13.388  -3.889  24.323  1.00  0.00     0.022 C 
HETATM   29  C16 UNL     1      11.993  -3.902  23.752  1.00  0.00     0.037 C 
BRANCH  27  30
HETATM   30  C18 UNL     1      10.704  -5.581  22.526  1.00  0.00     0.240 C 
HETATM   31  O4  UNL     1       9.833  -6.449  22.738  1.00  0.00    -0.271 OA
HETATM   32  N6  UNL     1      10.389  -4.679  21.445  1.00  0.00    -0.355 N 
ATOM     33  H6  UNL     1      11.057  -3.944  21.215  1.00  0.00     0.162 HD
BRANCH  32  34
HETATM   34  C19 UNL     1       9.174  -4.770  20.676  1.00  0.00     0.076 C 
HETATM   35  C20 UNL     1       8.390  -3.478  20.736  1.00  0.00     0.032 C 
HETATM   36  C21 UNL     1       9.469  -5.031  19.208  1.00  0.00     0.032 C 
ENDBRANCH  32  34
ENDBRANCH  27  30
ENDBRANCH   1  23
TORSDOF 7
ENDMDL
MODEL 2
REMARK VINA RESULT: -6.688965736      2.416      6.251
REMARK  7 active torsions:
REMARK  status: ('A' for Active; 'I' for Inactive)
REMARK       I    between atoms: N1_2  and  C2_4 
REMARK    1  A    between atoms: C2_4  and  C3_6 
REMARK    2  A    between atoms: C3_6  and  N2_7 
REMARK    3  A    between atoms: C3_6  and  C13_23 
REMARK       I    between atoms: N2_7  and  C4_9 
REMARK    4  A    between atoms: C4_9  and  C5_11 
REMARK    5  A    between atoms: N3_16  and  C10_17 
REMARK       I    between atoms: C13_23  and  N5_25 
REMARK    6  A    between atoms: C17_29  and  C18_30 
REMARK       I    between atoms: C18_30  and  N6_32 
REMARK    7  A    between atoms: N6_32  and  C19_34 
ROOT
HETATM    1  C3  UNL     1      14.907  -5.368  18.926  1.00  0.00     0.269 C 
ENDROOT
BRANCH   1   2
HETATM    2  C2  UNL     1      15.997  -4.370  18.689  1.00  0.00     0.249 C 
HETATM    3  N1  UNL     1      15.840  -3.034  19.085  1.00  0.00    -0.363 N 
HETATM    4  C1  UNL     1      16.914  -2.045  18.851  1.00  0.00     0.149 C 
ATOM      5  H1  UNL     1      14.975  -2.740  19.539  1.00  0.00     0.162 HD
HETATM    6  O1  UNL     1      17.057  -4.785  18.120  1.00  0.00    -0.271 OA
ENDBRANCH   1   2
BRANCH   1   7
HETATM    7  N2  UNL     1      15.547  -6.700  18.907  1.00  0.00    -0.339 N 
HETATM    8  C4  UNL     1      14.913  -7.795  18.293  1.00  0.00     0.228 C 
HETATM    9  O2  UNL     1      13.772  -7.602  17.756  1.00  0.00    -0.273 OA
ATOM     10  H2  UNL     1      16.460  -6.826  19.344  1.00  0.00     0.163 HD
BRANCH   8  11
HETATM   11  C5  UNL     1      15.496  -9.155  18.237  1.00  0.00     0.053 C 
HETATM   12  C6  UNL     1      15.673  -9.613  16.796  1.00  0.00     0.027 C 
HETATM   13  C7  UNL     1      16.808  -9.188  18.950  1.00  0.00     0.022 C 
HETATM   14  C8  UNL     1      17.460 -10.530  18.937  1.00  0.00     0.021 C 
HETATM   15  C9  UNL     1      16.513 -11.649  19.292  1.00  0.00     0.124 C 
HETATM   16  N3  UNL     1      15.201 -11.138  19.669  1.00  0.00    -0.370 N 
HETATM   17  C12 UNL     1      14.535 -10.084  18.909  1.00  0.00     0.142 C 
BRANCH  16  18
HETATM   18  C10 UNL     1      14.513 -11.651  20.805  1.00  0.00     0.068 C 
HETATM   19  C11 UNL     1      13.747 -10.689  21.655  1.00  0.00     0.088 C 
HETATM   20  N4  UNL     1      14.542 -12.896  21.095  1.00  0.00    -0.389 N 
ATOM     21  H42 UNL     1      15.065 -13.553  20.515  1.00  0.00     0.157 HD
ATOM     22  H41 UNL     1      14.049 -13.264  21.909  1.00  0.00     0.157 HD
ENDBRANCH  16  18
ENDBRANCH   8  11
ENDBRANCH   1   7
BRANCH   1  23
HETATM   23  C13 UNL     1      14.340  -5.125  20.289  1.00  0.00     0.252 C 
HETATM   24  O3  UNL     1      15.144  -5.118  21.230  1.00  0.00    -0.270 OA
HETATM   25  N5  UNL     1      12.964  -4.923  20.465  1.00  0.00    -0.337 N 
HETATM   26  C14 UNL     1      12.043  -4.980  19.297  1.00  0.00     0.127 C 
HETATM   27  C17 UNL     1      12.141  -4.625  21.584  1.00  0.00     0.179 C 
HETATM   28  C15 UNL     1      10.654  -5.133  19.862  1.00  0.00     0.022 C 
HETATM   29  C16 UNL     1      10.894  -5.521  21.298  1.00  0.00     0.037 C 
BRANCH  27  30
HETATM   30  C18 UNL     1      12.609  -4.911  22.932  1.00  0.00     0.240 C 
HETATM   31  O4  UNL     1      12.953  -6.003  23.426  1.00  0.00    -0.271 OA
HETATM   32  N6  UNL     1      12.697  -3.796  23.843  1.00  0.00    -0.355 N 
ATOM     33  H6  UNL     1      12.431  -2.871  23.507  1.00  0.00     0.162 HD
BRANCH  32  34
HETATM   34  C19 UNL     1      13.144  -3.930  25.206  1.00  0.00     0.076 C 
HETATM   35  C20 UNL     1      14.176  -2.878  25.551  1.00  0.00     0.032 C 
HETATM   36  C21 UNL     1      11.995  -3.747  26.183  1.00  0.00     0.032 C 
ENDBRANCH  32  34
ENDBRANCH  27  30
ENDBRANCH   1  23
TORSDOF 7
ENDMDL
MODEL 3
REMARK VINA RESULT: -6.557222626      2.296      4.954
REMARK  7 active torsions:
REMARK  status: ('A' for Active; 'I' for Inactive)
REMARK       I    between atoms: N1_2  and  C2_4 
REMARK    1  A    between atoms: C2_4  and  C3_6 
REMARK    2  A    between atoms: C3_6  and  N2_7 
REMARK    3  A    between atoms: C3_6  and  C13_23 
REMARK       I    between atoms: N2_7  and  C4_9 
REMARK    4  A    between atoms: C4_9  and  C5_11 
REMARK    5  A    between atoms: N3_16  and  C10_17 
REMARK       I    between atoms: C13_23  and  N5_25 
REMARK    6  A    between atoms: C17_29  and  C18_30 
REMARK       I    between atoms: C18_30  and  N6_32 
REMARK    7  A    between atoms: N6_32  and  C19_34 
ROOT
HETATM    1  C3  UNL     1      13.829  -4.590  21.208  1.00  0.00     0.269 C 
ENDROOT
BRANCH   1   2
HETATM    2  C2  UNL     1      14.080  -3.988  22.556  1.00  0.00     0.249 C 
HETATM    3  N1  UNL     1      13.362  -4.426  23.678  1.00  0.00    -0.363 N 
HETATM    4  C1  UNL     1      13.606  -3.833  25.010  1.00  0.00     0.149 C 
ATOM      5  H1  UNL     1      12.663  -5.162  23.574  1.00  0.00     0.162 HD
HETATM    6  O1  UNL     1      14.963  -3.074  22.634  1.00  0.00    -0.271 OA
ENDBRANCH   1   2
BRANCH   1   7
HETATM    7  N2  UNL     1      14.922  -4.121  20.331  1.00  0.00    -0.339 N 
HETATM    8  C4  UNL     1      14.723  -3.983  18.946  1.00  0.00     0.228 C 
HETATM    9  O2  UNL     1      13.574  -4.274  18.473  1.00  0.00    -0.273 OA
ATOM     10  H2  UNL     1      15.830  -3.895  20.734  1.00  0.00     0.163 HD
BRANCH   8  11
HETATM   11  C5  UNL     1      15.772  -3.519  18.008  1.00  0.00     0.053 C 
HETATM   12  C6  UNL     1      17.160  -3.862  18.530  1.00  0.00     0.027 C 
HETATM   13  C7  UNL     1      15.566  -4.123  16.659  1.00  0.00     0.022 C 
HETATM   14  C8  UNL     1      16.588  -3.702  15.655  1.00  0.00     0.021 C 
HETATM   15  C9  UNL     1      16.835  -2.214  15.656  1.00  0.00     0.124 C 
HETATM   16  N3  UNL     1      15.936  -1.524  16.572  1.00  0.00    -0.370 N 
HETATM   17  C12 UNL     1      15.663  -2.029  17.914  1.00  0.00     0.142 C 
BRANCH  16  18
HETATM   18  C10 UNL     1      15.281  -0.319  16.188  1.00  0.00     0.068 C 
HETATM   19  C11 UNL     1      16.004   0.608  15.264  1.00  0.00     0.088 C 
HETATM   20  N4  UNL     1      14.111  -0.031  16.615  1.00  0.00    -0.389 N 
ATOM     21  H42 UNL     1      13.618  -0.663  17.245  1.00  0.00     0.157 HD
ATOM     22  H41 UNL     1      13.643   0.833  16.340  1.00  0.00     0.157 HD
ENDBRANCH  16  18
ENDBRANCH   8  11
ENDBRANCH   1   7
BRANCH   1  23
HETATM   23  C13 UNL     1      13.919  -6.078  21.338  1.00  0.00     0.252 C 
HETATM   24  O3  UNL     1      15.001  -6.535  21.728  1.00  0.00    -0.270 OA
HETATM   25  N5  UNL     1      12.821  -6.890  21.022  1.00  0.00    -0.337 N 
HETATM   26  C14 UNL     1      11.558  -6.281  20.522  1.00  0.00     0.127 C 
HETATM   27  C17 UNL     1      12.571  -8.287  21.084  1.00  0.00     0.179 C 
HETATM   28  C15 UNL     1      10.763  -7.404  19.908  1.00  0.00     0.022 C 
HETATM   29  C16 UNL     1      11.769  -8.517  19.764  1.00  0.00     0.037 C 
BRANCH  27  30
HETATM   30  C18 UNL     1      13.681  -9.228  21.114  1.00  0.00     0.240 C 
HETATM   31  O4  UNL     1      13.980 -10.058  21.996  1.00  0.00    -0.271 OA
HETATM   32  N6  UNL     1      14.573  -9.222  19.980  1.00  0.00    -0.355 N 
ATOM     33  H6  UNL     1      14.390  -8.567  19.220  1.00  0.00     0.162 HD
BRANCH  32  34
HETATM   34  C19 UNL     1      15.712 -10.098  19.874  1.00  0.00     0.076 C 
HETATM   35  C20 UNL     1      15.517 -11.119  18.774  1.00  0.00     0.032 C 
HETATM   36  C21 UNL     1      16.973  -9.323  19.527  1.00  0.00     0.032 C 
ENDBRANCH  32  34
ENDBRANCH  27  30
ENDBRANCH   1  23
TORSDOF 7
ENDMDL
MODEL 4
REMARK VINA RESULT: -6.548679714      2.449      5.587
REMARK  7 active torsions:
REMARK  status: ('A' for Active; 'I' for Inactive)
REMARK       I    between atoms: N1_2  and  C2_4 
REMARK    1  A    between atoms: C2_4  and  C3_6 
REMARK    2  A    between atoms: C3_6  and  N2_7 
REMARK    3  A    between atoms: C3_6  and  C13_23 
REMARK       I    between atoms: N2_7  and  C4_9 
REMARK    4  A    between atoms: C4_9  and  C5_11 
REMARK    5  A    between atoms: N3_16  and  C10_17 
REMARK       I    between atoms: C13_23  and  N5_25 
REMARK    6  A    between atoms: C17_29  and  C18_30 
REMARK       I    between atoms: C18_30  and  N6_32 
REMARK    7  A    between atoms: N6_32  and  C19_34 
ROOT
HETATM    1  C3  UNL     1      15.005  -5.578  19.009  1.00  0.00     0.269 C 
ENDROOT
BRANCH   1   2
HETATM    2  C2  UNL     1      16.051  -4.546  18.725  1.00  0.00     0.249 C 
HETATM    3  N1  UNL     1      15.943  -3.253  19.258  1.00  0.00    -0.363 N 
HETATM    4  C1  UNL     1      16.973  -2.231  18.979  1.00  0.00     0.149 C 
ATOM      5  H1  UNL     1      15.143  -3.015  19.846  1.00  0.00     0.162 HD
HETATM    6  O1  UNL     1      17.029  -4.891  17.988  1.00  0.00    -0.271 OA
ENDBRANCH   1   2
BRANCH   1   7
HETATM    7  N2  UNL     1      15.706  -6.877  19.074  1.00  0.00    -0.339 N 
HETATM    8  C4  UNL     1      15.111  -8.042  18.559  1.00  0.00     0.228 C 
HETATM    9  O2  UNL     1      13.952  -7.942  18.035  1.00  0.00    -0.273 OA
ATOM     10  H2  UNL     1      16.632  -6.929  19.498  1.00  0.00     0.163 HD
BRANCH   8  11
HETATM   11  C5  UNL     1      15.755  -9.375  18.590  1.00  0.00     0.053 C 
HETATM   12  C6  UNL     1      15.612 -10.018  19.963  1.00  0.00     0.027 C 
HETATM   13  C7  UNL     1      15.165 -10.262  17.544  1.00  0.00     0.022 C 
HETATM   14  C8  UNL     1      15.765 -11.629  17.513  1.00  0.00     0.021 C 
HETATM   15  C9  UNL     1      17.272 -11.611  17.557  1.00  0.00     0.124 C 
HETATM   16  N3  UNL     1      17.792 -10.250  17.515  1.00  0.00    -0.370 N 
HETATM   17  C12 UNL     1      17.213  -9.176  18.317  1.00  0.00     0.142 C 
BRANCH  16  18
HETATM   18  C10 UNL     1      18.894  -9.912  16.679  1.00  0.00     0.068 C 
HETATM   19  C11 UNL     1      19.822 -11.008  16.264  1.00  0.00     0.088 C 
HETATM   20  N4  UNL     1      19.092  -8.710  16.289  1.00  0.00    -0.389 N 
ATOM     21  H42 UNL     1      18.458  -7.962  16.573  1.00  0.00     0.157 HD
ATOM     22  H41 UNL     1      19.881  -8.468  15.691  1.00  0.00     0.157 HD
ENDBRANCH  16  18
ENDBRANCH   8  11
ENDBRANCH   1   7
BRANCH   1  23
HETATM   23  C13 UNL     1      14.410  -5.282  20.350  1.00  0.00     0.252 C 
HETATM   24  O3  UNL     1      15.184  -5.306  21.316  1.00  0.00    -0.270 OA
HETATM   25  N5  UNL     1      13.043  -5.001  20.478  1.00  0.00    -0.337 N 
HETATM   26  C14 UNL     1      12.158  -5.024  19.282  1.00  0.00     0.127 C 
HETATM   27  C17 UNL     1      12.203  -4.641  21.566  1.00  0.00     0.179 C 
HETATM   28  C15 UNL     1      10.745  -5.091  19.804  1.00  0.00     0.022 C 
HETATM   29  C16 UNL     1      10.917  -5.470  21.252  1.00  0.00     0.037 C 
BRANCH  27  30
HETATM   30  C18 UNL     1      12.612  -4.931  22.932  1.00  0.00     0.240 C 
HETATM   31  O4  UNL     1      12.838  -6.037  23.463  1.00  0.00    -0.271 OA
HETATM   32  N6  UNL     1      12.787  -3.805  23.815  1.00  0.00    -0.355 N 
ATOM     33  H6  UNL     1      12.619  -2.868  23.449  1.00  0.00     0.162 HD
BRANCH  32  34
HETATM   34  C19 UNL     1      13.189  -3.942  25.192  1.00  0.00     0.076 C 
HETATM   35  C20 UNL     1      14.180  -2.868  25.584  1.00  0.00     0.032 C 
HETATM   36  C21 UNL     1      12.001  -3.800  26.130  1.00  0.00     0.032 C 
ENDBRANCH  32  34
ENDBRANCH  27  30
ENDBRANCH   1  23
TORSDOF 7
ENDMDL
MODEL 5
REMARK VINA RESULT: -6.540881063      1.411      2.069
REMARK  7 active torsions:
REMARK  status: ('A' for Active; 'I' for Inactive)
REMARK       I    between atoms: N1_2  and  C2_4 
REMARK    1  A    between atoms: C2_4  and  C3_6 
REMARK    2  A    between atoms: C3_6  and  N2_7 
REMARK    3  A    between atoms: C3_6  and  C13_23 
REMARK       I    between atoms: N2_7  and  C4_9 
REMARK    4  A    between atoms: C4_9  and  C5_11 
REMARK    5  A    between atoms: N3_16  and  C10_17 
REMARK       I    between atoms: C13_23  and  N5_25 
REMARK    6  A    between atoms: C17_29  and  C18_30 
REMARK       I    between atoms: C18_30  and  N6_32 
REMARK    7  A    between atoms: N6_32  and  C19_34 
ROOT
HETATM    1  C3  UNL     1      15.002  -6.296  20.592  1.00  0.00     0.269 C 
ENDROOT
BRANCH   1   2
HETATM    2  C2  UNL     1      15.484  -7.709  20.696  1.00  0.00     0.249 C 
HETATM    3  N1  UNL     1      14.892  -8.724  19.930  1.00  0.00    -0.363 N 
HETATM    4  C1  UNL     1      15.364 -10.121  20.032  1.00  0.00     0.149 C 
ATOM      5  H1  UNL     1      14.125  -8.496  19.296  1.00  0.00     0.162 HD
HETATM    6  O1  UNL     1      16.442  -7.943  21.501  1.00  0.00    -0.271 OA
ENDBRANCH   1   2
BRANCH   1   7
HETATM    7  N2  UNL     1      14.999  -5.961  19.153  1.00  0.00    -0.339 N 
HETATM    8  C4  UNL     1      15.796  -4.915  18.656  1.00  0.00     0.228 C 
HETATM    9  O2  UNL     1      16.519  -4.268  19.485  1.00  0.00    -0.273 OA
ATOM     10  H2  UNL     1      14.412  -6.494  18.512  1.00  0.00     0.163 HD
BRANCH   8  11
HETATM   11  C5  UNL     1      15.843  -4.525  17.228  1.00  0.00     0.053 C 
HETATM   12  C6  UNL     1      16.824  -5.397  16.457  1.00  0.00     0.027 C 
HETATM   13  C7  UNL     1      14.483  -4.619  16.619  1.00  0.00     0.022 C 
HETATM   14  C8  UNL     1      14.448  -4.241  15.176  1.00  0.00     0.021 C 
HETATM   15  C9  UNL     1      15.188  -2.960  14.885  1.00  0.00     0.124 C 
HETATM   16  N3  UNL     1      15.677  -2.336  16.109  1.00  0.00    -0.370 N 
HETATM   17  C12 UNL     1      16.324  -3.109  17.164  1.00  0.00     0.142 C 
BRANCH  16  18
HETATM   18  C10 UNL     1      15.539  -0.935  16.324  1.00  0.00     0.068 C 
HETATM   19  C11 UNL     1      14.180  -0.407  16.655  1.00  0.00     0.088 C 
HETATM   20  N4  UNL     1      16.541  -0.146  16.239  1.00  0.00    -0.389 N 
ATOM     21  H42 UNL     1      17.468  -0.506  16.013  1.00  0.00     0.157 HD
ATOM     22  H41 UNL     1      16.442   0.857  16.393  1.00  0.00     0.157 HD
ENDBRANCH  16  18
ENDBRANCH   8  11
ENDBRANCH   1   7
BRANCH   1  23
HETATM   23  C13 UNL     1      13.596  -6.244  21.102  1.00  0.00     0.252 C 
HETATM   24  O3  UNL     1      12.738  -6.820  20.422  1.00  0.00    -0.270 OA
HETATM   25  N5  UNL     1      13.293  -5.566  22.291  1.00  0.00    -0.337 N 
HETATM   26  C14 UNL     1      14.365  -4.860  23.046  1.00  0.00     0.127 C 
HETATM   27  C17 UNL     1      12.107  -5.378  23.050  1.00  0.00     0.179 C 
HETATM   28  C15 UNL     1      13.664  -3.926  24.000  1.00  0.00     0.022 C 
HETATM   29  C16 UNL     1      12.249  -3.884  23.483  1.00  0.00     0.037 C 
BRANCH  27  30
HETATM   30  C18 UNL     1      10.804  -5.550  22.425  1.00  0.00     0.240 C 
HETATM   31  O4  UNL     1       9.838  -6.239  22.808  1.00  0.00    -0.271 OA
HETATM   32  N6  UNL     1      10.570  -4.835  21.194  1.00  0.00    -0.355 N 
ATOM     33  H6  UNL     1      11.318  -4.251  20.821  1.00  0.00     0.162 HD
BRANCH  32  34
HETATM   34  C19 UNL     1       9.329  -4.910  20.467  1.00  0.00     0.076 C 
HETATM   35  C20 UNL     1       8.495  -3.664  20.674  1.00  0.00     0.032 C 
HETATM   36  C21 UNL     1       9.572  -5.025  18.971  1.00  0.00     0.032 C 
ENDBRANCH  32  34
ENDBRANCH  27  30
ENDBRANCH   1  23
TORSDOF 7
ENDMDL
