MODEL 1
REMARK VINA RESULT: -6.642342343      0.000      0.000
REMARK  11 active torsions:
REMARK  status: ('A' for Active; 'I' for Inactive)
REMARK    1  A    between atoms: C2_2  and  C3_3 
REMARK    2  A    between atoms: C3_3  and  C4_4 
REMARK    3  A    between atoms: C8_13  and  O2_14 
REMARK    4  A    between atoms: C9_16  and  C10_17 
REMARK    5  A    between atoms: C10_17  and  C11_18 
REMARK    6  A    between atoms: C14_23  and  O3_24 
REMARK    7  A    between atoms: C16_28  and  C17_29 
REMARK    8  A    between atoms: C17_29  and  C18_30 
REMARK    9  A    between atoms: C18_30  and  C19_31 
REMARK   10  A    between atoms: C19_31  and  O6_33 
REMARK   11  A    between atoms: C21_37  and  O7_38 
ROOT
HETATM    1  C4  UNL     1      14.872  -5.414  19.480  1.00  0.00     0.159 C 
HETATM    2  N1  UNL     1      13.996  -6.361  18.802  1.00  0.00    -0.347 N 
ATOM      3  H1  UNL     1      14.396  -7.288  18.654  1.00  0.00     0.163 HD
HETATM    4  C5  UNL     1      12.690  -6.197  18.321  1.00  0.00     0.240 C 
HETATM    5  O1  UNL     1      12.066  -7.301  18.073  1.00  0.00    -0.271 OA
HETATM    6  C6  UNL     1      11.902  -5.004  18.047  1.00  0.00     0.171 C 
HETATM    7  C7  UNL     1      11.888  -4.953  16.490  1.00  0.00     0.042 C 
HETATM    8  N2  UNL     1      10.578  -4.867  18.583  1.00  0.00    -0.360 N 
ATOM      9  H2  UNL     1       9.924  -4.536  17.874  1.00  0.00     0.162 HD
HETATM   10  C8  UNL     1       9.944  -5.063  19.804  1.00  0.00     0.135 C 
HETATM   11  C9  UNL     1       9.500  -6.187  20.633  1.00  0.00     0.158 C 
HETATM   12  N3  UNL     1      10.415  -6.620  21.688  1.00  0.00    -0.356 N 
ATOM     13  H3  UNL     1       9.961  -7.125  22.450  1.00  0.00     0.162 HD
HETATM   14  C14 UNL     1      11.805  -6.470  21.847  1.00  0.00     0.185 C 
HETATM   15  C15 UNL     1      12.789  -5.517  22.148  1.00  0.00     0.222 C 
HETATM   16  O4  UNL     1      12.724  -4.419  21.471  1.00  0.00    -0.286 OA
HETATM   17  C16 UNL     1      13.965  -5.237  22.978  1.00  0.00     0.162 C 
HETATM   18  N4  UNL     1      15.186  -5.272  22.114  1.00  0.00    -0.361 N 
ATOM     19  H4  UNL     1      16.025  -4.843  22.504  1.00  0.00     0.162 HD
HETATM   20  C21 UNL     1      15.312  -5.827  20.829  1.00  0.00     0.135 C 
ENDROOT
BRANCH  17  21
HETATM   21  C17 UNL     1      13.910  -3.778  23.439  1.00  0.00     0.043 C 
BRANCH  21  22
HETATM   22  C18 UNL     1      14.828  -3.518  24.603  1.00  0.00     0.113 C 
BRANCH  22  23
HETATM   23  C19 UNL     1      14.033  -3.463  25.848  1.00  0.00     0.258 C 
HETATM   24  O5  UNL     1      14.643  -3.454  26.966  1.00  0.00    -0.265 OA
BRANCH  23  25
HETATM   25  O6  UNL     1      12.654  -3.423  25.784  1.00  0.00    -0.326 OA
HETATM   26  C20 UNL     1      11.896  -3.838  26.898  1.00  0.00     0.213 C 
ENDBRANCH  23  25
ENDBRANCH  22  23
ENDBRANCH  21  22
ENDBRANCH  17  21
BRANCH  14  27
HETATM   27  O3  UNL     1      12.320  -7.705  21.610  1.00  0.00    -0.344 OA
ATOM     28  H3  UNL     1      13.262  -7.586  21.630  1.00  0.00     0.219 HD
ENDBRANCH  14  27
BRANCH  20  29
HETATM   29  O7  UNL     1      15.959  -6.964  20.762  1.00  0.00    -0.348 OA
ATOM     30  H7  UNL     1      16.333  -7.175  21.609  1.00  0.00     0.219 HD
ENDBRANCH  20  29
BRANCH   1  31
HETATM   31  C3  UNL     1      16.072  -5.207  18.535  1.00  0.00     0.033 C 
BRANCH  31  32
HETATM   32  C2  UNL     1      16.563  -3.846  18.355  1.00  0.00    -0.002 C 
HETATM   33  C1  UNL     1      15.301  -2.951  18.216  1.00  0.00     0.005 C 
ENDBRANCH  31  32
ENDBRANCH   1  31
BRANCH  11  34
HETATM   34  C10 UNL     1       8.167  -5.953  21.279  1.00  0.00     0.037 C 
BRANCH  34  35
HETATM   35  C11 UNL     1       6.943  -6.263  20.540  1.00  0.00    -0.020 C 
HETATM   36  C12 UNL     1       5.966  -7.244  21.048  1.00  0.00     0.009 C 
HETATM   37  C13 UNL     1       6.151  -5.041  20.099  1.00  0.00     0.009 C 
ENDBRANCH  34  35
ENDBRANCH  11  34
BRANCH  10  38
HETATM   38  O2  UNL     1       9.637  -3.945  20.422  1.00  0.00    -0.348 OA
ATOM     39  H2  UNL     1       9.054  -4.067  21.162  1.00  0.00     0.219 HD
ENDBRANCH  10  38
TORSDOF 11
ENDMDL
MODEL 2
REMARK VINA RESULT: -6.591866545      3.073      4.265
REMARK  11 active torsions:
REMARK  status: ('A' for Active; 'I' for Inactive)
REMARK    1  A    between atoms: C2_2  and  C3_3 
REMARK    2  A    between atoms: C3_3  and  C4_4 
REMARK    3  A    between atoms: C8_13  and  O2_14 
REMARK    4  A    between atoms: C9_16  and  C10_17 
REMARK    5  A    between atoms: C10_17  and  C11_18 
REMARK    6  A    between atoms: C14_23  and  O3_24 
REMARK    7  A    between atoms: C16_28  and  C17_29 
REMARK    8  A    between atoms: C17_29  and  C18_30 
REMARK    9  A    between atoms: C18_30  and  C19_31 
REMARK   10  A    between atoms: C19_31  and  O6_33 
REMARK   11  A    between atoms: C21_37  and  O7_38 
ROOT
HETATM    1  C4  UNL     1      14.460  -4.721  18.689  1.00  0.00     0.159 C 
HETATM    2  N1  UNL     1      14.839  -6.008  18.122  1.00  0.00    -0.347 N 
ATOM      3  H1  UNL     1      15.783  -6.049  17.738  1.00  0.00     0.163 HD
HETATM    4  C5  UNL     1      14.108  -7.200  18.021  1.00  0.00     0.240 C 
HETATM    5  O1  UNL     1      14.821  -8.249  17.777  1.00  0.00    -0.271 OA
HETATM    6  C6  UNL     1      12.683  -7.475  18.142  1.00  0.00     0.171 C 
HETATM    7  C7  UNL     1      12.260  -7.741  16.667  1.00  0.00     0.042 C 
HETATM    8  N2  UNL     1      12.214  -8.514  19.013  1.00  0.00    -0.360 N 
ATOM      9  H2  UNL     1      11.511  -9.093  18.553  1.00  0.00     0.162 HD
HETATM   10  C8  UNL     1      12.456  -8.947  20.311  1.00  0.00     0.135 C 
HETATM   11  C9  UNL     1      13.510  -9.653  21.046  1.00  0.00     0.158 C 
HETATM   12  N3  UNL     1      14.481  -8.821  21.753  1.00  0.00    -0.356 N 
ATOM     13  H3  UNL     1      14.957  -9.297  22.520  1.00  0.00     0.162 HD
HETATM   14  C14 UNL     1      14.882  -7.483  21.573  1.00  0.00     0.185 C 
HETATM   15  C15 UNL     1      14.445  -6.162  21.753  1.00  0.00     0.222 C 
HETATM   16  O4  UNL     1      13.269  -5.898  21.290  1.00  0.00    -0.286 OA
HETATM   17  C16 UNL     1      14.812  -4.847  22.288  1.00  0.00     0.162 C 
HETATM   18  N4  UNL     1      15.074  -3.917  21.146  1.00  0.00    -0.361 N 
ATOM     19  H4  UNL     1      15.080  -2.922  21.369  1.00  0.00     0.162 HD
HETATM   20  C21 UNL     1      15.313  -4.254  19.803  1.00  0.00     0.135 C 
ENDROOT
BRANCH  17  21
HETATM   21  C17 UNL     1      13.586  -4.227  22.964  1.00  0.00     0.043 C 
BRANCH  21  22
HETATM   22  C18 UNL     1      13.954  -3.448  24.197  1.00  0.00     0.113 C 
BRANCH  22  23
HETATM   23  C19 UNL     1      13.072  -3.854  25.312  1.00  0.00     0.258 C 
HETATM   24  O5  UNL     1      12.137  -4.688  25.083  1.00  0.00    -0.265 OA
BRANCH  23  25
HETATM   25  O6  UNL     1      13.271  -3.329  26.574  1.00  0.00    -0.326 OA
HETATM   26  C20 UNL     1      12.407  -3.701  27.624  1.00  0.00     0.213 C 
ENDBRANCH  23  25
ENDBRANCH  22  23
ENDBRANCH  21  22
ENDBRANCH  17  21
BRANCH  14  27
HETATM   27  O3  UNL     1      16.124  -7.561  21.027  1.00  0.00    -0.344 OA
ATOM     28  H3  UNL     1      16.719  -7.490  21.764  1.00  0.00     0.219 HD
ENDBRANCH  14  27
BRANCH  20  29
HETATM   29  O7  UNL     1      16.554  -4.142  19.401  1.00  0.00    -0.348 OA
ATOM     30  H7  UNL     1      17.105  -3.857  20.120  1.00  0.00     0.219 HD
ENDBRANCH  20  29
BRANCH   1  31
HETATM   31  C3  UNL     1      14.476  -3.726  17.512  1.00  0.00     0.033 C 
BRANCH  31  32
HETATM   32  C2  UNL     1      13.316  -3.707  16.628  1.00  0.00    -0.002 C 
HETATM   33  C1  UNL     1      13.377  -2.351  15.872  1.00  0.00     0.005 C 
ENDBRANCH  31  32
ENDBRANCH   1  31
BRANCH  11  34
HETATM   34  C10 UNL     1      12.976 -10.642  22.038  1.00  0.00     0.037 C 
BRANCH  34  35
HETATM   35  C11 UNL     1      13.855 -11.690  22.558  1.00  0.00    -0.020 C 
HETATM   36  C12 UNL     1      13.493 -12.475  23.752  1.00  0.00     0.009 C 
HETATM   37  C13 UNL     1      14.337 -12.680  21.508  1.00  0.00     0.009 C 
ENDBRANCH  34  35
ENDBRANCH  11  34
BRANCH  10  38
HETATM   38  O2  UNL     1      11.485  -8.664  21.149  1.00  0.00    -0.348 OA
ATOM     39  H2  UNL     1      11.777  -8.556  22.047  1.00  0.00     0.219 HD
ENDBRANCH  10  38
TORSDOF 11
ENDMDL
MODEL 3
REMARK VINA RESULT: -6.591217487      2.307      5.933
REMARK  11 active torsions:
REMARK  status: ('A' for Active; 'I' for Inactive)
REMARK    1  A    between atoms: C2_2  and  C3_3 
REMARK    2  A    between atoms: C3_3  and  C4_4 
REMARK    3  A    between atoms: C8_13  and  O2_14 
REMARK    4  A    between atoms: C9_16  and  C10_17 
REMARK    5  A    between atoms: C10_17  and  C11_18 
REMARK    6  A    between atoms: C14_23  and  O3_24 
REMARK    7  A    between atoms: C16_28  and  C17_29 
REMARK    8  A    between atoms: C17_29  and  C18_30 
REMARK    9  A    between atoms: C18_30  and  C19_31 
REMARK   10  A    between atoms: C19_31  and  O6_33 
REMARK   11  A    between atoms: C21_37  and  O7_38 
ROOT
HETATM    1  C4  UNL     1      11.075  -8.410  21.726  1.00  0.00     0.159 C 
HETATM    2  N1  UNL     1      11.477  -8.449  20.327  1.00  0.00    -0.347 N 
ATOM      3  H1  UNL     1      10.709  -8.513  19.659  1.00  0.00     0.163 HD
HETATM    4  C5  UNL     1      12.757  -8.412  19.755  1.00  0.00     0.240 C 
HETATM    5  O1  UNL     1      12.773  -8.128  18.494  1.00  0.00    -0.271 OA
HETATM    6  C6  UNL     1      14.078  -8.637  20.322  1.00  0.00     0.171 C 
HETATM    7  C7  UNL     1      14.465 -10.031  19.745  1.00  0.00     0.042 C 
HETATM    8  N2  UNL     1      15.128  -7.681  20.122  1.00  0.00    -0.360 N 
ATOM      9  H2  UNL     1      16.001  -8.140  19.857  1.00  0.00     0.162 HD
HETATM   10  C8  UNL     1      15.283  -6.302  20.190  1.00  0.00     0.135 C 
HETATM   11  C9  UNL     1      14.898  -5.123  19.410  1.00  0.00     0.158 C 
HETATM   12  N3  UNL     1      13.679  -4.433  19.830  1.00  0.00    -0.356 N 
ATOM     13  H3  UNL     1      13.630  -3.458  19.532  1.00  0.00     0.162 HD
HETATM   14  C14 UNL     1      12.561  -4.864  20.569  1.00  0.00     0.185 C 
HETATM   15  C15 UNL     1      12.157  -5.204  21.868  1.00  0.00     0.222 C 
HETATM   16  O4  UNL     1      12.919  -6.045  22.485  1.00  0.00    -0.286 OA
HETATM   17  C16 UNL     1      11.132  -4.986  22.895  1.00  0.00     0.162 C 
HETATM   18  N4  UNL     1      10.293  -6.218  23.009  1.00  0.00    -0.361 N 
ATOM     19  H4  UNL     1       9.723  -6.298  23.851  1.00  0.00     0.162 HD
HETATM   20  C21 UNL     1      10.196  -7.279  22.092  1.00  0.00     0.135 C 
ENDROOT
BRANCH  17  21
HETATM   21  C17 UNL     1      11.812  -4.903  24.264  1.00  0.00     0.043 C 
BRANCH  21  22
HETATM   22  C18 UNL     1      12.243  -3.501  24.597  1.00  0.00     0.113 C 
BRANCH  22  23
HETATM   23  C19 UNL     1      13.525  -3.546  25.333  1.00  0.00     0.258 C 
HETATM   24  O5  UNL     1      14.579  -3.892  24.708  1.00  0.00    -0.265 OA
BRANCH  23  25
HETATM   25  O6  UNL     1      13.561  -3.217  26.674  1.00  0.00    -0.326 OA
HETATM   26  C20 UNL     1      12.532  -3.665  27.526  1.00  0.00     0.213 C 
ENDBRANCH  23  25
ENDBRANCH  22  23
ENDBRANCH  21  22
ENDBRANCH  17  21
BRANCH  14  27
HETATM   27  O3  UNL     1      11.561  -4.978  19.656  1.00  0.00    -0.344 OA
ATOM     28  H3  UNL     1      10.812  -5.288  20.151  1.00  0.00     0.219 HD
ENDBRANCH  14  27
BRANCH  20  29
HETATM   29  O7  UNL     1       9.097  -7.316  21.381  1.00  0.00    -0.348 OA
ATOM     30  H7  UNL     1       8.624  -6.498  21.469  1.00  0.00     0.219 HD
ENDBRANCH  20  29
BRANCH   1  31
HETATM   31  C3  UNL     1      10.393  -9.765  22.001  1.00  0.00     0.033 C 
BRANCH  31  32
HETATM   32  C2  UNL     1      11.252 -10.931  22.168  1.00  0.00    -0.002 C 
HETATM   33  C1  UNL     1      12.344 -10.516  23.191  1.00  0.00     0.005 C 
ENDBRANCH  31  32
ENDBRANCH   1  31
BRANCH  11  34
HETATM   34  C10 UNL     1      15.981  -4.089  19.330  1.00  0.00     0.037 C 
BRANCH  34  35
HETATM   35  C11 UNL     1      16.328  -3.507  18.033  1.00  0.00    -0.020 C 
HETATM   36  C12 UNL     1      16.043  -2.094  17.723  1.00  0.00     0.009 C 
HETATM   37  C13 UNL     1      17.759  -3.775  17.591  1.00  0.00     0.009 C 
ENDBRANCH  34  35
ENDBRANCH  11  34
BRANCH  10  38
HETATM   38  O2  UNL     1      15.965  -5.900  21.239  1.00  0.00    -0.348 OA
ATOM     39  H2  UNL     1      15.952  -4.959  21.363  1.00  0.00     0.219 HD
ENDBRANCH  10  38
TORSDOF 11
ENDMDL
MODEL 4
REMARK VINA RESULT: -6.527040446      3.060      4.660
REMARK  11 active torsions:
REMARK  status: ('A' for Active; 'I' for Inactive)
REMARK    1  A    between atoms: C2_2  and  C3_3 
REMARK    2  A    between atoms: C3_3  and  C4_4 
REMARK    3  A    between atoms: C8_13  and  O2_14 
REMARK    4  A    between atoms: C9_16  and  C10_17 
REMARK    5  A    between atoms: C10_17  and  C11_18 
REMARK    6  A    between atoms: C14_23  and  O3_24 
REMARK    7  A    between atoms: C16_28  and  C17_29 
REMARK    8  A    between atoms: C17_29  and  C18_30 
REMARK    9  A    between atoms: C18_30  and  C19_31 
REMARK   10  A    between atoms: C19_31  and  O6_33 
REMARK   11  A    between atoms: C21_37  and  O7_38 
ROOT
HETATM    1  C4  UNL     1      15.049  -5.296  18.411  1.00  0.00     0.159 C 
HETATM    2  N1  UNL     1      15.944  -6.428  18.213  1.00  0.00    -0.347 N 
ATOM      3  H1  UNL     1      16.937  -6.209  18.283  1.00  0.00     0.163 HD
HETATM    4  C5  UNL     1      15.651  -7.772  17.940  1.00  0.00     0.240 C 
HETATM    5  O1  UNL     1      16.632  -8.587  18.149  1.00  0.00    -0.271 OA
HETATM    6  C6  UNL     1      14.440  -8.422  17.463  1.00  0.00     0.171 C 
HETATM    7  C7  UNL     1      14.800  -8.778  15.990  1.00  0.00     0.042 C 
HETATM    8  N2  UNL     1      13.901  -9.557  18.155  1.00  0.00    -0.360 N 
ATOM      9  H2  UNL     1      13.644 -10.300  17.505  1.00  0.00     0.162 HD
HETATM   10  C8  UNL     1      13.634  -9.921  19.470  1.00  0.00     0.135 C 
HETATM   11  C9  UNL     1      14.385 -10.324  20.662  1.00  0.00     0.158 C 
HETATM   12  N3  UNL     1      14.700  -9.267  21.622  1.00  0.00    -0.356 N 
ATOM     13  H3  UNL     1      14.883  -9.605  22.567  1.00  0.00     0.162 HD
HETATM   14  C14 UNL     1      14.798  -7.869  21.484  1.00  0.00     0.185 C 
HETATM   15  C15 UNL     1      14.018  -6.716  21.307  1.00  0.00     0.222 C 
HETATM   16  O4  UNL     1      13.149  -6.774  20.354  1.00  0.00    -0.286 OA
HETATM   17  C16 UNL     1      13.773  -5.356  21.797  1.00  0.00     0.162 C 
HETATM   18  N4  UNL     1      14.281  -4.379  20.784  1.00  0.00    -0.361 N 
ATOM     19  H4  UNL     1      13.943  -3.421  20.874  1.00  0.00     0.162 HD
HETATM   20  C21 UNL     1      15.169  -4.627  19.724  1.00  0.00     0.135 C 
ENDROOT
BRANCH  17  21
HETATM   21  C17 UNL     1      12.263  -5.095  21.800  1.00  0.00     0.043 C 
BRANCH  21  22
HETATM   22  C18 UNL     1      11.895  -3.921  22.665  1.00  0.00     0.113 C 
BRANCH  22  23
HETATM   23  C19 UNL     1      12.442  -4.124  24.023  1.00  0.00     0.258 C 
HETATM   24  O5  UNL     1      11.877  -4.967  24.792  1.00  0.00    -0.265 OA
BRANCH  23  25
HETATM   25  O6  UNL     1      13.545  -3.403  24.436  1.00  0.00    -0.326 OA
HETATM   26  C20 UNL     1      13.853  -3.334  25.810  1.00  0.00     0.213 C 
ENDBRANCH  23  25
ENDBRANCH  22  23
ENDBRANCH  21  22
ENDBRANCH  17  21
BRANCH  14  27
HETATM   27  O3  UNL     1      16.129  -7.604  21.542  1.00  0.00    -0.344 OA
ATOM     28  H3  UNL     1      16.382  -7.820  22.432  1.00  0.00     0.219 HD
ENDBRANCH  14  27
BRANCH  20  29
HETATM   29  O7  UNL     1      16.390  -4.181  19.890  1.00  0.00    -0.348 OA
ATOM     30  H7  UNL     1      16.382  -3.236  19.977  1.00  0.00     0.219 HD
ENDBRANCH  20  29
BRANCH   1  31
HETATM   31  C3  UNL     1      15.346  -4.323  17.253  1.00  0.00     0.033 C 
BRANCH  31  32
HETATM   32  C2  UNL     1      14.442  -3.193  17.071  1.00  0.00    -0.002 C 
HETATM   33  C1  UNL     1      15.321  -1.918  17.193  1.00  0.00     0.005 C 
ENDBRANCH  31  32
ENDBRANCH   1  31
BRANCH  11  34
HETATM   34  C10 UNL     1      13.724 -11.429  21.430  1.00  0.00     0.037 C 
BRANCH  34  35
HETATM   35  C11 UNL     1      13.484 -11.269  22.864  1.00  0.00    -0.020 C 
HETATM   36  C12 UNL     1      12.143 -10.947  23.388  1.00  0.00     0.009 C 
HETATM   37  C13 UNL     1      14.032 -12.401  23.720  1.00  0.00     0.009 C 
ENDBRANCH  34  35
ENDBRANCH  11  34
BRANCH  10  38
HETATM   38  O2  UNL     1      12.355  -9.917  19.767  1.00  0.00    -0.348 OA
ATOM     39  H2  UNL     1      12.086 -10.655  20.302  1.00  0.00     0.219 HD
ENDBRANCH  10  38
TORSDOF 11
ENDMDL
MODEL 5
REMARK VINA RESULT: -6.526228675      3.328      5.474
REMARK  11 active torsions:
REMARK  status: ('A' for Active; 'I' for Inactive)
REMARK    1  A    between atoms: C2_2  and  C3_3 
REMARK    2  A    between atoms: C3_3  and  C4_4 
REMARK    3  A    between atoms: C8_13  and  O2_14 
REMARK    4  A    between atoms: C9_16  and  C10_17 
REMARK    5  A    between atoms: C10_17  and  C11_18 
REMARK    6  A    between atoms: C14_23  and  O3_24 
REMARK    7  A    between atoms: C16_28  and  C17_29 
REMARK    8  A    between atoms: C17_29  and  C18_30 
REMARK    9  A    between atoms: C18_30  and  C19_31 
REMARK   10  A    between atoms: C19_31  and  O6_33 
REMARK   11  A    between atoms: C21_37  and  O7_38 
ROOT
HETATM    1  C4  UNL     1      11.182  -5.818  20.192  1.00  0.00     0.159 C 
HETATM    2  N1  UNL     1      11.184  -7.052  19.418  1.00  0.00    -0.347 N 
ATOM      3  H1  UNL     1      11.469  -6.949  18.444  1.00  0.00     0.163 HD
HETATM    4  C5  UNL     1      10.854  -8.359  19.803  1.00  0.00     0.240 C 
HETATM    5  O1  UNL     1      11.271  -9.278  18.996  1.00  0.00    -0.271 OA
HETATM    6  C6  UNL     1      10.124  -8.875  20.952  1.00  0.00     0.171 C 
HETATM    7  C7  UNL     1       8.766  -9.310  20.327  1.00  0.00     0.042 C 
HETATM    8  N2  UNL     1      10.683  -9.921  21.759  1.00  0.00    -0.360 N 
ATOM      9  H2  UNL     1       9.992 -10.645  21.957  1.00  0.00     0.162 HD
HETATM   10  C8  UNL     1      11.908 -10.216  22.346  1.00  0.00     0.135 C 
HETATM   11  C9  UNL     1      13.236 -10.673  21.925  1.00  0.00     0.158 C 
HETATM   12  N3  UNL     1      14.241  -9.635  21.700  1.00  0.00    -0.356 N 
ATOM     13  H3  UNL     1      15.203  -9.967  21.768  1.00  0.00     0.162 HD
HETATM   14  C14 UNL     1      14.127  -8.263  21.408  1.00  0.00     0.185 C 
HETATM   15  C15 UNL     1      13.785  -7.031  21.987  1.00  0.00     0.222 C 
HETATM   16  O4  UNL     1      12.665  -7.012  22.631  1.00  0.00    -0.286 OA
HETATM   17  C16 UNL     1      14.208  -5.639  22.168  1.00  0.00     0.162 C 
HETATM   18  N4  UNL     1      13.331  -4.756  21.339  1.00  0.00    -0.361 N 
ATOM     19  H4  UNL     1      13.345  -3.763  21.571  1.00  0.00     0.162 HD
HETATM   20  C21 UNL     1      12.489  -5.133  20.279  1.00  0.00     0.135 C 
ENDROOT
BRANCH  17  21
HETATM   21  C17 UNL     1      13.883  -5.204  23.600  1.00  0.00     0.043 C 
BRANCH  21  22
HETATM   22  C18 UNL     1      14.253  -3.768  23.852  1.00  0.00     0.113 C 
BRANCH  22  23
HETATM   23  C19 UNL     1      13.731  -3.354  25.172  1.00  0.00     0.258 C 
HETATM   24  O5  UNL     1      14.228  -2.325  25.733  1.00  0.00    -0.265 OA
BRANCH  23  25
HETATM   25  O6  UNL     1      12.723  -4.082  25.774  1.00  0.00    -0.326 OA
HETATM   26  C20 UNL     1      12.327  -3.762  27.087  1.00  0.00     0.213 C 
ENDBRANCH  23  25
ENDBRANCH  22  23
ENDBRANCH  21  22
ENDBRANCH  17  21
BRANCH  14  27
HETATM   27  O3  UNL     1      14.474  -8.154  20.099  1.00  0.00    -0.344 OA
ATOM     28  H3  UNL     1      13.649  -8.109  19.630  1.00  0.00     0.219 HD
ENDBRANCH  14  27
BRANCH  20  29
HETATM   29  O7  UNL     1      12.917  -4.829  19.079  1.00  0.00    -0.348 OA
ATOM     30  H7  UNL     1      13.222  -3.930  19.060  1.00  0.00     0.219 HD
ENDBRANCH  20  29
BRANCH   1  31
HETATM   31  C3  UNL     1      10.117  -4.917  19.537  1.00  0.00     0.033 C 
BRANCH  31  32
HETATM   32  C2  UNL     1       9.251  -4.144  20.420  1.00  0.00    -0.002 C 
HETATM   33  C1  UNL     1       9.141  -4.961  21.736  1.00  0.00     0.005 C 
ENDBRANCH  31  32
ENDBRANCH   1  31
BRANCH  11  34
HETATM   34  C10 UNL     1      13.841 -11.673  22.863  1.00  0.00     0.037 C 
BRANCH  34  35
HETATM   35  C11 UNL     1      14.248 -12.983  22.357  1.00  0.00    -0.020 C 
HETATM   36  C12 UNL     1      14.976 -13.124  21.082  1.00  0.00     0.009 C 
HETATM   37  C13 UNL     1      14.974 -13.850  23.377  1.00  0.00     0.009 C 
ENDBRANCH  34  35
ENDBRANCH  11  34
BRANCH  10  38
HETATM   38  O2  UNL     1      11.919 -10.055  23.649  1.00  0.00    -0.348 OA
ATOM     39  H2  UNL     1      11.705  -9.172  23.926  1.00  0.00     0.219 HD
ENDBRANCH  10  38
TORSDOF 11
ENDMDL
