MODEL 1
REMARK VINA RESULT: -6.448937852      0.000      0.000
REMARK  10 active torsions:
REMARK  status: ('A' for Active; 'I' for Inactive)
REMARK    1  A    between atoms: C3_3  and  N1_4 
REMARK       I    between atoms: N1_4  and  C4_6 
REMARK    2  A    between atoms: N3_8  and  C5_10 
REMARK    3  A    between atoms: C5_10  and  C6_11 
REMARK    4  A    between atoms: C6_11  and  C7_12 
REMARK    5  A    between atoms: C7_12  and  C8_13 
REMARK    6  A    between atoms: C8_13  and  C9_14 
REMARK    7  A    between atoms: C9_14  and  C10_15 
REMARK    8  A    between atoms: C10_15  and  C11_19 
REMARK       I    between atoms: C11_19  and  N5_21 
REMARK    9  A    between atoms: N5_21  and  C12_23 
REMARK   10  A    between atoms: C12_23  and  C13_24 
REMARK       I    between atoms: C13_24  and  N6_26 
ROOT
HETATM    1  C1  UNL     1      13.052 -16.014  21.954  1.00  0.00     0.014 C 
HETATM    2  C2  UNL     1      12.750 -16.750  22.857  1.00  0.00    -0.098 C 
HETATM    3  C3  UNL     1      12.365 -17.632  23.971  1.00  0.00     0.215 C 
ENDROOT
BRANCH   3   4
HETATM    4  N1  UNL     1      13.122 -17.252  25.129  1.00  0.00    -0.354 N 
HETATM    5  C4  UNL     1      14.517 -17.424  25.207  1.00  0.00     0.184 C 
HETATM    6  N2  UNL     1      15.080 -18.664  24.874  1.00  0.00    -0.064 NA
HETATM    7  N3  UNL     1      15.262 -16.462  25.575  1.00  0.00    -0.365 N 
ATOM      8  H3  UNL     1      16.272 -16.589  25.629  1.00  0.00     0.162 HD
ATOM      9  H1  UNL     1      12.631 -16.841  25.925  1.00  0.00     0.163 HD
BRANCH   7  10
HETATM   10  C5  UNL     1      14.679 -15.204  25.912  1.00  0.00     0.122 C 
BRANCH  10  11
HETATM   11  C6  UNL     1      15.020 -14.090  24.943  1.00  0.00     0.020 C 
BRANCH  11  12
HETATM   12  C7  UNL     1      13.730 -13.470  24.516  1.00  0.00     0.002 C 
BRANCH  12  13
HETATM   13  C8  UNL     1      13.829 -12.605  23.284  1.00  0.00     0.006 C 
BRANCH  13  14
HETATM   14  C9  UNL     1      12.512 -12.336  22.645  1.00  0.00     0.062 C 
BRANCH  14  15
HETATM   15  C10 UNL     1      12.364 -10.885  22.418  1.00  0.00     0.071 C 
HETATM   16  N4  UNL     1      11.699 -10.206  23.318  1.00  0.00    -0.398 N 
ATOM     17  H42 UNL     1      11.316 -10.713  24.116  1.00  0.00     0.156 HD
ATOM     18  H41 UNL     1      11.596  -9.204  23.161  1.00  0.00     0.156 HD
BRANCH  15  19
HETATM   19  C11 UNL     1      12.910 -10.161  21.280  1.00  0.00     0.264 C 
HETATM   20  O1  UNL     1      12.126  -9.936  20.306  1.00  0.00    -0.266 OA
HETATM   21  N5  UNL     1      14.250  -9.746  21.294  1.00  0.00    -0.338 N 
ATOM     22  H5  UNL     1      14.802  -9.969  22.123  1.00  0.00     0.164 HD
BRANCH  21  23
HETATM   23  C12 UNL     1      14.919  -9.016  20.211  1.00  0.00     0.114 A 
HETATM   24  C21 UNL     1      16.364  -8.874  20.502  1.00  0.00     0.041 A 
HETATM   25  C22 UNL     1      17.166  -9.597  19.494  1.00  0.00     0.003 A 
HETATM   26  C23 UNL     1      16.216 -10.263  18.562  1.00  0.00     0.003 A 
HETATM   27  C24 UNL     1      14.850  -9.893  18.992  1.00  0.00     0.041 A 
BRANCH  23  28
HETATM   28  C13 UNL     1      14.200  -7.756  19.925  1.00  0.00     0.250 C 
HETATM   29  O2  UNL     1      14.021  -7.529  18.673  1.00  0.00    -0.270 OA
HETATM   30  N6  UNL     1      13.703  -6.809  20.807  1.00  0.00    -0.315 N 
HETATM   31  C14 UNL     1      13.760  -6.806  22.260  1.00  0.00     0.156 C 
HETATM   32  C18 UNL     1      13.001  -5.571  20.479  1.00  0.00     0.198 C 
HETATM   33  C15 UNL     1      13.032  -5.516  22.702  1.00  0.00     0.259 C 
HETATM   34  N7  UNL     1      12.079  -5.423  21.583  1.00  0.00    -0.047 N 
HETATM   35  C16 UNL     1      11.183  -6.549  21.702  1.00  0.00     0.275 C 
HETATM   36  C17 UNL     1      11.319  -4.219  21.586  1.00  0.00     0.275 C 
HETATM   37  C19 UNL     1      14.022  -4.466  20.537  1.00  0.00     0.071 C 
HETATM   38  C20 UNL     1      12.334  -5.563  19.154  1.00  0.00     0.071 C 
ENDBRANCH  23  28
ENDBRANCH  21  23
ENDBRANCH  15  19
ENDBRANCH  14  15
ENDBRANCH  13  14
ENDBRANCH  12  13
ENDBRANCH  11  12
ENDBRANCH  10  11
ENDBRANCH   7  10
ENDBRANCH   3   4
TORSDOF 10
ENDMDL
MODEL 2
REMARK VINA RESULT: -6.420761502      2.511      8.314
REMARK  10 active torsions:
REMARK  status: ('A' for Active; 'I' for Inactive)
REMARK    1  A    between atoms: C3_3  and  N1_4 
REMARK       I    between atoms: N1_4  and  C4_6 
REMARK    2  A    between atoms: N3_8  and  C5_10 
REMARK    3  A    between atoms: C5_10  and  C6_11 
REMARK    4  A    between atoms: C6_11  and  C7_12 
REMARK    5  A    between atoms: C7_12  and  C8_13 
REMARK    6  A    between atoms: C8_13  and  C9_14 
REMARK    7  A    between atoms: C9_14  and  C10_15 
REMARK    8  A    between atoms: C10_15  and  C11_19 
REMARK       I    between atoms: C11_19  and  N5_21 
REMARK    9  A    between atoms: N5_21  and  C12_23 
REMARK   10  A    between atoms: C12_23  and  C13_24 
REMARK       I    between atoms: C13_24  and  N6_26 
ROOT
HETATM    1  C1  UNL     1      14.658  -4.787  19.715  1.00  0.00     0.014 C 
HETATM    2  C2  UNL     1      14.494  -4.605  20.893  1.00  0.00    -0.098 C 
HETATM    3  C3  UNL     1      14.308  -4.404  22.340  1.00  0.00     0.215 C 
ENDROOT
BRANCH   3   4
HETATM    4  N1  UNL     1      13.291  -5.309  22.794  1.00  0.00    -0.354 N 
HETATM    5  C4  UNL     1      12.360  -4.956  23.789  1.00  0.00     0.184 C 
HETATM    6  N2  UNL     1      12.811  -4.384  24.987  1.00  0.00    -0.064 NA
HETATM    7  N3  UNL     1      11.118  -5.152  23.602  1.00  0.00    -0.365 N 
ATOM      8  H3  UNL     1      10.445  -4.894  24.324  1.00  0.00     0.162 HD
ATOM      9  H1  UNL     1      13.241  -6.241  22.381  1.00  0.00     0.163 HD
BRANCH   7  10
HETATM   10  C5  UNL     1      10.668  -5.735  22.380  1.00  0.00     0.122 C 
BRANCH  10  11
HETATM   11  C6  UNL     1       9.865  -4.791  21.509  1.00  0.00     0.020 C 
BRANCH  11  12
HETATM   12  C7  UNL     1      10.709  -4.463  20.321  1.00  0.00     0.002 C 
BRANCH  12  13
HETATM   13  C8  UNL     1      10.318  -5.186  19.057  1.00  0.00     0.006 C 
BRANCH  13  14
HETATM   14  C9  UNL     1      11.334  -6.177  18.606  1.00  0.00     0.062 C 
BRANCH  14  15
HETATM   15  C10 UNL     1      10.985  -7.511  19.133  1.00  0.00     0.071 C 
HETATM   16  N4  UNL     1       9.713  -7.814  19.194  1.00  0.00    -0.398 N 
ATOM     17  H42 UNL     1       9.038  -7.115  18.884  1.00  0.00     0.156 HD
ATOM     18  H41 UNL     1       9.473  -8.735  19.559  1.00  0.00     0.156 HD
BRANCH  15  19
HETATM   19  C11 UNL     1      11.949  -8.508  19.576  1.00  0.00     0.264 C 
HETATM   20  O1  UNL     1      11.755  -9.707  19.205  1.00  0.00    -0.266 OA
HETATM   21  N5  UNL     1      13.034  -8.122  20.378  1.00  0.00    -0.338 N 
ATOM     22  H5  UNL     1      13.109  -7.135  20.622  1.00  0.00     0.164 HD
BRANCH  21  23
HETATM   23  C12 UNL     1      14.068  -9.028  20.892  1.00  0.00     0.114 A 
HETATM   24  C21 UNL     1      14.861  -9.591  19.776  1.00  0.00     0.041 A 
HETATM   25  C22 UNL     1      16.267  -9.149  19.868  1.00  0.00     0.003 A 
HETATM   26  C23 UNL     1      16.372  -8.238  21.040  1.00  0.00     0.003 A 
HETATM   27  C24 UNL     1      15.036  -8.181  21.671  1.00  0.00     0.041 A 
BRANCH  23  28
HETATM   28  C13 UNL     1      13.466 -10.019  21.811  1.00  0.00     0.250 C 
HETATM   29  O2  UNL     1      12.785  -9.498  22.769  1.00  0.00    -0.270 OA
HETATM   30  N6  UNL     1      13.537 -11.403  21.778  1.00  0.00    -0.315 N 
HETATM   31  C14 UNL     1      14.227 -12.252  20.820  1.00  0.00     0.156 C 
HETATM   32  C18 UNL     1      12.930 -12.346  22.713  1.00  0.00     0.198 C 
HETATM   33  C15 UNL     1      13.943 -13.703  21.271  1.00  0.00     0.259 C 
HETATM   34  N7  UNL     1      12.616 -13.478  21.869  1.00  0.00    -0.047 N 
HETATM   35  C16 UNL     1      11.725 -13.123  20.788  1.00  0.00     0.275 C 
HETATM   36  C17 UNL     1      12.098 -14.618  22.545  1.00  0.00     0.275 C 
HETATM   37  C19 UNL     1      14.005 -12.742  23.689  1.00  0.00     0.071 C 
HETATM   38  C20 UNL     1      11.754 -11.824  23.453  1.00  0.00     0.071 C 
ENDBRANCH  23  28
ENDBRANCH  21  23
ENDBRANCH  15  19
ENDBRANCH  14  15
ENDBRANCH  13  14
ENDBRANCH  12  13
ENDBRANCH  11  12
ENDBRANCH  10  11
ENDBRANCH   7  10
ENDBRANCH   3   4
TORSDOF 10
ENDMDL
MODEL 3
REMARK VINA RESULT: -6.384942293      5.953      8.437
REMARK  10 active torsions:
REMARK  status: ('A' for Active; 'I' for Inactive)
REMARK    1  A    between atoms: C3_3  and  N1_4 
REMARK       I    between atoms: N1_4  and  C4_6 
REMARK    2  A    between atoms: N3_8  and  C5_10 
REMARK    3  A    between atoms: C5_10  and  C6_11 
REMARK    4  A    between atoms: C6_11  and  C7_12 
REMARK    5  A    between atoms: C7_12  and  C8_13 
REMARK    6  A    between atoms: C8_13  and  C9_14 
REMARK    7  A    between atoms: C9_14  and  C10_15 
REMARK    8  A    between atoms: C10_15  and  C11_19 
REMARK       I    between atoms: C11_19  and  N5_21 
REMARK    9  A    between atoms: N5_21  and  C12_23 
REMARK   10  A    between atoms: C12_23  and  C13_24 
REMARK       I    between atoms: C13_24  and  N6_26 
ROOT
HETATM    1  C1  UNL     1      12.283  -3.789  27.349  1.00  0.00     0.014 C 
HETATM    2  C2  UNL     1      13.154  -3.619  26.537  1.00  0.00    -0.098 C 
HETATM    3  C3  UNL     1      14.215  -3.388  25.542  1.00  0.00     0.215 C 
ENDROOT
BRANCH   3   4
HETATM    4  N1  UNL     1      13.598  -3.197  24.261  1.00  0.00    -0.354 N 
HETATM    5  C4  UNL     1      13.826  -4.069  23.179  1.00  0.00     0.184 C 
HETATM    6  N2  UNL     1      15.140  -4.412  22.832  1.00  0.00    -0.064 NA
HETATM    7  N3  UNL     1      12.846  -4.543  22.521  1.00  0.00    -0.365 N 
ATOM      8  H3  UNL     1      13.013  -5.176  21.739  1.00  0.00     0.162 HD
ATOM      9  H1  UNL     1      12.972  -2.402  24.129  1.00  0.00     0.163 HD
BRANCH   7  10
HETATM   10  C5  UNL     1      11.512  -4.187  22.882  1.00  0.00     0.122 C 
BRANCH  10  11
HETATM   11  C6  UNL     1      10.448  -4.870  22.048  1.00  0.00     0.020 C 
BRANCH  11  12
HETATM   12  C7  UNL     1      10.404  -4.167  20.731  1.00  0.00     0.002 C 
BRANCH  12  13
HETATM   13  C8  UNL     1      10.471  -5.079  19.531  1.00  0.00     0.006 C 
BRANCH  13  14
HETATM   14  C9  UNL     1      10.305  -6.518  19.875  1.00  0.00     0.062 C 
BRANCH  14  15
HETATM   15  C10 UNL     1      11.458  -7.281  19.357  1.00  0.00     0.071 C 
HETATM   16  N4  UNL     1      11.220  -8.145  18.402  1.00  0.00    -0.398 N 
ATOM     17  H42 UNL     1      10.259  -8.247  18.076  1.00  0.00     0.156 HD
ATOM     18  H41 UNL     1      12.016  -8.672  18.045  1.00  0.00     0.156 HD
BRANCH  15  19
HETATM   19  C11 UNL     1      12.829  -7.135  19.821  1.00  0.00     0.264 C 
HETATM   20  O1  UNL     1      13.008  -7.023  21.073  1.00  0.00    -0.266 OA
HETATM   21  N5  UNL     1      13.883  -7.124  18.895  1.00  0.00    -0.338 N 
ATOM     22  H5  UNL     1      13.641  -7.225  17.909  1.00  0.00     0.164 HD
BRANCH  21  23
HETATM   23  C12 UNL     1      15.303  -6.979  19.233  1.00  0.00     0.114 A 
HETATM   24  C21 UNL     1      15.543  -7.382  20.636  1.00  0.00     0.041 A 
HETATM   25  C22 UNL     1      16.426  -8.565  20.690  1.00  0.00     0.003 A 
HETATM   26  C23 UNL     1      16.720  -8.965  19.288  1.00  0.00     0.003 A 
HETATM   27  C24 UNL     1      16.050  -7.987  18.404  1.00  0.00     0.041 A 
BRANCH  23  28
HETATM   28  C13 UNL     1      15.778  -5.626  18.868  1.00  0.00     0.250 C 
HETATM   29  O2  UNL     1      16.184  -4.927  19.867  1.00  0.00    -0.270 OA
HETATM   30  N6  UNL     1      15.844  -5.026  17.620  1.00  0.00    -0.315 N 
HETATM   31  C14 UNL     1      15.459  -5.574  16.329  1.00  0.00     0.156 C 
HETATM   32  C18 UNL     1      16.317  -3.680  17.306  1.00  0.00     0.198 C 
HETATM   33  C15 UNL     1      15.770  -4.466  15.298  1.00  0.00     0.259 C 
HETATM   34  N7  UNL     1      16.909  -3.846  15.997  1.00  0.00    -0.047 N 
HETATM   35  C16 UNL     1      17.977  -4.819  15.999  1.00  0.00     0.275 C 
HETATM   36  C17 UNL     1      17.370  -2.650  15.379  1.00  0.00     0.275 C 
HETATM   37  C19 UNL     1      15.095  -2.808  17.188  1.00  0.00     0.071 C 
HETATM   38  C20 UNL     1      17.250  -3.096  18.301  1.00  0.00     0.071 C 
ENDBRANCH  23  28
ENDBRANCH  21  23
ENDBRANCH  15  19
ENDBRANCH  14  15
ENDBRANCH  13  14
ENDBRANCH  12  13
ENDBRANCH  11  12
ENDBRANCH  10  11
ENDBRANCH   7  10
ENDBRANCH   3   4
TORSDOF 10
ENDMDL
MODEL 4
REMARK VINA RESULT: -6.363004561      1.787      3.765
REMARK  10 active torsions:
REMARK  status: ('A' for Active; 'I' for Inactive)
REMARK    1  A    between atoms: C3_3  and  N1_4 
REMARK       I    between atoms: N1_4  and  C4_6 
REMARK    2  A    between atoms: N3_8  and  C5_10 
REMARK    3  A    between atoms: C5_10  and  C6_11 
REMARK    4  A    between atoms: C6_11  and  C7_12 
REMARK    5  A    between atoms: C7_12  and  C8_13 
REMARK    6  A    between atoms: C8_13  and  C9_14 
REMARK    7  A    between atoms: C9_14  and  C10_15 
REMARK    8  A    between atoms: C10_15  and  C11_19 
REMARK       I    between atoms: C11_19  and  N5_21 
REMARK    9  A    between atoms: N5_21  and  C12_23 
REMARK   10  A    between atoms: C12_23  and  C13_24 
REMARK       I    between atoms: C13_24  and  N6_26 
ROOT
HETATM    1  C1  UNL     1      12.815 -16.638  21.805  1.00  0.00     0.014 C 
HETATM    2  C2  UNL     1      12.920 -16.976  22.954  1.00  0.00    -0.098 C 
HETATM    3  C3  UNL     1      13.026 -17.380  24.366  1.00  0.00     0.215 C 
ENDROOT
BRANCH   3   4
HETATM    4  N1  UNL     1      13.378 -16.224  25.140  1.00  0.00    -0.354 N 
HETATM    5  C4  UNL     1      14.690 -15.997  25.599  1.00  0.00     0.184 C 
HETATM    6  N2  UNL     1      15.379 -17.024  26.260  1.00  0.00    -0.064 NA
HETATM    7  N3  UNL     1      15.247 -14.869  25.414  1.00  0.00    -0.365 N 
ATOM      8  H3  UNL     1      16.198 -14.708  25.745  1.00  0.00     0.162 HD
ATOM      9  H1  UNL     1      12.653 -15.543  25.367  1.00  0.00     0.163 HD
BRANCH   7  10
HETATM   10  C5  UNL     1      14.537 -13.831  24.741  1.00  0.00     0.122 C 
BRANCH  10  11
HETATM   11  C6  UNL     1      14.827 -13.752  23.256  1.00  0.00     0.020 C 
BRANCH  11  12
HETATM   12  C7  UNL     1      13.746 -12.925  22.640  1.00  0.00     0.002 C 
BRANCH  12  13
HETATM   13  C8  UNL     1      13.654 -11.518  23.176  1.00  0.00     0.006 C 
BRANCH  13  14
HETATM   14  C9  UNL     1      13.462 -10.494  22.112  1.00  0.00     0.062 C 
BRANCH  14  15
HETATM   15  C10 UNL     1      12.302  -9.646  22.451  1.00  0.00     0.071 C 
HETATM   16  N4  UNL     1      11.370 -10.183  23.197  1.00  0.00    -0.398 N 
ATOM     17  H42 UNL     1      11.492 -11.151  23.496  1.00  0.00     0.156 HD
ATOM     18  H41 UNL     1      10.568  -9.598  23.431  1.00  0.00     0.156 HD
BRANCH  15  19
HETATM   19  C11 UNL     1      12.128  -8.265  22.025  1.00  0.00     0.264 C 
HETATM   20  O1  UNL     1      11.223  -8.034  21.165  1.00  0.00    -0.266 OA
HETATM   21  N5  UNL     1      12.944  -7.261  22.565  1.00  0.00    -0.338 N 
ATOM     22  H5  UNL     1      13.642  -7.542  23.254  1.00  0.00     0.164 HD
BRANCH  21  23
HETATM   23  C12 UNL     1      12.873  -5.837  22.218  1.00  0.00     0.114 A 
HETATM   24  C21 UNL     1      11.723  -5.198  22.896  1.00  0.00     0.041 A 
HETATM   25  C22 UNL     1      12.192  -4.169  23.846  1.00  0.00     0.003 A 
HETATM   26  C23 UNL     1      13.679  -4.181  23.819  1.00  0.00     0.003 A 
HETATM   27  C24 UNL     1      14.090  -5.185  22.814  1.00  0.00     0.041 A 
BRANCH  23  28
HETATM   28  C13 UNL     1      12.921  -5.668  20.749  1.00  0.00     0.250 C 
HETATM   29  O2  UNL     1      11.933  -5.002  20.266  1.00  0.00    -0.270 OA
HETATM   30  N6  UNL     1      13.868  -6.121  19.844  1.00  0.00    -0.315 N 
HETATM   31  C14 UNL     1      15.076  -6.889  20.104  1.00  0.00     0.156 C 
HETATM   32  C18 UNL     1      13.873  -5.935  18.395  1.00  0.00     0.198 C 
HETATM   33  C15 UNL     1      15.746  -7.088  18.726  1.00  0.00     0.259 C 
HETATM   34  N7  UNL     1      15.283  -5.843  18.088  1.00  0.00    -0.047 N 
HETATM   35  C16 UNL     1      15.925  -4.753  18.786  1.00  0.00     0.275 C 
HETATM   36  C17 UNL     1      15.603  -5.764  16.704  1.00  0.00     0.275 C 
HETATM   37  C19 UNL     1      13.318  -7.199  17.794  1.00  0.00     0.071 C 
HETATM   38  C20 UNL     1      13.092  -4.770  17.911  1.00  0.00     0.071 C 
ENDBRANCH  23  28
ENDBRANCH  21  23
ENDBRANCH  15  19
ENDBRANCH  14  15
ENDBRANCH  13  14
ENDBRANCH  12  13
ENDBRANCH  11  12
ENDBRANCH  10  11
ENDBRANCH   7  10
ENDBRANCH   3   4
TORSDOF 10
ENDMDL
MODEL 5
REMARK VINA RESULT: -6.353518813      2.728      8.478
REMARK  10 active torsions:
REMARK  status: ('A' for Active; 'I' for Inactive)
REMARK    1  A    between atoms: C3_3  and  N1_4 
REMARK       I    between atoms: N1_4  and  C4_6 
REMARK    2  A    between atoms: N3_8  and  C5_10 
REMARK    3  A    between atoms: C5_10  and  C6_11 
REMARK    4  A    between atoms: C6_11  and  C7_12 
REMARK    5  A    between atoms: C7_12  and  C8_13 
REMARK    6  A    between atoms: C8_13  and  C9_14 
REMARK    7  A    between atoms: C9_14  and  C10_15 
REMARK    8  A    between atoms: C10_15  and  C11_19 
REMARK       I    between atoms: C11_19  and  N5_21 
REMARK    9  A    between atoms: N5_21  and  C12_23 
REMARK   10  A    between atoms: C12_23  and  C13_24 
REMARK       I    between atoms: C13_24  and  N6_26 
ROOT
HETATM    1  C1  UNL     1      12.370  -4.195  24.471  1.00  0.00     0.014 C 
HETATM    2  C2  UNL     1      13.339  -4.293  23.765  1.00  0.00    -0.098 C 
HETATM    3  C3  UNL     1      14.513  -4.401  22.883  1.00  0.00     0.215 C 
ENDROOT
BRANCH   3   4
HETATM    4  N1  UNL     1      14.276  -5.460  21.945  1.00  0.00    -0.354 N 
HETATM    5  C4  UNL     1      15.246  -5.868  21.010  1.00  0.00     0.184 C 
HETATM    6  N2  UNL     1      15.896  -4.907  20.222  1.00  0.00    -0.064 NA
HETATM    7  N3  UNL     1      15.534  -7.100  20.882  1.00  0.00    -0.365 N 
ATOM      8  H3  UNL     1      16.239  -7.393  20.206  1.00  0.00     0.162 HD
ATOM      9  H1  UNL     1      13.372  -5.934  21.955  1.00  0.00     0.163 HD
BRANCH   7  10
HETATM   10  C5  UNL     1      14.868  -8.071  21.689  1.00  0.00     0.122 C 
BRANCH  10  11
HETATM   11  C6  UNL     1      14.197  -9.172  20.894  1.00  0.00     0.020 C 
BRANCH  11  12
HETATM   12  C7  UNL     1      15.277  -9.918  20.180  1.00  0.00     0.002 C 
BRANCH  12  13
HETATM   13  C8  UNL     1      14.834 -11.220  19.561  1.00  0.00     0.006 C 
BRANCH  13  14
HETATM   14  C9  UNL     1      15.883 -12.276  19.596  1.00  0.00     0.062 C 
BRANCH  14  15
HETATM   15  C10 UNL     1      15.260 -13.575  19.919  1.00  0.00     0.071 C 
HETATM   16  N4  UNL     1      15.594 -14.598  19.174  1.00  0.00    -0.398 N 
ATOM     17  H42 UNL     1      16.255 -14.441  18.413  1.00  0.00     0.156 HD
ATOM     18  H41 UNL     1      15.164 -15.495  19.397  1.00  0.00     0.156 HD
BRANCH  15  19
HETATM   19  C11 UNL     1      14.318 -13.799  21.006  1.00  0.00     0.264 C 
HETATM   20  O1  UNL     1      13.125 -14.092  20.686  1.00  0.00    -0.266 OA
HETATM   21  N5  UNL     1      14.747 -13.686  22.336  1.00  0.00    -0.338 N 
ATOM     22  H5  UNL     1      15.727 -13.449  22.495  1.00  0.00     0.164 HD
BRANCH  21  23
HETATM   23  C12 UNL     1      13.898 -13.881  23.517  1.00  0.00     0.114 A 
HETATM   24  C21 UNL     1      13.490 -15.299  23.630  1.00  0.00     0.041 A 
HETATM   25  C22 UNL     1      14.044 -15.898  24.861  1.00  0.00     0.003 A 
HETATM   26  C23 UNL     1      14.870 -14.858  25.531  1.00  0.00     0.003 A 
HETATM   27  C24 UNL     1      14.764 -13.627  24.720  1.00  0.00     0.041 A 
BRANCH  23  28
HETATM   28  C13 UNL     1      12.793 -12.898  23.518  1.00  0.00     0.250 C 
HETATM   29  O2  UNL     1      13.182 -11.673  23.496  1.00  0.00    -0.270 OA
HETATM   30  N6  UNL     1      11.424 -13.115  23.540  1.00  0.00    -0.315 N 
HETATM   31  C14 UNL     1      10.708 -14.381  23.566  1.00  0.00     0.156 C 
HETATM   32  C18 UNL     1      10.364 -12.110  23.546  1.00  0.00     0.198 C 
HETATM   33  C15 UNL     1       9.208 -14.010  23.562  1.00  0.00     0.259 C 
HETATM   34  N7  UNL     1       9.307 -12.755  22.798  1.00  0.00    -0.047 N 
HETATM   35  C16 UNL     1       9.721 -13.111  21.461  1.00  0.00     0.275 C 
HETATM   36  C17 UNL     1       8.081 -12.035  22.731  1.00  0.00     0.275 C 
HETATM   37  C19 UNL     1       9.929 -11.948  24.978  1.00  0.00     0.071 C 
HETATM   38  C20 UNL     1      10.752 -10.789  22.991  1.00  0.00     0.071 C 
ENDBRANCH  23  28
ENDBRANCH  21  23
ENDBRANCH  15  19
ENDBRANCH  14  15
ENDBRANCH  13  14
ENDBRANCH  12  13
ENDBRANCH  11  12
ENDBRANCH  10  11
ENDBRANCH   7  10
ENDBRANCH   3   4
TORSDOF 10
ENDMDL
