MODEL 1
REMARK VINA RESULT: -6.599160878      0.000      0.000
REMARK  11 active torsions:
REMARK  status: ('A' for Active; 'I' for Inactive)
REMARK    1  A    between atoms: C3_3  and  C4_4 
REMARK    2  A    between atoms: C4_4  and  N1_5 
REMARK    3  A    between atoms: C8_9  and  N2_10 
REMARK       I    between atoms: N2_10  and  C9_12 
REMARK    4  A    between atoms: C9_12  and  C10_14 
REMARK    5  A    between atoms: C10_14  and  C11_15 
REMARK    6  A    between atoms: C11_15  and  C12_16 
REMARK    7  A    between atoms: C12_16  and  C13_17 
REMARK    8  A    between atoms: C13_17  and  N3_18 
REMARK       I    between atoms: C14_20  and  N5_22 
REMARK    9  A    between atoms: N5_22  and  C15_24 
REMARK   10  A    between atoms: C15_24  and  C16_25 
REMARK   11  A    between atoms: C22_32  and  O2_33 
ROOT
HETATM    1  C1  UNL     1      16.370 -18.988  27.245  1.00  0.00     0.112 C 
HETATM    2  C2  UNL     1      15.288 -18.389  26.445  1.00  0.00    -0.109 C 
HETATM    3  C3  UNL     1      14.416 -17.896  25.774  1.00  0.00    -0.087 C 
ENDROOT
BRANCH   3   4
HETATM    4  C4  UNL     1      13.375 -17.298  24.940  1.00  0.00     0.217 C 
BRANCH   4   5
HETATM    5  N1  UNL     1      13.912 -16.047  24.421  1.00  0.00    -0.363 N 
HETATM    6  C5  UNL     1      14.894 -15.302  25.188  1.00  0.00     0.124 C 
HETATM    7  C6  UNL     1      14.981 -13.859  24.791  1.00  0.00     0.022 C 
HETATM    8  C7  UNL     1      13.730 -13.341  24.160  1.00  0.00     0.034 C 
HETATM    9  C8  UNL     1      13.457 -14.066  22.853  1.00  0.00     0.146 C 
HETATM   10  C23 UNL     1      13.500 -15.515  23.171  1.00  0.00     0.099 C 
HETATM   11  S1  UNL     1      13.036 -16.584  21.998  1.00  0.00    -0.063 SA
BRANCH   9  12
HETATM   12  N2  UNL     1      14.327 -13.671  21.807  1.00  0.00    -0.350 N 
HETATM   13  C9  UNL     1      13.859 -12.761  20.797  1.00  0.00     0.218 C 
HETATM   14  O1  UNL     1      12.671 -12.327  20.859  1.00  0.00    -0.274 OA
ATOM     15  H2  UNL     1      15.281 -14.030  21.770  1.00  0.00     0.163 HD
BRANCH  13  16
HETATM   16  C10 UNL     1      14.717 -12.321  19.692  1.00  0.00     0.103 C 
BRANCH  16  17
HETATM   17  C11 UNL     1      15.674 -11.240  20.077  1.00  0.00     0.011 C 
BRANCH  17  18
HETATM   18  C12 UNL     1      16.702 -10.907  19.043  1.00  0.00     0.020 C 
BRANCH  18  19
HETATM   19  C13 UNL     1      16.899  -9.398  19.048  1.00  0.00     0.122 C 
BRANCH  19  20
HETATM   20  N3  UNL     1      16.554  -8.914  20.356  1.00  0.00    -0.365 N 
HETATM   21  C14 UNL     1      15.950  -7.781  20.474  1.00  0.00     0.183 C 
HETATM   22  N4  UNL     1      15.654  -7.062  19.282  1.00  0.00    -0.064 NA
HETATM   23  N5  UNL     1      15.629  -7.291  21.755  1.00  0.00    -0.364 N 
ATOM     24  H5  UNL     1      16.345  -7.331  22.480  1.00  0.00     0.162 HD
ATOM     25  H3  UNL     1      16.784  -9.463  21.184  1.00  0.00     0.162 HD
BRANCH  23  26
HETATM   26  C15 UNL     1      14.365  -6.747  22.089  1.00  0.00     0.131 C 
BRANCH  26  27
HETATM   27  C16 UNL     1      14.188  -5.287  21.928  1.00  0.00     0.060 C 
HETATM   28  C17 UNL     1      14.303  -4.412  23.113  1.00  0.00     0.012 C 
HETATM   29  C18 UNL     1      13.018  -4.486  23.914  1.00  0.00     0.029 C 
HETATM   30  C19 UNL     1      11.871  -4.046  23.068  1.00  0.00     0.239 C 
HETATM   31  N6  UNL     1      11.755  -4.798  21.837  1.00  0.00    -0.048 N 
HETATM   32  C20 UNL     1      10.812  -4.050  20.996  1.00  0.00     0.275 C 
HETATM   33  C21 UNL     1      11.114  -6.057  22.138  1.00  0.00     0.275 C 
HETATM   34  C22 UNL     1      12.972  -4.915  21.116  1.00  0.00     0.328 C 
BRANCH  34  35
HETATM   35  O2  UNL     1      12.796  -5.964  20.183  1.00  0.00    -0.369 OA
ATOM     36  H2  UNL     1      11.967  -5.791  19.751  1.00  0.00     0.212 HD
ENDBRANCH  34  35
ENDBRANCH  26  27
ENDBRANCH  23  26
ENDBRANCH  19  20
ENDBRANCH  18  19
ENDBRANCH  17  18
ENDBRANCH  16  17
ENDBRANCH  13  16
ENDBRANCH   9  12
ENDBRANCH   4   5
ENDBRANCH   3   4
TORSDOF 11
ENDMDL
MODEL 2
REMARK VINA RESULT: -6.454632040      1.785      2.720
REMARK  11 active torsions:
REMARK  status: ('A' for Active; 'I' for Inactive)
REMARK    1  A    between atoms: C3_3  and  C4_4 
REMARK    2  A    between atoms: C4_4  and  N1_5 
REMARK    3  A    between atoms: C8_9  and  N2_10 
REMARK       I    between atoms: N2_10  and  C9_12 
REMARK    4  A    between atoms: C9_12  and  C10_14 
REMARK    5  A    between atoms: C10_14  and  C11_15 
REMARK    6  A    between atoms: C11_15  and  C12_16 
REMARK    7  A    between atoms: C12_16  and  C13_17 
REMARK    8  A    between atoms: C13_17  and  N3_18 
REMARK       I    between atoms: C14_20  and  N5_22 
REMARK    9  A    between atoms: N5_22  and  C15_24 
REMARK   10  A    between atoms: C15_24  and  C16_25 
REMARK   11  A    between atoms: C22_32  and  O2_33 
ROOT
HETATM    1  C1  UNL     1      14.895 -15.269  26.177  1.00  0.00     0.112 C 
HETATM    2  C2  UNL     1      14.015 -14.658  25.166  1.00  0.00    -0.109 C 
HETATM    3  C3  UNL     1      13.285 -14.176  24.338  1.00  0.00    -0.087 C 
ENDROOT
BRANCH   3   4
HETATM    4  C4  UNL     1      12.383 -13.614  23.334  1.00  0.00     0.217 C 
BRANCH   4   5
HETATM    5  N1  UNL     1      13.133 -12.597  22.610  1.00  0.00    -0.363 N 
HETATM    6  C5  UNL     1      13.278 -11.264  23.167  1.00  0.00     0.124 C 
HETATM    7  C6  UNL     1      13.625 -10.230  22.139  1.00  0.00     0.022 C 
HETATM    8  C7  UNL     1      13.198 -10.601  20.756  1.00  0.00     0.034 C 
HETATM    9  C8  UNL     1      13.937 -11.845  20.290  1.00  0.00     0.146 C 
HETATM   10  C23 UNL     1      13.736 -12.863  21.352  1.00  0.00     0.099 C 
HETATM   11  S1  UNL     1      14.244 -14.408  21.056  1.00  0.00    -0.063 SA
BRANCH   9  12
HETATM   12  N2  UNL     1      15.294 -11.597  19.967  1.00  0.00    -0.350 N 
HETATM   13  C9  UNL     1      15.793 -11.956  18.668  1.00  0.00     0.218 C 
HETATM   14  O1  UNL     1      15.008 -12.492  17.831  1.00  0.00    -0.274 OA
ATOM     15  H2  UNL     1      15.913 -11.165  20.652  1.00  0.00     0.163 HD
BRANCH  13  16
HETATM   16  C10 UNL     1      17.188 -11.723  18.282  1.00  0.00     0.103 C 
BRANCH  16  17
HETATM   17  C11 UNL     1      17.707 -10.386  18.702  1.00  0.00     0.011 C 
BRANCH  17  18
HETATM   18  C12 UNL     1      17.587  -9.308  17.674  1.00  0.00     0.020 C 
BRANCH  18  19
HETATM   19  C13 UNL     1      16.303  -8.538  17.950  1.00  0.00     0.122 C 
BRANCH  19  20
HETATM   20  N3  UNL     1      16.190  -8.368  19.371  1.00  0.00    -0.365 N 
HETATM   21  C14 UNL     1      15.692  -7.276  19.842  1.00  0.00     0.183 C 
HETATM   22  N4  UNL     1      15.274  -6.285  18.910  1.00  0.00    -0.064 NA
HETATM   23  N5  UNL     1      15.600  -7.094  21.235  1.00  0.00    -0.364 N 
ATOM     24  H5  UNL     1      16.411  -7.329  21.808  1.00  0.00     0.162 HD
ATOM     25  H3  UNL     1      16.502  -9.105  20.004  1.00  0.00     0.162 HD
BRANCH  23  26
HETATM   26  C15 UNL     1      14.441  -6.603  21.884  1.00  0.00     0.131 C 
BRANCH  26  27
HETATM   27  C16 UNL     1      14.219  -5.140  21.867  1.00  0.00     0.060 C 
HETATM   28  C17 UNL     1      14.398  -4.370  23.114  1.00  0.00     0.012 C 
HETATM   29  C18 UNL     1      13.177  -4.551  23.994  1.00  0.00     0.029 C 
HETATM   30  C19 UNL     1      11.961  -4.073  23.272  1.00  0.00     0.239 C 
HETATM   31  N6  UNL     1      11.775  -4.718  21.990  1.00  0.00    -0.048 N 
HETATM   32  C20 UNL     1      10.756  -3.928  21.287  1.00  0.00     0.275 C 
HETATM   33  C21 UNL     1      11.187  -6.017  22.222  1.00  0.00     0.275 C 
HETATM   34  C22 UNL     1      12.938  -4.735  21.179  1.00  0.00     0.328 C 
BRANCH  34  35
HETATM   35  O2  UNL     1      12.720  -5.703  20.170  1.00  0.00    -0.369 OA
ATOM     36  H2  UNL     1      12.073  -5.327  19.585  1.00  0.00     0.212 HD
ENDBRANCH  34  35
ENDBRANCH  26  27
ENDBRANCH  23  26
ENDBRANCH  19  20
ENDBRANCH  18  19
ENDBRANCH  17  18
ENDBRANCH  16  17
ENDBRANCH  13  16
ENDBRANCH   9  12
ENDBRANCH   4   5
ENDBRANCH   3   4
TORSDOF 11
ENDMDL
MODEL 3
REMARK VINA RESULT: -6.389046002      2.907      9.091
REMARK  11 active torsions:
REMARK  status: ('A' for Active; 'I' for Inactive)
REMARK    1  A    between atoms: C3_3  and  C4_4 
REMARK    2  A    between atoms: C4_4  and  N1_5 
REMARK    3  A    between atoms: C8_9  and  N2_10 
REMARK       I    between atoms: N2_10  and  C9_12 
REMARK    4  A    between atoms: C9_12  and  C10_14 
REMARK    5  A    between atoms: C10_14  and  C11_15 
REMARK    6  A    between atoms: C11_15  and  C12_16 
REMARK    7  A    between atoms: C12_16  and  C13_17 
REMARK    8  A    between atoms: C13_17  and  N3_18 
REMARK       I    between atoms: C14_20  and  N5_22 
REMARK    9  A    between atoms: N5_22  and  C15_24 
REMARK   10  A    between atoms: C15_24  and  C16_25 
REMARK   11  A    between atoms: C22_32  and  O2_33 
ROOT
HETATM    1  C1  UNL     1      12.664  -3.818  25.799  1.00  0.00     0.112 C 
HETATM    2  C2  UNL     1      12.312  -4.026  24.384  1.00  0.00    -0.109 C 
HETATM    3  C3  UNL     1      12.023  -4.175  23.223  1.00  0.00    -0.087 C 
ENDROOT
BRANCH   3   4
HETATM    4  C4  UNL     1      11.676  -4.330  21.812  1.00  0.00     0.217 C 
BRANCH   4   5
HETATM    5  N1  UNL     1      12.105  -5.662  21.411  1.00  0.00    -0.363 N 
HETATM    6  C5  UNL     1      11.136  -6.738  21.303  1.00  0.00     0.124 C 
HETATM    7  C6  UNL     1      11.758  -8.101  21.366  1.00  0.00     0.022 C 
HETATM    8  C7  UNL     1      13.071  -8.121  22.080  1.00  0.00     0.034 C 
HETATM    9  C8  UNL     1      14.094  -7.285  21.330  1.00  0.00     0.146 C 
HETATM   10  C23 UNL     1      13.463  -5.957  21.119  1.00  0.00     0.099 C 
HETATM   11  S1  UNL     1      14.398  -4.739  20.508  1.00  0.00    -0.063 SA
BRANCH   9  12
HETATM   12  N2  UNL     1      14.558  -7.906  20.145  1.00  0.00    -0.350 N 
HETATM   13  C9  UNL     1      15.928  -8.330  20.053  1.00  0.00     0.218 C 
HETATM   14  O1  UNL     1      16.702  -8.139  21.038  1.00  0.00    -0.274 OA
ATOM     15  H2  UNL     1      13.923  -8.053  19.360  1.00  0.00     0.163 HD
BRANCH  13  16
HETATM   16  C10 UNL     1      16.461  -8.977  18.850  1.00  0.00     0.103 C 
BRANCH  16  17
HETATM   17  C11 UNL     1      17.484 -10.027  19.141  1.00  0.00     0.011 C 
BRANCH  17  18
HETATM   18  C12 UNL     1      17.235 -11.351  18.494  1.00  0.00     0.020 C 
BRANCH  18  19
HETATM   19  C13 UNL     1      15.749 -11.659  18.612  1.00  0.00     0.122 C 
BRANCH  19  20
HETATM   20  N3  UNL     1      15.485 -12.029  19.974  1.00  0.00    -0.365 N 
HETATM   21  C14 UNL     1      14.371 -11.681  20.521  1.00  0.00     0.183 C 
HETATM   22  N4  UNL     1      13.449 -10.939  19.731  1.00  0.00    -0.064 NA
HETATM   23  N5  UNL     1      14.116 -12.022  21.864  1.00  0.00    -0.364 N 
ATOM     24  H5  UNL     1      14.853 -11.863  22.551  1.00  0.00     0.162 HD
ATOM     25  H3  UNL     1      16.174 -12.562  20.505  1.00  0.00     0.162 HD
BRANCH  23  26
HETATM   26  C15 UNL     1      12.890 -12.573  22.311  1.00  0.00     0.131 C 
BRANCH  26  27
HETATM   27  C16 UNL     1      12.870 -13.189  23.656  1.00  0.00     0.060 C 
HETATM   28  C17 UNL     1      14.134 -13.319  24.408  1.00  0.00     0.012 C 
HETATM   29  C18 UNL     1      14.914 -14.502  23.871  1.00  0.00     0.029 C 
HETATM   30  C19 UNL     1      14.105 -15.748  24.019  1.00  0.00     0.239 C 
HETATM   31  N6  UNL     1      12.806 -15.657  23.387  1.00  0.00    -0.048 N 
HETATM   32  C20 UNL     1      12.034 -16.800  23.888  1.00  0.00     0.275 C 
HETATM   33  C21 UNL     1      12.980 -15.877  21.970  1.00  0.00     0.275 C 
HETATM   34  C22 UNL     1      12.088 -14.478  23.715  1.00  0.00     0.328 C 
BRANCH  34  35
HETATM   35  O2  UNL     1      11.056 -14.347  22.755  1.00  0.00    -0.369 OA
ATOM     36  H2  UNL     1      11.109 -15.123  22.210  1.00  0.00     0.212 HD
ENDBRANCH  34  35
ENDBRANCH  26  27
ENDBRANCH  23  26
ENDBRANCH  19  20
ENDBRANCH  18  19
ENDBRANCH  17  18
ENDBRANCH  16  17
ENDBRANCH  13  16
ENDBRANCH   9  12
ENDBRANCH   4   5
ENDBRANCH   3   4
TORSDOF 11
ENDMDL
MODEL 4
REMARK VINA RESULT: -6.378523834      3.197      8.878
REMARK  11 active torsions:
REMARK  status: ('A' for Active; 'I' for Inactive)
REMARK    1  A    between atoms: C3_3  and  C4_4 
REMARK    2  A    between atoms: C4_4  and  N1_5 
REMARK    3  A    between atoms: C8_9  and  N2_10 
REMARK       I    between atoms: N2_10  and  C9_12 
REMARK    4  A    between atoms: C9_12  and  C10_14 
REMARK    5  A    between atoms: C10_14  and  C11_15 
REMARK    6  A    between atoms: C11_15  and  C12_16 
REMARK    7  A    between atoms: C12_16  and  C13_17 
REMARK    8  A    between atoms: C13_17  and  N3_18 
REMARK       I    between atoms: C14_20  and  N5_22 
REMARK    9  A    between atoms: N5_22  and  C15_24 
REMARK   10  A    between atoms: C15_24  and  C16_25 
REMARK   11  A    between atoms: C22_32  and  O2_33 
ROOT
HETATM    1  C1  UNL     1      14.514  -3.247  24.774  1.00  0.00     0.112 C 
HETATM    2  C2  UNL     1      14.259  -3.879  23.469  1.00  0.00    -0.109 C 
HETATM    3  C3  UNL     1      14.067  -4.409  22.404  1.00  0.00    -0.087 C 
ENDROOT
BRANCH   3   4
HETATM    4  C4  UNL     1      13.854  -5.069  21.117  1.00  0.00     0.217 C 
BRANCH   4   5
HETATM    5  N1  UNL     1      14.250  -6.461  21.281  1.00  0.00    -0.363 N 
HETATM    6  C5  UNL     1      15.657  -6.814  21.351  1.00  0.00     0.124 C 
HETATM    7  C6  UNL     1      15.919  -8.255  21.031  1.00  0.00     0.022 C 
HETATM    8  C7  UNL     1      14.863  -8.875  20.175  1.00  0.00     0.034 C 
HETATM    9  C8  UNL     1      13.533  -8.899  20.911  1.00  0.00     0.146 C 
HETATM   10  C23 UNL     1      13.295  -7.507  21.372  1.00  0.00     0.099 C 
HETATM   11  S1  UNL     1      11.823  -7.147  22.033  1.00  0.00    -0.063 SA
BRANCH   9  12
HETATM   12  N2  UNL     1      13.484  -9.872  21.939  1.00  0.00    -0.350 N 
HETATM   13  C9  UNL     1      12.534 -10.947  21.856  1.00  0.00     0.218 C 
HETATM   14  O1  UNL     1      11.752 -11.006  20.862  1.00  0.00    -0.274 OA
ATOM     15  H2  UNL     1      14.120  -9.810  22.734  1.00  0.00     0.163 HD
BRANCH  13  16
HETATM   16  C10 UNL     1      12.440 -11.980  22.893  1.00  0.00     0.103 C 
BRANCH  16  17
HETATM   17  C11 UNL     1      13.746 -12.280  23.555  1.00  0.00     0.011 C 
BRANCH  17  18
HETATM   18  C12 UNL     1      14.012 -13.729  23.803  1.00  0.00     0.020 C 
BRANCH  18  19
HETATM   19  C13 UNL     1      14.074 -14.432  22.454  1.00  0.00     0.122 C 
BRANCH  19  20
HETATM   20  N3  UNL     1      15.241 -13.956  21.765  1.00  0.00    -0.365 N 
HETATM   21  C14 UNL     1      15.151 -13.622  20.523  1.00  0.00     0.183 C 
HETATM   22  N4  UNL     1      13.880 -13.744  19.895  1.00  0.00    -0.064 NA
HETATM   23  N5  UNL     1      16.297 -13.176  19.836  1.00  0.00    -0.364 N 
ATOM     24  H5  UNL     1      17.163 -13.704  19.946  1.00  0.00     0.162 HD
ATOM     25  H3  UNL     1      16.133 -13.882  22.254  1.00  0.00     0.162 HD
BRANCH  23  26
HETATM   26  C15 UNL     1      16.311 -12.033  18.999  1.00  0.00     0.131 C 
BRANCH  26  27
HETATM   27  C16 UNL     1      17.618 -11.602  18.456  1.00  0.00     0.060 C 
HETATM   28  C17 UNL     1      17.945 -10.163  18.420  1.00  0.00     0.012 C 
HETATM   29  C18 UNL     1      17.236  -9.519  17.245  1.00  0.00     0.029 C 
HETATM   30  C19 UNL     1      17.673 -10.170  15.975  1.00  0.00     0.239 C 
HETATM   31  N6  UNL     1      17.472 -11.603  15.976  1.00  0.00    -0.048 N 
HETATM   32  C20 UNL     1      18.230 -12.116  14.828  1.00  0.00     0.275 C 
HETATM   33  C21 UNL     1      16.081 -11.861  15.688  1.00  0.00     0.275 C 
HETATM   34  C22 UNL     1      17.963 -12.253  17.138  1.00  0.00     0.328 C 
BRANCH  34  35
HETATM   35  O2  UNL     1      17.367 -13.535  17.173  1.00  0.00    -0.369 OA
ATOM     36  H2  UNL     1      16.823 -13.590  16.396  1.00  0.00     0.212 HD
ENDBRANCH  34  35
ENDBRANCH  26  27
ENDBRANCH  23  26
ENDBRANCH  19  20
ENDBRANCH  18  19
ENDBRANCH  17  18
ENDBRANCH  16  17
ENDBRANCH  13  16
ENDBRANCH   9  12
ENDBRANCH   4   5
ENDBRANCH   3   4
TORSDOF 11
ENDMDL
MODEL 5
REMARK VINA RESULT: -6.363824037      4.472      6.683
REMARK  11 active torsions:
REMARK  status: ('A' for Active; 'I' for Inactive)
REMARK    1  A    between atoms: C3_3  and  C4_4 
REMARK    2  A    between atoms: C4_4  and  N1_5 
REMARK    3  A    between atoms: C8_9  and  N2_10 
REMARK       I    between atoms: N2_10  and  C9_12 
REMARK    4  A    between atoms: C9_12  and  C10_14 
REMARK    5  A    between atoms: C10_14  and  C11_15 
REMARK    6  A    between atoms: C11_15  and  C12_16 
REMARK    7  A    between atoms: C12_16  and  C13_17 
REMARK    8  A    between atoms: C13_17  and  N3_18 
REMARK       I    between atoms: C14_20  and  N5_22 
REMARK    9  A    between atoms: N5_22  and  C15_24 
REMARK   10  A    between atoms: C15_24  and  C16_25 
REMARK   11  A    between atoms: C22_32  and  O2_33 
ROOT
HETATM    1  C1  UNL     1      14.751 -14.190  25.202  1.00  0.00     0.112 C 
HETATM    2  C2  UNL     1      14.354 -13.511  23.956  1.00  0.00    -0.109 C 
HETATM    3  C3  UNL     1      14.011 -12.969  22.936  1.00  0.00    -0.087 C 
ENDROOT
BRANCH   3   4
HETATM    4  C4  UNL     1      13.574 -12.325  21.699  1.00  0.00     0.217 C 
BRANCH   4   5
HETATM    5  N1  UNL     1      12.540 -11.365  22.061  1.00  0.00    -0.363 N 
HETATM    6  C5  UNL     1      11.432 -11.772  22.906  1.00  0.00     0.124 C 
HETATM    7  C6  UNL     1      10.240 -10.870  22.792  1.00  0.00     0.022 C 
HETATM    8  C7  UNL     1      10.176 -10.133  21.494  1.00  0.00     0.034 C 
HETATM    9  C8  UNL     1      11.363  -9.193  21.360  1.00  0.00     0.146 C 
HETATM   10  C23 UNL     1      12.571 -10.021  21.605  1.00  0.00     0.099 C 
HETATM   11  S1  UNL     1      14.051  -9.339  21.329  1.00  0.00    -0.063 SA
BRANCH   9  12
HETATM   12  N2  UNL     1      11.261  -8.048  22.188  1.00  0.00    -0.350 N 
HETATM   13  C9  UNL     1      11.071  -6.754  21.592  1.00  0.00     0.218 C 
HETATM   14  O1  UNL     1      10.999  -6.658  20.332  1.00  0.00    -0.274 OA
ATOM     15  H2  UNL     1      11.321  -8.141  23.202  1.00  0.00     0.163 HD
BRANCH  13  16
HETATM   16  C10 UNL     1      10.960  -5.536  22.402  1.00  0.00     0.103 C 
BRANCH  16  17
HETATM   17  C11 UNL     1      12.180  -5.250  23.217  1.00  0.00     0.011 C 
BRANCH  17  18
HETATM   18  C12 UNL     1      13.117  -4.247  22.624  1.00  0.00     0.020 C 
BRANCH  18  19
HETATM   19  C13 UNL     1      14.213  -5.007  21.891  1.00  0.00     0.122 C 
BRANCH  19  20
HETATM   20  N3  UNL     1      14.884  -4.080  21.024  1.00  0.00    -0.365 N 
HETATM   21  C14 UNL     1      15.513  -4.521  19.988  1.00  0.00     0.183 C 
HETATM   22  N4  UNL     1      15.505  -5.925  19.758  1.00  0.00    -0.064 NA
HETATM   23  N5  UNL     1      16.191  -3.619  19.146  1.00  0.00    -0.364 N 
ATOM     24  H5  UNL     1      16.780  -2.906  19.577  1.00  0.00     0.162 HD
ATOM     25  H3  UNL     1      14.864  -3.080  21.225  1.00  0.00     0.162 HD
BRANCH  23  26
HETATM   26  C15 UNL     1      16.100  -3.649  17.733  1.00  0.00     0.131 C 
BRANCH  26  27
HETATM   27  C16 UNL     1      15.137  -2.726  17.093  1.00  0.00     0.060 C 
HETATM   28  C17 UNL     1      14.191  -3.254  16.089  1.00  0.00     0.012 C 
HETATM   29  C18 UNL     1      14.912  -3.429  14.767  1.00  0.00     0.029 C 
HETATM   30  C19 UNL     1      15.454  -2.116  14.312  1.00  0.00     0.239 C 
HETATM   31  N6  UNL     1      16.317  -1.490  15.291  1.00  0.00    -0.048 N 
HETATM   32  C20 UNL     1      16.497  -0.104  14.841  1.00  0.00     0.275 C 
HETATM   33  C21 UNL     1      17.617  -2.113  15.207  1.00  0.00     0.275 C 
HETATM   34  C22 UNL     1      15.768  -1.448  16.599  1.00  0.00     0.328 C 
BRANCH  34  35
HETATM   35  O2  UNL     1      16.839  -1.179  17.484  1.00  0.00    -0.369 OA
ATOM     36  H2  UNL     1      17.583  -0.967  16.933  1.00  0.00     0.212 HD
ENDBRANCH  34  35
ENDBRANCH  26  27
ENDBRANCH  23  26
ENDBRANCH  19  20
ENDBRANCH  18  19
ENDBRANCH  17  18
ENDBRANCH  16  17
ENDBRANCH  13  16
ENDBRANCH   9  12
ENDBRANCH   4   5
ENDBRANCH   3   4
TORSDOF 11
ENDMDL
