MODEL 1
REMARK VINA RESULT: -7.492231901      0.000      0.000
REMARK  11 active torsions:
REMARK  status: ('A' for Active; 'I' for Inactive)
REMARK    1  A    between atoms: N1_4  and  C5_6 
REMARK    2  A    between atoms: N2_18  and  C17_19 
REMARK    3  A    between atoms: N2_18  and  C23_32 
REMARK    4  A    between atoms: C17_19  and  C18_20 
REMARK    5  A    between atoms: C18_20  and  C19_21 
REMARK    6  A    between atoms: C19_21  and  N3_22 
REMARK       I    between atoms: N3_22  and  C20_24 
REMARK    7  A    between atoms: C20_24  and  C21_26 
REMARK    8  A    between atoms: C21_26  and  C22_27 
REMARK    9  A    between atoms: C22_27  and  N4_28 
REMARK   10  A    between atoms: C23_32  and  C24_33 
REMARK   11  A    between atoms: C24_33  and  N5_34 
REMARK       I    between atoms: N5_34  and  C25_36 
ROOT
HETATM    1  C1  UNL     1      10.547  -8.507  20.574  1.00  0.00     0.042 C 
HETATM    2  C2  UNL     1      11.894  -8.848  21.217  1.00  0.00     0.212 C 
HETATM    3  C3  UNL     1      12.342 -10.116  20.475  1.00  0.00     0.271 C 
HETATM    4  N1  UNL     1      13.534 -10.701  20.974  1.00  0.00    -0.058 N 
HETATM    5  C4  UNL     1      14.358 -10.990  19.783  1.00  0.00     0.273 C 
HETATM    6  C15 UNL     1      14.246  -9.690  21.727  1.00  0.00     0.266 C 
HETATM    7  C16 UNL     1      14.173  -8.330  21.075  1.00  0.00     0.266 C 
HETATM    8  N2  UNL     1      12.830  -7.776  21.102  1.00  0.00    -0.058 N 
ENDROOT
BRANCH   8   9
HETATM    9  C17 UNL     1      12.794  -6.835  22.212  1.00  0.00     0.243 C 
BRANCH   9  10
HETATM   10  C18 UNL     1      11.993  -5.639  22.041  1.00  0.00     0.072 C 
BRANCH  10  11
HETATM   11  C19 UNL     1      12.658  -4.357  22.368  1.00  0.00     0.065 C 
BRANCH  11  12
HETATM   12  N3  UNL     1      12.973  -3.998  23.693  1.00  0.00    -0.341 N 
HETATM   13  C20 UNL     1      14.148  -3.560  24.290  1.00  0.00     0.222 C 
HETATM   14  O1  UNL     1      15.223  -3.431  23.694  1.00  0.00    -0.273 OA
ATOM     15  H3  UNL     1      12.186  -4.074  24.338  1.00  0.00     0.167 HD
BRANCH  13  16
HETATM   16  C21 UNL     1      14.106  -3.221  25.768  1.00  0.00     0.130 C 
BRANCH  16  17
HETATM   17  C22 UNL     1      12.785  -3.612  26.343  1.00  0.00     0.238 C 
BRANCH  17  18
HETATM   18  N4  UNL     1      12.689  -3.190  27.723  1.00  0.00    -0.079 N 
ATOM     19  H43 UNL     1      12.159  -3.854  28.286  1.00  0.00     0.274 HD
ATOM     20  H42 UNL     1      13.585  -3.264  28.206  1.00  0.00     0.274 HD
ATOM     21  H41 UNL     1      12.302  -2.249  27.783  1.00  0.00     0.274 HD
ENDBRANCH  17  18
ENDBRANCH  16  17
ENDBRANCH  13  16
ENDBRANCH  11  12
ENDBRANCH  10  11
ENDBRANCH   9  10
ENDBRANCH   8   9
BRANCH   8  22
HETATM   22  C23 UNL     1      12.621  -7.130  19.824  1.00  0.00     0.257 C 
BRANCH  22  23
HETATM   23  C24 UNL     1      13.875  -6.835  19.062  1.00  0.00     0.150 C 
BRANCH  23  24
HETATM   24  N5  UNL     1      14.200  -5.435  19.202  1.00  0.00    -0.363 N 
HETATM   25  C25 UNL     1      15.396  -4.933  19.778  1.00  0.00     0.181 C 
HETATM   26  N6  UNL     1      16.068  -4.081  19.079  1.00  0.00    -0.374 N 
HETATM   27  N7  UNL     1      15.881  -5.304  21.040  1.00  0.00    -0.064 NA
ATOM     28  H62 UNL     1      15.715  -3.811  18.161  1.00  0.00     0.158 HD
ATOM     29  H61 UNL     1      16.928  -3.720  19.493  1.00  0.00     0.158 HD
ATOM     30  H5  UNL     1      13.519  -4.757  18.862  1.00  0.00     0.162 HD
ENDBRANCH  23  24
ENDBRANCH  22  23
ENDBRANCH   8  22
BRANCH   4  31
HETATM   31  C5  UNL     1      13.421 -11.918  21.702  1.00  0.00     0.130 C 
HETATM   32  C6  UNL     1      12.079 -12.593  21.565  1.00  0.00     0.044 C 
HETATM   33  C7  UNL     1      12.115 -13.972  22.178  1.00  0.00    -0.012 C 
HETATM   34  C8  UNL     1      13.234 -14.825  21.696  1.00  0.00     0.009 C 
HETATM   35  C12 UNL     1      12.215 -13.749  23.692  1.00  0.00     0.009 C 
HETATM   36  C9  UNL     1      14.533 -14.146  22.083  1.00  0.00    -0.012 C 
HETATM   37  C10 UNL     1      14.644 -13.904  23.555  1.00  0.00     0.009 C 
HETATM   38  C14 UNL     1      14.563 -12.839  21.279  1.00  0.00     0.044 C 
HETATM   39  C11 UNL     1      13.477 -13.006  23.947  1.00  0.00    -0.012 C 
HETATM   40  C13 UNL     1      13.644 -11.723  23.208  1.00  0.00     0.044 C 
ENDBRANCH   4  31
TORSDOF 11
ENDMDL
MODEL 2
REMARK VINA RESULT: -7.485868995      0.111      1.279
REMARK  11 active torsions:
REMARK  status: ('A' for Active; 'I' for Inactive)
REMARK    1  A    between atoms: N1_4  and  C5_6 
REMARK    2  A    between atoms: N2_18  and  C17_19 
REMARK    3  A    between atoms: N2_18  and  C23_32 
REMARK    4  A    between atoms: C17_19  and  C18_20 
REMARK    5  A    between atoms: C18_20  and  C19_21 
REMARK    6  A    between atoms: C19_21  and  N3_22 
REMARK       I    between atoms: N3_22  and  C20_24 
REMARK    7  A    between atoms: C20_24  and  C21_26 
REMARK    8  A    between atoms: C21_26  and  C22_27 
REMARK    9  A    between atoms: C22_27  and  N4_28 
REMARK   10  A    between atoms: C23_32  and  C24_33 
REMARK   11  A    between atoms: C24_33  and  N5_34 
REMARK       I    between atoms: N5_34  and  C25_36 
ROOT
HETATM    1  C1  UNL     1      10.640  -8.612  20.531  1.00  0.00     0.042 C 
HETATM    2  C2  UNL     1      11.982  -8.933  21.195  1.00  0.00     0.212 C 
HETATM    3  C3  UNL     1      12.470 -10.182  20.446  1.00  0.00     0.271 C 
HETATM    4  N1  UNL     1      13.665 -10.747  20.960  1.00  0.00    -0.058 N 
HETATM    5  C4  UNL     1      14.517 -11.004  19.782  1.00  0.00     0.273 C 
HETATM    6  C15 UNL     1      14.342  -9.731  21.738  1.00  0.00     0.266 C 
HETATM    7  C16 UNL     1      14.251  -8.365  21.101  1.00  0.00     0.266 C 
HETATM    8  N2  UNL     1      12.897  -7.839  21.111  1.00  0.00    -0.058 N 
ENDROOT
BRANCH   8   9
HETATM    9  C17 UNL     1      12.820  -6.914  22.231  1.00  0.00     0.243 C 
BRANCH   9  10
HETATM   10  C18 UNL     1      12.058  -5.696  22.034  1.00  0.00     0.072 C 
BRANCH  10  11
HETATM   11  C19 UNL     1      12.752  -4.432  22.366  1.00  0.00     0.065 C 
BRANCH  11  12
HETATM   12  N3  UNL     1      13.034  -4.063  23.696  1.00  0.00    -0.341 N 
HETATM   13  C20 UNL     1      14.192  -3.616  24.319  1.00  0.00     0.222 C 
HETATM   14  O1  UNL     1      15.281  -3.486  23.748  1.00  0.00    -0.273 OA
ATOM     15  H3  UNL     1      12.232  -4.139  24.322  1.00  0.00     0.167 HD
BRANCH  13  16
HETATM   16  C21 UNL     1      14.112  -3.268  25.792  1.00  0.00     0.130 C 
BRANCH  16  17
HETATM   17  C22 UNL     1      12.760  -3.607  26.324  1.00  0.00     0.238 C 
BRANCH  17  18
HETATM   18  N4  UNL     1      12.640  -3.193  27.705  1.00  0.00    -0.079 N 
ATOM     19  H43 UNL     1      12.080  -3.848  28.250  1.00  0.00     0.274 HD
ATOM     20  H42 UNL     1      13.521  -3.291  28.209  1.00  0.00     0.274 HD
ATOM     21  H41 UNL     1      12.274  -2.243  27.762  1.00  0.00     0.274 HD
ENDBRANCH  17  18
ENDBRANCH  16  17
ENDBRANCH  13  16
ENDBRANCH  11  12
ENDBRANCH  10  11
ENDBRANCH   9  10
ENDBRANCH   8   9
BRANCH   8  22
HETATM   22  C23 UNL     1      12.697  -7.182  19.837  1.00  0.00     0.257 C 
BRANCH  22  23
HETATM   23  C24 UNL     1      13.956  -6.877  19.088  1.00  0.00     0.150 C 
BRANCH  23  24
HETATM   24  N5  UNL     1      14.251  -5.468  19.204  1.00  0.00    -0.363 N 
HETATM   25  C25 UNL     1      15.440  -4.930  19.762  1.00  0.00     0.181 C 
HETATM   26  N6  UNL     1      16.087  -4.074  19.044  1.00  0.00    -0.374 N 
HETATM   27  N7  UNL     1      15.945  -5.271  21.024  1.00  0.00    -0.064 NA
ATOM     28  H62 UNL     1      15.719  -3.826  18.125  1.00  0.00     0.158 HD
ATOM     29  H61 UNL     1      16.941  -3.687  19.444  1.00  0.00     0.158 HD
ATOM     30  H5  UNL     1      13.552  -4.811  18.860  1.00  0.00     0.162 HD
ENDBRANCH  23  24
ENDBRANCH  22  23
ENDBRANCH   8  22
BRANCH   4  31
HETATM   31  C5  UNL     1      13.566 -11.975  21.671  1.00  0.00     0.130 C 
HETATM   32  C6  UNL     1      14.561 -13.020  21.231  1.00  0.00     0.044 C 
HETATM   33  C7  UNL     1      14.539 -14.201  22.172  1.00  0.00    -0.012 C 
HETATM   34  C8  UNL     1      14.687 -13.840  23.608  1.00  0.00     0.009 C 
HETATM   35  C12 UNL     1      13.197 -14.902  21.924  1.00  0.00     0.009 C 
HETATM   36  C9  UNL     1      13.510 -12.962  23.987  1.00  0.00    -0.012 C 
HETATM   37  C10 UNL     1      12.190 -13.622  23.738  1.00  0.00     0.009 C 
HETATM   38  C14 UNL     1      13.679 -11.678  23.164  1.00  0.00     0.044 C 
HETATM   39  C11 UNL     1      12.123 -13.928  22.247  1.00  0.00    -0.012 C 
HETATM   40  C13 UNL     1      12.181 -12.624  21.529  1.00  0.00     0.044 C 
ENDBRANCH   4  31
TORSDOF 11
ENDMDL
MODEL 3
REMARK VINA RESULT: -7.338339873      1.661      2.390
REMARK  11 active torsions:
REMARK  status: ('A' for Active; 'I' for Inactive)
REMARK    1  A    between atoms: N1_4  and  C5_6 
REMARK    2  A    between atoms: N2_18  and  C17_19 
REMARK    3  A    between atoms: N2_18  and  C23_32 
REMARK    4  A    between atoms: C17_19  and  C18_20 
REMARK    5  A    between atoms: C18_20  and  C19_21 
REMARK    6  A    between atoms: C19_21  and  N3_22 
REMARK       I    between atoms: N3_22  and  C20_24 
REMARK    7  A    between atoms: C20_24  and  C21_26 
REMARK    8  A    between atoms: C21_26  and  C22_27 
REMARK    9  A    between atoms: C22_27  and  N4_28 
REMARK   10  A    between atoms: C23_32  and  C24_33 
REMARK   11  A    between atoms: C24_33  and  N5_34 
REMARK       I    between atoms: N5_34  and  C25_36 
ROOT
HETATM    1  C1  UNL     1      12.382  -6.003  19.377  1.00  0.00     0.042 C 
HETATM    2  C2  UNL     1      13.460  -6.901  19.993  1.00  0.00     0.212 C 
HETATM    3  C3  UNL     1      13.163  -8.286  19.398  1.00  0.00     0.271 C 
HETATM    4  N1  UNL     1      13.973  -9.332  19.909  1.00  0.00    -0.058 N 
HETATM    5  C4  UNL     1      14.427 -10.091  18.727  1.00  0.00     0.273 C 
HETATM    6  C15 UNL     1      15.157  -8.737  20.491  1.00  0.00     0.266 C 
HETATM    7  C16 UNL     1      15.678  -7.578  19.674  1.00  0.00     0.266 C 
HETATM    8  N2  UNL     1      14.777  -6.438  19.696  1.00  0.00    -0.058 N 
ENDROOT
BRANCH   8   9
HETATM    9  C17 UNL     1      15.314  -5.506  20.676  1.00  0.00     0.243 C 
BRANCH   9  10
HETATM   10  C18 UNL     1      14.626  -5.413  21.948  1.00  0.00     0.072 C 
BRANCH  10  11
HETATM   11  C19 UNL     1      14.116  -4.073  22.317  1.00  0.00     0.065 C 
BRANCH  11  12
HETATM   12  N3  UNL     1      14.031  -3.651  23.659  1.00  0.00    -0.341 N 
HETATM   13  C20 UNL     1      13.205  -4.029  24.709  1.00  0.00     0.222 C 
HETATM   14  O1  UNL     1      12.298  -4.864  24.613  1.00  0.00    -0.273 OA
ATOM     15  H3  UNL     1      14.708  -2.929  23.906  1.00  0.00     0.167 HD
BRANCH  13  16
HETATM   16  C21 UNL     1      13.432  -3.374  26.058  1.00  0.00     0.130 C 
BRANCH  16  17
HETATM   17  C22 UNL     1      12.402  -3.842  27.032  1.00  0.00     0.238 C 
BRANCH  17  18
HETATM   18  N4  UNL     1      11.094  -3.345  26.665  1.00  0.00    -0.079 N 
ATOM     19  H43 UNL     1      10.537  -3.104  27.484  1.00  0.00     0.274 HD
ATOM     20  H42 UNL     1      11.146  -2.419  26.239  1.00  0.00     0.274 HD
ATOM     21  H41 UNL     1      10.614  -4.013  26.063  1.00  0.00     0.274 HD
ENDBRANCH  17  18
ENDBRANCH  16  17
ENDBRANCH  13  16
ENDBRANCH  11  12
ENDBRANCH  10  11
ENDBRANCH   9  10
ENDBRANCH   8   9
BRANCH   8  22
HETATM   22  C23 UNL     1      14.771  -5.888  18.356  1.00  0.00     0.257 C 
BRANCH  22  23
HETATM   23  C24 UNL     1      16.085  -5.336  17.902  1.00  0.00     0.150 C 
BRANCH  23  24
HETATM   24  N5  UNL     1      15.879  -4.033  17.316  1.00  0.00    -0.363 N 
HETATM   25  C25 UNL     1      16.413  -2.820  17.823  1.00  0.00     0.181 C 
HETATM   26  N6  UNL     1      17.072  -2.080  16.996  1.00  0.00    -0.374 N 
HETATM   27  N7  UNL     1      16.268  -2.388  19.148  1.00  0.00    -0.064 NA
ATOM     28  H62 UNL     1      17.176  -2.395  16.031  1.00  0.00     0.158 HD
ATOM     29  H61 UNL     1      17.455  -1.208  17.360  1.00  0.00     0.158 HD
ATOM     30  H5  UNL     1      15.307  -3.981  16.473  1.00  0.00     0.162 HD
ENDBRANCH  23  24
ENDBRANCH  22  23
ENDBRANCH   8  22
BRANCH   4  31
HETATM   31  C5  UNL     1      13.367 -10.269  20.792  1.00  0.00     0.130 C 
HETATM   32  C6  UNL     1      11.929 -10.581  20.462  1.00  0.00     0.044 C 
HETATM   33  C7  UNL     1      11.433 -11.736  21.298  1.00  0.00    -0.012 C 
HETATM   34  C8  UNL     1      12.303 -12.941  21.252  1.00  0.00     0.009 C 
HETATM   35  C12 UNL     1      11.329 -11.195  22.730  1.00  0.00     0.009 C 
HETATM   36  C9  UNL     1      13.658 -12.554  21.810  1.00  0.00    -0.012 C 
HETATM   37  C10 UNL     1      13.578 -12.008  23.201  1.00  0.00     0.009 C 
HETATM   38  C14 UNL     1      14.228 -11.530  20.819  1.00  0.00     0.044 C 
HETATM   39  C11 UNL     1      12.692 -10.770  23.141  1.00  0.00    -0.012 C 
HETATM   40  C13 UNL     1      13.372  -9.788  22.250  1.00  0.00     0.044 C 
ENDBRANCH   4  31
TORSDOF 11
ENDMDL
MODEL 4
REMARK VINA RESULT: -7.258008929      1.670      2.750
REMARK  11 active torsions:
REMARK  status: ('A' for Active; 'I' for Inactive)
REMARK    1  A    between atoms: N1_4  and  C5_6 
REMARK    2  A    between atoms: N2_18  and  C17_19 
REMARK    3  A    between atoms: N2_18  and  C23_32 
REMARK    4  A    between atoms: C17_19  and  C18_20 
REMARK    5  A    between atoms: C18_20  and  C19_21 
REMARK    6  A    between atoms: C19_21  and  N3_22 
REMARK       I    between atoms: N3_22  and  C20_24 
REMARK    7  A    between atoms: C20_24  and  C21_26 
REMARK    8  A    between atoms: C21_26  and  C22_27 
REMARK    9  A    between atoms: C22_27  and  N4_28 
REMARK   10  A    between atoms: C23_32  and  C24_33 
REMARK   11  A    between atoms: C24_33  and  N5_34 
REMARK       I    between atoms: N5_34  and  C25_36 
ROOT
HETATM    1  C1  UNL     1      12.409  -5.966  19.340  1.00  0.00     0.042 C 
HETATM    2  C2  UNL     1      13.485  -6.868  19.953  1.00  0.00     0.212 C 
HETATM    3  C3  UNL     1      13.200  -8.245  19.337  1.00  0.00     0.271 C 
HETATM    4  N1  UNL     1      14.010  -9.294  19.841  1.00  0.00    -0.058 N 
HETATM    5  C4  UNL     1      14.479 -10.035  18.653  1.00  0.00     0.273 C 
HETATM    6  C15 UNL     1      15.186  -8.702  20.443  1.00  0.00     0.266 C 
HETATM    7  C16 UNL     1      15.709  -7.530  19.648  1.00  0.00     0.266 C 
HETATM    8  N2  UNL     1      14.803  -6.394  19.676  1.00  0.00    -0.058 N 
ENDROOT
BRANCH   8   9
HETATM    9  C17 UNL     1      15.326  -5.474  20.675  1.00  0.00     0.243 C 
BRANCH   9  10
HETATM   10  C18 UNL     1      14.646  -5.429  21.955  1.00  0.00     0.072 C 
BRANCH  10  11
HETATM   11  C19 UNL     1      14.066  -4.122  22.339  1.00  0.00     0.065 C 
BRANCH  11  12
HETATM   12  N3  UNL     1      14.016  -3.694  23.680  1.00  0.00    -0.341 N 
HETATM   13  C20 UNL     1      13.196  -4.044  24.745  1.00  0.00     0.222 C 
HETATM   14  O1  UNL     1      12.262  -4.850  24.666  1.00  0.00    -0.273 OA
ATOM     15  H3  UNL     1      14.719  -2.992  23.914  1.00  0.00     0.167 HD
BRANCH  13  16
HETATM   16  C21 UNL     1      13.465  -3.392  26.087  1.00  0.00     0.130 C 
BRANCH  16  17
HETATM   17  C22 UNL     1      12.407  -3.782  27.065  1.00  0.00     0.238 C 
BRANCH  17  18
HETATM   18  N4  UNL     1      11.112  -3.311  26.625  1.00  0.00    -0.079 N 
ATOM     19  H43 UNL     1      10.815  -2.483  27.141  1.00  0.00     0.274 HD
ATOM     20  H42 UNL     1      11.154  -2.901  25.692  1.00  0.00     0.274 HD
ATOM     21  H41 UNL     1      10.421  -4.059  26.680  1.00  0.00     0.274 HD
ENDBRANCH  17  18
ENDBRANCH  16  17
ENDBRANCH  13  16
ENDBRANCH  11  12
ENDBRANCH  10  11
ENDBRANCH   9  10
ENDBRANCH   8   9
BRANCH   8  22
HETATM   22  C23 UNL     1      14.808  -5.826  18.345  1.00  0.00     0.257 C 
BRANCH  22  23
HETATM   23  C24 UNL     1      16.157  -5.413  17.848  1.00  0.00     0.150 C 
BRANCH  23  24
HETATM   24  N5  UNL     1      16.060  -4.114  17.226  1.00  0.00    -0.363 N 
HETATM   25  C25 UNL     1      16.552  -2.906  17.786  1.00  0.00     0.181 C 
HETATM   26  N6  UNL     1      17.330  -2.192  17.044  1.00  0.00    -0.374 N 
HETATM   27  N7  UNL     1      16.246  -2.453  19.077  1.00  0.00    -0.064 NA
ATOM     28  H62 UNL     1      17.552  -2.522  16.105  1.00  0.00     0.158 HD
ATOM     29  H61 UNL     1      17.683  -1.324  17.447  1.00  0.00     0.158 HD
ATOM     30  H5  UNL     1      15.603  -4.060  16.316  1.00  0.00     0.162 HD
ENDBRANCH  23  24
ENDBRANCH  22  23
ENDBRANCH   8  22
BRANCH   4  31
HETATM   31  C5  UNL     1      13.400 -10.247  20.704  1.00  0.00     0.130 C 
HETATM   32  C6  UNL     1      14.000 -11.628  20.615  1.00  0.00     0.044 C 
HETATM   33  C7  UNL     1      13.453 -12.514  21.708  1.00  0.00    -0.012 C 
HETATM   34  C8  UNL     1      13.557 -11.934  23.074  1.00  0.00     0.009 C 
HETATM   35  C12 UNL     1      11.986 -12.770  21.337  1.00  0.00     0.009 C 
HETATM   36  C9  UNL     1      12.736 -10.660  23.098  1.00  0.00    -0.012 C 
HETATM   37  C10 UNL     1      11.305 -10.885  22.724  1.00  0.00     0.009 C 
HETATM   38  C14 UNL     1      13.443  -9.702  22.129  1.00  0.00     0.044 C 
HETATM   39  C11 UNL     1      11.301 -11.453  21.310  1.00  0.00    -0.012 C 
HETATM   40  C13 UNL     1      11.901 -10.418  20.420  1.00  0.00     0.044 C 
ENDBRANCH   4  31
TORSDOF 11
ENDMDL
MODEL 5
REMARK VINA RESULT: -7.002312417      1.447      2.617
REMARK  11 active torsions:
REMARK  status: ('A' for Active; 'I' for Inactive)
REMARK    1  A    between atoms: N1_4  and  C5_6 
REMARK    2  A    between atoms: N2_18  and  C17_19 
REMARK    3  A    between atoms: N2_18  and  C23_32 
REMARK    4  A    between atoms: C17_19  and  C18_20 
REMARK    5  A    between atoms: C18_20  and  C19_21 
REMARK    6  A    between atoms: C19_21  and  N3_22 
REMARK       I    between atoms: N3_22  and  C20_24 
REMARK    7  A    between atoms: C20_24  and  C21_26 
REMARK    8  A    between atoms: C21_26  and  C22_27 
REMARK    9  A    between atoms: C22_27  and  N4_28 
REMARK   10  A    between atoms: C23_32  and  C24_33 
REMARK   11  A    between atoms: C24_33  and  N5_34 
REMARK       I    between atoms: N5_34  and  C25_36 
ROOT
HETATM    1  C1  UNL     1      11.994  -6.310  18.454  1.00  0.00     0.042 C 
HETATM    2  C2  UNL     1      12.990  -6.770  19.522  1.00  0.00     0.212 C 
HETATM    3  C3  UNL     1      13.357  -8.196  19.089  1.00  0.00     0.271 C 
HETATM    4  N1  UNL     1      14.199  -8.889  19.995  1.00  0.00    -0.058 N 
HETATM    5  C4  UNL     1      15.255  -9.499  19.163  1.00  0.00     0.273 C 
HETATM    6  C15 UNL     1      14.857  -7.909  20.833  1.00  0.00     0.266 C 
HETATM    7  C16 UNL     1      15.266  -6.676  20.063  1.00  0.00     0.266 C 
HETATM    8  N2  UNL     1      14.123  -5.904  19.607  1.00  0.00    -0.058 N 
ENDROOT
BRANCH   8   9
HETATM    9  C17 UNL     1      13.963  -4.808  20.551  1.00  0.00     0.243 C 
BRANCH   9  10
HETATM   10  C18 UNL     1      12.778  -4.819  21.386  1.00  0.00     0.072 C 
BRANCH  10  11
HETATM   11  C19 UNL     1      12.932  -5.427  22.727  1.00  0.00     0.065 C 
BRANCH  11  12
HETATM   12  N3  UNL     1      13.110  -4.644  23.884  1.00  0.00    -0.341 N 
HETATM   13  C20 UNL     1      14.160  -3.846  24.322  1.00  0.00     0.222 C 
HETATM   14  O1  UNL     1      15.226  -3.706  23.713  1.00  0.00    -0.273 OA
ATOM     15  H3  UNL     1      12.316  -4.668  24.524  1.00  0.00     0.167 HD
BRANCH  13  16
HETATM   16  C21 UNL     1      13.982  -3.101  25.630  1.00  0.00     0.130 C 
BRANCH  16  17
HETATM   17  C22 UNL     1      12.748  -3.575  26.324  1.00  0.00     0.238 C 
BRANCH  17  18
HETATM   18  N4  UNL     1      12.758  -3.166  27.711  1.00  0.00    -0.079 N 
ATOM     19  H43 UNL     1      12.766  -3.967  28.343  1.00  0.00     0.274 HD
ATOM     20  H42 UNL     1      13.652  -2.753  27.979  1.00  0.00     0.274 HD
ATOM     21  H41 UNL     1      11.978  -2.539  27.904  1.00  0.00     0.274 HD
ENDBRANCH  17  18
ENDBRANCH  16  17
ENDBRANCH  13  16
ENDBRANCH  11  12
ENDBRANCH  10  11
ENDBRANCH   9  10
ENDBRANCH   8   9
BRANCH   8  22
HETATM   22  C23 UNL     1      14.439  -5.442  18.272  1.00  0.00     0.257 C 
BRANCH  22  23
HETATM   23  C24 UNL     1      15.901  -5.385  17.962  1.00  0.00     0.150 C 
BRANCH  23  24
HETATM   24  N5  UNL     1      16.195  -4.149  17.276  1.00  0.00    -0.363 N 
HETATM   25  C25 UNL     1      16.770  -3.001  17.880  1.00  0.00     0.181 C 
HETATM   26  N6  UNL     1      17.816  -2.503  17.311  1.00  0.00    -0.374 N 
HETATM   27  N7  UNL     1      16.276  -2.388  19.040  1.00  0.00    -0.064 NA
ATOM     28  H62 UNL     1      18.175  -2.949  16.467  1.00  0.00     0.158 HD
ATOM     29  H61 UNL     1      18.229  -1.678  17.745  1.00  0.00     0.158 HD
ATOM     30  H5  UNL     1      15.972  -4.098  16.282  1.00  0.00     0.162 HD
ENDBRANCH  23  24
ENDBRANCH  22  23
ENDBRANCH   8  22
BRANCH   4  31
HETATM   31  C5  UNL     1      13.625  -9.939  20.764  1.00  0.00     0.130 C 
HETATM   32  C6  UNL     1      13.432  -9.598  22.221  1.00  0.00     0.044 C 
HETATM   33  C7  UNL     1      12.622 -10.668  22.913  1.00  0.00    -0.012 C 
HETATM   34  C8  UNL     1      11.343 -11.003  22.231  1.00  0.00     0.009 C 
HETATM   35  C12 UNL     1      13.538 -11.897  22.983  1.00  0.00     0.009 C 
HETATM   36  C9  UNL     1      11.680 -11.537  20.853  1.00  0.00    -0.012 C 
HETATM   37  C10 UNL     1      12.586 -12.728  20.899  1.00  0.00     0.009 C 
HETATM   38  C14 UNL     1      12.314 -10.358  20.103  1.00  0.00     0.044 C 
HETATM   39  C11 UNL     1      13.870 -12.282  21.587  1.00  0.00    -0.012 C 
HETATM   40  C13 UNL     1      14.475 -11.217  20.738  1.00  0.00     0.044 C 
ENDBRANCH   4  31
TORSDOF 11
ENDMDL
