MODEL 1
REMARK VINA RESULT: -6.573241111      0.000      0.000
REMARK  11 active torsions:
REMARK  status: ('A' for Active; 'I' for Inactive)
REMARK    1  A    between atoms: C2_2  and  C4_4 
REMARK    2  A    between atoms: C4_4  and  C5_5 
REMARK    3  A    between atoms: C11_14  and  C12_15 
REMARK    4  A    between atoms: C12_15  and  C13_16 
REMARK    5  A    between atoms: C13_16  and  C14_17 
REMARK    6  A    between atoms: C14_17  and  N2_18 
REMARK    7  A    between atoms: N5_24  and  C17_25 
REMARK    8  A    between atoms: C17_25  and  C18_26 
REMARK    9  A    between atoms: C19_27  and  C20_28 
REMARK   10  A    between atoms: C20_28  and  C21_29 
REMARK   11  A    between atoms: C21_29  and  N6_30 
ROOT
HETATM    1  C5  UNL     1      15.171  -3.239  17.690  1.00  0.00     0.177 C 
HETATM    2  N1  UNL     1      16.227  -4.115  18.044  1.00  0.00    -0.346 N 
ATOM      3  H1  UNL     1      17.171  -3.749  18.166  1.00  0.00     0.163 HD
HETATM    4  C6  UNL     1      15.970  -5.521  18.234  1.00  0.00     0.247 C 
HETATM    5  O1  UNL     1      16.786  -6.357  17.809  1.00  0.00    -0.271 OA
HETATM    6  C7  UNL     1      14.694  -5.891  18.955  1.00  0.00     0.117 C 
HETATM    7  C8  UNL     1      14.664  -7.395  19.009  1.00  0.00     0.041 C 
HETATM    8  C9  UNL     1      15.622  -7.783  20.147  1.00  0.00     0.003 C 
HETATM    9  C10 UNL     1      14.965  -7.472  21.503  1.00  0.00     0.005 C 
HETATM   10  C11 UNL     1      14.073  -6.309  21.376  1.00  0.00    -0.012 C 
HETATM   11  C16 UNL     1      14.703  -5.336  20.343  1.00  0.00     0.045 C 
HETATM   12  N5  UNL     1      13.652  -5.278  18.200  1.00  0.00    -0.321 N 
HETATM   13  C25 UNL     1      13.901  -4.050  17.547  1.00  0.00     0.244 C 
HETATM   14  O2  UNL     1      12.974  -3.596  16.780  1.00  0.00    -0.271 OA
ENDROOT
BRANCH  12  15
HETATM   15  C17 UNL     1      12.322  -5.849  18.037  1.00  0.00     0.221 C 
BRANCH  15  16
HETATM   16  C18 UNL     1      11.491  -5.222  19.084  1.00  0.00    -0.087 C 
HETATM   17  C19 UNL     1      10.801  -4.697  19.922  1.00  0.00    -0.103 C 
BRANCH  17  18
HETATM   18  C20 UNL     1       9.950  -4.043  20.913  1.00  0.00     0.122 C 
BRANCH  18  19
HETATM   19  C21 UNL     1       8.585  -4.688  20.974  1.00  0.00     0.249 C 
BRANCH  19  20
HETATM   20  N6  UNL     1       7.566  -3.881  20.368  1.00  0.00    -0.067 N 
HETATM   21  C22 UNL     1       7.318  -2.558  20.896  1.00  0.00     0.272 C 
HETATM   22  C23 UNL     1       7.338  -4.123  18.952  1.00  0.00     0.265 A 
HETATM   23  C24 UNL     1       6.367  -4.624  19.994  1.00  0.00     0.265 A 
ENDBRANCH  19  20
ENDBRANCH  18  19
ENDBRANCH  17  18
ENDBRANCH  15  16
ENDBRANCH  12  15
BRANCH  10  24
HETATM   24  C12 UNL     1      13.782  -5.450  22.552  1.00  0.00     0.006 C 
BRANCH  24  25
HETATM   25  C13 UNL     1      14.206  -4.049  22.595  1.00  0.00     0.020 C 
BRANCH  25  26
HETATM   26  C14 UNL     1      14.408  -3.500  23.966  1.00  0.00     0.122 C 
BRANCH  26  27
HETATM   27  N2  UNL     1      13.152  -3.736  24.705  1.00  0.00    -0.367 N 
HETATM   28  C15 UNL     1      13.120  -3.607  25.973  1.00  0.00     0.196 C 
HETATM   29  N3  UNL     1      11.907  -3.833  26.712  1.00  0.00    -0.067 NA
HETATM   30  N4  UNL     1      14.304  -3.234  26.659  1.00  0.00    -0.067 NA
ATOM     31  H2  UNL     1      12.308  -4.003  24.199  1.00  0.00     0.161 HD
ENDBRANCH  26  27
ENDBRANCH  25  26
ENDBRANCH  24  25
ENDBRANCH  10  24
BRANCH   1  32
HETATM   32  C4  UNL     1      15.284  -2.445  16.442  1.00  0.00     0.038 C 
BRANCH  32  33
HETATM   33  C2  UNL     1      15.531  -0.997  16.510  1.00  0.00    -0.020 C 
HETATM   34  C1  UNL     1      16.336  -0.474  15.376  1.00  0.00     0.009 C 
HETATM   35  C3  UNL     1      14.179  -0.274  16.532  1.00  0.00     0.009 C 
ENDBRANCH  32  33
ENDBRANCH   1  32
TORSDOF 11
ENDMDL
MODEL 2
REMARK VINA RESULT: -6.554541668      3.332      7.359
REMARK  11 active torsions:
REMARK  status: ('A' for Active; 'I' for Inactive)
REMARK    1  A    between atoms: C2_2  and  C4_4 
REMARK    2  A    between atoms: C4_4  and  C5_5 
REMARK    3  A    between atoms: C11_14  and  C12_15 
REMARK    4  A    between atoms: C12_15  and  C13_16 
REMARK    5  A    between atoms: C13_16  and  C14_17 
REMARK    6  A    between atoms: C14_17  and  N2_18 
REMARK    7  A    between atoms: N5_24  and  C17_25 
REMARK    8  A    between atoms: C17_25  and  C18_26 
REMARK    9  A    between atoms: C19_27  and  C20_28 
REMARK   10  A    between atoms: C20_28  and  C21_29 
REMARK   11  A    between atoms: C21_29  and  N6_30 
ROOT
HETATM    1  C5  UNL     1      13.177  -9.868  22.337  1.00  0.00     0.177 C 
HETATM    2  N1  UNL     1      11.834  -9.633  22.726  1.00  0.00    -0.346 N 
ATOM      3  H1  UNL     1      11.528  -9.880  23.667  1.00  0.00     0.163 HD
HETATM    4  C6  UNL     1      10.901  -9.047  21.796  1.00  0.00     0.247 C 
HETATM    5  O1  UNL     1       9.735  -9.477  21.744  1.00  0.00    -0.271 OA
HETATM    6  C7  UNL     1      11.417  -7.923  20.927  1.00  0.00     0.117 C 
HETATM    7  C8  UNL     1      10.265  -7.504  20.055  1.00  0.00     0.041 C 
HETATM    8  C9  UNL     1       9.369  -6.632  20.949  1.00  0.00     0.003 C 
HETATM    9  C10 UNL     1      10.032  -5.260  21.161  1.00  0.00     0.005 C 
HETATM   10  C11 UNL     1      11.497  -5.400  21.141  1.00  0.00    -0.012 C 
HETATM   11  C16 UNL     1      11.853  -6.771  21.775  1.00  0.00     0.045 C 
HETATM   12  N5  UNL     1      12.543  -8.470  20.246  1.00  0.00    -0.321 N 
HETATM   13  C25 UNL     1      13.340  -9.441  20.894  1.00  0.00     0.244 C 
HETATM   14  O2  UNL     1      14.270  -9.994  20.199  1.00  0.00    -0.271 OA
ENDROOT
BRANCH  12  15
HETATM   15  C17 UNL     1      12.931  -8.102  18.892  1.00  0.00     0.221 C 
BRANCH  15  16
HETATM   16  C18 UNL     1      13.863  -6.967  19.042  1.00  0.00    -0.087 C 
HETATM   17  C19 UNL     1      14.639  -6.054  19.179  1.00  0.00    -0.103 C 
BRANCH  17  18
HETATM   18  C20 UNL     1      15.595  -4.966  19.366  1.00  0.00     0.122 C 
BRANCH  18  19
HETATM   19  C21 UNL     1      15.261  -3.784  18.485  1.00  0.00     0.249 C 
BRANCH  19  20
HETATM   20  N6  UNL     1      16.374  -3.357  17.688  1.00  0.00    -0.067 N 
HETATM   21  C22 UNL     1      17.127  -4.349  16.953  1.00  0.00     0.272 C 
HETATM   22  C23 UNL     1      16.274  -2.012  17.144  1.00  0.00     0.265 A 
HETATM   23  C24 UNL     1      17.183  -2.315  18.311  1.00  0.00     0.265 A 
ENDBRANCH  19  20
ENDBRANCH  18  19
ENDBRANCH  17  18
ENDBRANCH  15  16
ENDBRANCH  12  15
BRANCH  10  24
HETATM   24  C12 UNL     1      12.356  -4.430  21.868  1.00  0.00     0.006 C 
BRANCH  24  25
HETATM   25  C13 UNL     1      13.564  -4.864  22.572  1.00  0.00     0.020 C 
BRANCH  25  26
HETATM   26  C14 UNL     1      13.916  -4.047  23.769  1.00  0.00     0.122 C 
BRANCH  26  27
HETATM   27  N2  UNL     1      12.811  -4.209  24.732  1.00  0.00    -0.367 N 
HETATM   28  C15 UNL     1      12.899  -3.707  25.901  1.00  0.00     0.196 C 
HETATM   29  N3  UNL     1      11.834  -3.854  26.856  1.00  0.00    -0.067 NA
HETATM   30  N4  UNL     1      14.073  -2.993  26.259  1.00  0.00    -0.067 NA
ATOM     31  H2  UNL     1      11.973  -4.724  24.462  1.00  0.00     0.161 HD
ENDBRANCH  26  27
ENDBRANCH  25  26
ENDBRANCH  24  25
ENDBRANCH  10  24
BRANCH   1  32
HETATM   32  C4  UNL     1      13.716 -11.247  22.412  1.00  0.00     0.038 C 
BRANCH  32  33
HETATM   33  C2  UNL     1      13.077 -12.243  23.285  1.00  0.00    -0.020 C 
HETATM   34  C1  UNL     1      12.176 -13.179  22.566  1.00  0.00     0.009 C 
HETATM   35  C3  UNL     1      14.176 -13.052  23.983  1.00  0.00     0.009 C 
ENDBRANCH  32  33
ENDBRANCH   1  32
TORSDOF 11
ENDMDL
MODEL 3
REMARK VINA RESULT: -6.489577960      4.600      6.584
REMARK  11 active torsions:
REMARK  status: ('A' for Active; 'I' for Inactive)
REMARK    1  A    between atoms: C2_2  and  C4_4 
REMARK    2  A    between atoms: C4_4  and  C5_5 
REMARK    3  A    between atoms: C11_14  and  C12_15 
REMARK    4  A    between atoms: C12_15  and  C13_16 
REMARK    5  A    between atoms: C13_16  and  C14_17 
REMARK    6  A    between atoms: C14_17  and  N2_18 
REMARK    7  A    between atoms: N5_24  and  C17_25 
REMARK    8  A    between atoms: C17_25  and  C18_26 
REMARK    9  A    between atoms: C19_27  and  C20_28 
REMARK   10  A    between atoms: C20_28  and  C21_29 
REMARK   11  A    between atoms: C21_29  and  N6_30 
ROOT
HETATM    1  C5  UNL     1      13.991  -4.606  23.314  1.00  0.00     0.177 C 
HETATM    2  N1  UNL     1      15.167  -5.097  22.695  1.00  0.00    -0.346 N 
ATOM      3  H1  UNL     1      16.028  -5.182  23.235  1.00  0.00     0.163 HD
HETATM    4  C6  UNL     1      15.150  -5.478  21.304  1.00  0.00     0.247 C 
HETATM    5  O1  UNL     1      16.116  -5.188  20.577  1.00  0.00    -0.271 OA
HETATM    6  C7  UNL     1      13.929  -6.223  20.814  1.00  0.00     0.117 C 
HETATM    7  C8  UNL     1      14.158  -6.486  19.351  1.00  0.00     0.041 C 
HETATM    8  C9  UNL     1      15.122  -7.683  19.296  1.00  0.00     0.003 C 
HETATM    9  C10 UNL     1      14.365  -8.970  19.665  1.00  0.00     0.005 C 
HETATM   10  C11 UNL     1      13.291  -8.667  20.624  1.00  0.00    -0.012 C 
HETATM   11  C16 UNL     1      13.785  -7.518  21.544  1.00  0.00     0.045 C 
HETATM   12  N5  UNL     1      12.829  -5.371  21.126  1.00  0.00    -0.321 N 
HETATM   13  C25 UNL     1      12.888  -4.557  22.279  1.00  0.00     0.244 C 
HETATM   14  O2  UNL     1      11.928  -3.719  22.453  1.00  0.00    -0.271 OA
ENDROOT
BRANCH  12  15
HETATM   15  C17 UNL     1      11.626  -5.268  20.311  1.00  0.00     0.221 C 
BRANCH  15  16
HETATM   16  C18 UNL     1      10.715  -6.314  20.817  1.00  0.00    -0.087 C 
HETATM   17  C19 UNL     1       9.977  -7.183  21.212  1.00  0.00    -0.103 C 
BRANCH  17  18
HETATM   18  C20 UNL     1       9.093  -8.254  21.664  1.00  0.00     0.122 C 
BRANCH  18  19
HETATM   19  C21 UNL     1       9.212  -9.474  20.781  1.00  0.00     0.249 C 
BRANCH  19  20
HETATM   20  N6  UNL     1       9.255 -10.696  21.530  1.00  0.00    -0.067 N 
HETATM   21  C22 UNL     1       9.755 -11.891  20.889  1.00  0.00     0.272 C 
HETATM   22  C23 UNL     1       9.440 -10.542  22.965  1.00  0.00     0.265 A 
HETATM   23  C24 UNL     1       8.093 -10.904  22.388  1.00  0.00     0.265 A 
ENDBRANCH  19  20
ENDBRANCH  18  19
ENDBRANCH  17  18
ENDBRANCH  15  16
ENDBRANCH  12  15
BRANCH  10  24
HETATM   24  C12 UNL     1      12.808  -9.706  21.568  1.00  0.00     0.006 C 
BRANCH  24  25
HETATM   25  C13 UNL     1      13.723 -10.690  22.150  1.00  0.00     0.020 C 
BRANCH  25  26
HETATM   26  C14 UNL     1      13.057 -11.832  22.839  1.00  0.00     0.122 C 
BRANCH  26  27
HETATM   27  N2  UNL     1      14.092 -12.498  23.653  1.00  0.00    -0.367 N 
HETATM   28  C15 UNL     1      13.798 -13.522  24.352  1.00  0.00     0.196 C 
HETATM   29  N3  UNL     1      14.791 -14.186  25.153  1.00  0.00    -0.067 NA
HETATM   30  N4  UNL     1      12.465 -14.010  24.336  1.00  0.00    -0.067 NA
ATOM     31  H2  UNL     1      15.046 -12.137  23.655  1.00  0.00     0.161 HD
ENDBRANCH  26  27
ENDBRANCH  25  26
ENDBRANCH  24  25
ENDBRANCH  10  24
BRANCH   1  32
HETATM   32  C4  UNL     1      14.015  -3.262  23.940  1.00  0.00     0.038 C 
BRANCH  32  33
HETATM   33  C2  UNL     1      13.761  -3.114  25.380  1.00  0.00    -0.020 C 
HETATM   34  C1  UNL     1      12.555  -3.841  25.853  1.00  0.00     0.009 C 
HETATM   35  C3  UNL     1      14.984  -3.636  26.144  1.00  0.00     0.009 C 
ENDBRANCH  32  33
ENDBRANCH   1  32
TORSDOF 11
ENDMDL
MODEL 4
REMARK VINA RESULT: -6.478198016      1.237      1.650
REMARK  11 active torsions:
REMARK  status: ('A' for Active; 'I' for Inactive)
REMARK    1  A    between atoms: C2_2  and  C4_4 
REMARK    2  A    between atoms: C4_4  and  C5_5 
REMARK    3  A    between atoms: C11_14  and  C12_15 
REMARK    4  A    between atoms: C12_15  and  C13_16 
REMARK    5  A    between atoms: C13_16  and  C14_17 
REMARK    6  A    between atoms: C14_17  and  N2_18 
REMARK    7  A    between atoms: N5_24  and  C17_25 
REMARK    8  A    between atoms: C17_25  and  C18_26 
REMARK    9  A    between atoms: C19_27  and  C20_28 
REMARK   10  A    between atoms: C20_28  and  C21_29 
REMARK   11  A    between atoms: C21_29  and  N6_30 
ROOT
HETATM    1  C5  UNL     1      14.993  -4.242  18.328  1.00  0.00     0.177 C 
HETATM    2  N1  UNL     1      15.718  -5.328  18.877  1.00  0.00    -0.346 N 
ATOM      3  H1  UNL     1      16.689  -5.199  19.161  1.00  0.00     0.163 HD
HETATM    4  C6  UNL     1      15.088  -6.616  19.035  1.00  0.00     0.247 C 
HETATM    5  O1  UNL     1      15.729  -7.649  18.773  1.00  0.00    -0.271 OA
HETATM    6  C7  UNL     1      13.656  -6.621  19.520  1.00  0.00     0.117 C 
HETATM    7  C8  UNL     1      13.241  -8.066  19.586  1.00  0.00     0.041 C 
HETATM    8  C9  UNL     1      13.863  -8.612  20.881  1.00  0.00     0.003 C 
HETATM    9  C10 UNL     1      13.083  -8.073  22.093  1.00  0.00     0.005 C 
HETATM   10  C11 UNL     1      12.547  -6.736  21.794  1.00  0.00    -0.012 C 
HETATM   11  C16 UNL     1      13.568  -6.008  20.879  1.00  0.00     0.045 C 
HETATM   12  N5  UNL     1      12.947  -5.815  18.582  1.00  0.00    -0.321 N 
HETATM   13  C25 UNL     1      13.603  -4.724  17.970  1.00  0.00     0.244 C 
HETATM   14  O2  UNL     1      12.965  -4.101  17.044  1.00  0.00    -0.271 OA
ENDROOT
BRANCH  12  15
HETATM   15  C17 UNL     1      11.564  -6.051  18.191  1.00  0.00     0.221 C 
BRANCH  15  16
HETATM   16  C18 UNL     1      10.748  -5.227  19.105  1.00  0.00    -0.087 C 
HETATM   17  C19 UNL     1      10.081  -4.572  19.868  1.00  0.00    -0.103 C 
BRANCH  17  18
HETATM   18  C20 UNL     1       9.274  -3.805  20.812  1.00  0.00     0.122 C 
BRANCH  18  19
HETATM   19  C21 UNL     1       7.899  -4.408  20.975  1.00  0.00     0.249 C 
BRANCH  19  20
HETATM   20  N6  UNL     1       6.853  -3.516  20.566  1.00  0.00    -0.067 N 
HETATM   21  C22 UNL     1       6.254  -3.695  19.262  1.00  0.00     0.272 C 
HETATM   22  C23 UNL     1       6.037  -2.976  21.642  1.00  0.00     0.265 A 
HETATM   23  C24 UNL     1       7.076  -2.126  20.950  1.00  0.00     0.265 A 
ENDBRANCH  19  20
ENDBRANCH  18  19
ENDBRANCH  17  18
ENDBRANCH  15  16
ENDBRANCH  12  15
BRANCH  10  24
HETATM   24  C12 UNL     1      12.285  -5.767  22.889  1.00  0.00     0.006 C 
BRANCH  24  25
HETATM   25  C13 UNL     1      12.613  -4.347  22.743  1.00  0.00     0.020 C 
BRANCH  25  26
HETATM   26  C14 UNL     1      13.374  -3.763  23.885  1.00  0.00     0.122 C 
BRANCH  26  27
HETATM   27  N2  UNL     1      12.580  -4.025  25.100  1.00  0.00    -0.367 N 
HETATM   28  C15 UNL     1      12.998  -3.628  26.238  1.00  0.00     0.196 C 
HETATM   29  N3  UNL     1      12.240  -3.874  27.435  1.00  0.00    -0.067 NA
HETATM   30  N4  UNL     1      14.233  -2.933  26.315  1.00  0.00    -0.067 NA
ATOM     31  H2  UNL     1      11.695  -4.526  25.030  1.00  0.00     0.161 HD
ENDBRANCH  26  27
ENDBRANCH  25  26
ENDBRANCH  24  25
ENDBRANCH  10  24
BRANCH   1  32
HETATM   32  C4  UNL     1      15.512  -3.572  17.112  1.00  0.00     0.038 C 
BRANCH  32  33
HETATM   33  C2  UNL     1      16.137  -2.244  17.211  1.00  0.00    -0.020 C 
HETATM   34  C1  UNL     1      17.226  -2.169  18.218  1.00  0.00     0.009 C 
HETATM   35  C3  UNL     1      16.706  -1.873  15.837  1.00  0.00     0.009 C 
ENDBRANCH  32  33
ENDBRANCH   1  32
TORSDOF 11
ENDMDL
MODEL 5
REMARK VINA RESULT: -6.374397654      4.893      6.757
REMARK  11 active torsions:
REMARK  status: ('A' for Active; 'I' for Inactive)
REMARK    1  A    between atoms: C2_2  and  C4_4 
REMARK    2  A    between atoms: C4_4  and  C5_5 
REMARK    3  A    between atoms: C11_14  and  C12_15 
REMARK    4  A    between atoms: C12_15  and  C13_16 
REMARK    5  A    between atoms: C13_16  and  C14_17 
REMARK    6  A    between atoms: C14_17  and  N2_18 
REMARK    7  A    between atoms: N5_24  and  C17_25 
REMARK    8  A    between atoms: C17_25  and  C18_26 
REMARK    9  A    between atoms: C19_27  and  C20_28 
REMARK   10  A    between atoms: C20_28  and  C21_29 
REMARK   11  A    between atoms: C21_29  and  N6_30 
ROOT
HETATM    1  C5  UNL     1      13.582  -5.528  22.902  1.00  0.00     0.177 C 
HETATM    2  N1  UNL     1      14.898  -5.570  22.379  1.00  0.00    -0.346 N 
ATOM      3  H1  UNL     1      15.694  -5.395  22.992  1.00  0.00     0.163 HD
HETATM    4  C6  UNL     1      15.115  -5.860  20.983  1.00  0.00     0.247 C 
HETATM    5  O1  UNL     1      15.981  -5.229  20.353  1.00  0.00    -0.271 OA
HETATM    6  C7  UNL     1      14.252  -6.938  20.367  1.00  0.00     0.117 C 
HETATM    7  C8  UNL     1      14.667  -7.032  18.923  1.00  0.00     0.041 C 
HETATM    8  C9  UNL     1      15.975  -7.840  18.925  1.00  0.00     0.003 C 
HETATM    9  C10 UNL     1      15.664  -9.323  19.192  1.00  0.00     0.005 C 
HETATM   10  C11 UNL     1      14.480  -9.442  20.058  1.00  0.00    -0.012 C 
HETATM   11  C16 UNL     1      14.492  -8.246  21.047  1.00  0.00     0.045 C 
HETATM   12  N5  UNL     1      12.911  -6.514  20.599  1.00  0.00    -0.321 N 
HETATM   13  C25 UNL     1      12.607  -5.790  21.774  1.00  0.00     0.244 C 
HETATM   14  O2  UNL     1      11.413  -5.325  21.882  1.00  0.00    -0.271 OA
ENDROOT
BRANCH  12  15
HETATM   15  C17 UNL     1      11.808  -6.770  19.683  1.00  0.00     0.221 C 
BRANCH  15  16
HETATM   16  C18 UNL     1      11.171  -8.011  20.166  1.00  0.00    -0.087 C 
HETATM   17  C19 UNL     1      10.663  -9.022  20.582  1.00  0.00    -0.103 C 
BRANCH  17  18
HETATM   18  C20 UNL     1      10.062 -10.242  21.115  1.00  0.00     0.122 C 
BRANCH  18  19
HETATM   19  C21 UNL     1       9.575 -10.041  22.531  1.00  0.00     0.249 C 
BRANCH  19  20
HETATM   20  N6  UNL     1       9.316 -11.279  23.207  1.00  0.00    -0.067 N 
HETATM   21  C22 UNL     1       9.940 -11.519  24.489  1.00  0.00     0.272 C 
HETATM   22  C23 UNL     1       8.017 -11.877  22.939  1.00  0.00     0.265 A 
HETATM   23  C24 UNL     1       9.274 -12.439  22.321  1.00  0.00     0.265 A 
ENDBRANCH  19  20
ENDBRANCH  18  19
ENDBRANCH  17  18
ENDBRANCH  15  16
ENDBRANCH  12  15
BRANCH  10  24
HETATM   24  C12 UNL     1      14.300 -10.631  20.928  1.00  0.00     0.006 C 
BRANCH  24  25
HETATM   25  C13 UNL     1      13.664 -10.523  22.243  1.00  0.00     0.020 C 
BRANCH  25  26
HETATM   26  C14 UNL     1      13.043 -11.783  22.742  1.00  0.00     0.122 C 
BRANCH  26  27
HETATM   27  N2  UNL     1      14.023 -12.406  23.652  1.00  0.00    -0.367 N 
HETATM   28  C15 UNL     1      13.741 -13.496  24.251  1.00  0.00     0.196 C 
HETATM   29  N3  UNL     1      14.681 -14.119  25.143  1.00  0.00    -0.067 NA
HETATM   30  N4  UNL     1      12.475 -14.097  24.029  1.00  0.00    -0.067 NA
ATOM     31  H2  UNL     1      14.929 -11.963  23.803  1.00  0.00     0.161 HD
ENDBRANCH  26  27
ENDBRANCH  25  26
ENDBRANCH  24  25
ENDBRANCH  10  24
BRANCH   1  32
HETATM   32  C4  UNL     1      13.109  -4.286  23.561  1.00  0.00     0.038 C 
BRANCH  32  33
HETATM   33  C2  UNL     1      13.454  -4.020  24.966  1.00  0.00    -0.020 C 
HETATM   34  C1  UNL     1      14.408  -2.897  25.145  1.00  0.00     0.009 C 
HETATM   35  C3  UNL     1      12.163  -3.700  25.729  1.00  0.00     0.009 C 
ENDBRANCH  32  33
ENDBRANCH   1  32
TORSDOF 11
ENDMDL
