MODEL 1
REMARK VINA RESULT: -7.538694545      0.000      0.000
REMARK  14 active torsions:
REMARK  status: ('A' for Active; 'I' for Inactive)
REMARK    1  A    between atoms: C2_2  and  N1_5 
REMARK       I    between atoms: N1_5  and  C5_7 
REMARK    2  A    between atoms: C5_7  and  C6_9 
REMARK    3  A    between atoms: C7_10  and  C8_11 
REMARK    4  A    between atoms: C8_11  and  O2_12 
REMARK    5  A    between atoms: N2_14  and  O3_16 
REMARK    6  A    between atoms: N3_26  and  C17_27 
REMARK    7  A    between atoms: C17_27  and  O4_28 
REMARK    8  A    between atoms: C17_27  and  C18_30 
REMARK    9  A    between atoms: C18_30  and  C19_31 
REMARK   10  A    between atoms: C18_30  and  C25_37 
REMARK   11  A    between atoms: C19_31  and  C20_32 
REMARK   12  A    between atoms: C25_37  and  N4_38 
REMARK   13  A    between atoms: N4_38  and  O5_39 
REMARK   14  A    between atoms: N4_38  and  C26_41 
ROOT
HETATM    1  C6  UNL     1      -1.923 -24.786  27.547  1.00  0.00     0.192 C 
HETATM    2  C7  UNL     1      -2.313 -24.760  28.993  1.00  0.00     0.097 C 
HETATM    3  C9  UNL     1      -2.191 -23.322  29.366  1.00  0.00     0.059 C 
HETATM    4  C10 UNL     1      -0.854 -22.987  28.644  1.00  0.00     0.088 C 
HETATM    5  C11 UNL     1       0.256 -23.206  29.509  1.00  0.00    -0.152 C 
HETATM    6  C12 UNL     1       1.348 -23.301  30.377  1.00  0.00     0.082 C 
HETATM    7  C13 UNL     1       1.876 -21.857  30.639  1.00  0.00     0.011 C 
HETATM    8  C14 UNL     1       0.822 -20.814  30.271  1.00  0.00     0.001 C 
HETATM    9  C15 UNL     1       0.292 -20.719  28.937  1.00  0.00     0.004 C 
HETATM   10  C16 UNL     1      -0.959 -21.425  28.486  1.00  0.00     0.044 C 
HETATM   11  N3  UNL     1      -0.953 -23.678  27.423  1.00  0.00    -0.331 N 
ENDROOT
BRANCH  11  12
HETATM   12  C17 UNL     1      -0.328 -23.541  26.155  1.00  0.00     0.121 C 
BRANCH  12  13
HETATM   13  O4  UNL     1      -0.960 -22.780  25.289  1.00  0.00    -0.349 OA
ATOM     14  H4  UNL     1      -1.016 -23.124  24.405  1.00  0.00     0.219 HD
ENDBRANCH  12  13
BRANCH  12  15
HETATM   15  C18 UNL     1       0.904 -24.085  25.589  1.00  0.00     0.081 C 
BRANCH  15  16
HETATM   16  C19 UNL     1       2.128 -23.345  26.146  1.00  0.00     0.019 C 
BRANCH  16  17
HETATM   17  C20 UNL     1       2.482 -22.137  25.287  1.00  0.00    -0.014 C 
HETATM   18  C21 UNL     1       2.307 -20.829  25.973  1.00  0.00     0.005 C 
HETATM   19  C22 UNL     1       3.414 -19.941  25.407  1.00  0.00     0.000 C 
HETATM   20  C23 UNL     1       4.231 -20.811  24.487  1.00  0.00     0.000 C 
HETATM   21  C24 UNL     1       4.012 -22.187  25.117  1.00  0.00     0.005 C 
ENDBRANCH  16  17
ENDBRANCH  15  16
BRANCH  15  22
HETATM   22  C25 UNL     1       0.926 -23.978  24.092  1.00  0.00     0.171 C 
BRANCH  22  23
HETATM   23  N4  UNL     1       1.720 -24.961  23.447  1.00  0.00    -0.235 N 
BRANCH  23  24
HETATM   24  O5  UNL     1       2.877 -24.650  22.779  1.00  0.00    -0.285 OA
ATOM     25  H5  UNL     1       2.960 -23.873  22.240  1.00  0.00     0.245 HD
ENDBRANCH  23  24
BRANCH  23  26
HETATM   26  C26 UNL     1       1.377 -26.320  23.450  1.00  0.00     0.376 C 
HETATM   27  O6  UNL     1       1.040 -26.919  22.422  1.00  0.00    -0.281 OA
ENDBRANCH  23  26
ENDBRANCH  22  23
ENDBRANCH  15  22
ENDBRANCH  12  15
ENDBRANCH  11  12
BRANCH   1  28
HETATM   28  C5  UNL     1      -3.099 -24.541  26.667  1.00  0.00     0.242 C 
HETATM   29  N1  UNL     1      -3.506 -23.224  26.385  1.00  0.00    -0.351 N 
ATOM     30  H1  UNL     1      -2.973 -22.461  26.803  1.00  0.00     0.163 HD
HETATM   31  O1  UNL     1      -3.707 -25.506  26.194  1.00  0.00    -0.271 OA
BRANCH  29  32
HETATM   32  C2  UNL     1      -4.626 -22.881  25.544  1.00  0.00     0.022 C 
HETATM   33  C1  UNL     1      -4.490 -21.470  25.006  1.00  0.00     0.037 C 
HETATM   34  C3  UNL     1      -4.743 -23.783  24.343  1.00  0.00     0.037 C 
HETATM   35  C4  UNL     1      -5.902 -22.983  26.349  1.00  0.00     0.037 C 
ENDBRANCH  29  32
ENDBRANCH   1  28
BRANCH   2  36
HETATM   36  C8  UNL     1      -1.451 -25.588  29.864  1.00  0.00     0.142 C 
HETATM   37  N2  UNL     1      -0.659 -26.494  29.390  1.00  0.00    -0.251 N 
ATOM     38  H2  UNL     1      -0.623 -26.646  28.382  1.00  0.00     0.196 HD
BRANCH  36  39
HETATM   39  O2  UNL     1      -1.488 -25.399  31.220  1.00  0.00    -0.348 OA
ATOM     40  H2  UNL     1      -1.006 -24.676  31.603  1.00  0.00     0.219 HD
ENDBRANCH  36  39
BRANCH  37  41
HETATM   41  O3  UNL     1       0.135 -27.256  30.211  1.00  0.00    -0.288 OA
ATOM     42  H3  UNL     1       0.564 -28.043  29.897  1.00  0.00     0.244 HD
ENDBRANCH  37  41
ENDBRANCH   2  36
TORSDOF 14
ENDMDL
MODEL 2
REMARK VINA RESULT: -7.538340683      8.961     11.769
REMARK  14 active torsions:
REMARK  status: ('A' for Active; 'I' for Inactive)
REMARK    1  A    between atoms: C2_2  and  N1_5 
REMARK       I    between atoms: N1_5  and  C5_7 
REMARK    2  A    between atoms: C5_7  and  C6_9 
REMARK    3  A    between atoms: C7_10  and  C8_11 
REMARK    4  A    between atoms: C8_11  and  O2_12 
REMARK    5  A    between atoms: N2_14  and  O3_16 
REMARK    6  A    between atoms: N3_26  and  C17_27 
REMARK    7  A    between atoms: C17_27  and  O4_28 
REMARK    8  A    between atoms: C17_27  and  C18_30 
REMARK    9  A    between atoms: C18_30  and  C19_31 
REMARK   10  A    between atoms: C18_30  and  C25_37 
REMARK   11  A    between atoms: C19_31  and  C20_32 
REMARK   12  A    between atoms: C25_37  and  N4_38 
REMARK   13  A    between atoms: N4_38  and  O5_39 
REMARK   14  A    between atoms: N4_38  and  C26_41 
ROOT
HETATM    1  C6  UNL     1      -0.513 -14.286  23.173  1.00  0.00     0.192 C 
HETATM    2  C7  UNL     1      -1.664 -13.527  22.588  1.00  0.00     0.097 C 
HETATM    3  C9  UNL     1      -1.039 -12.268  22.089  1.00  0.00     0.059 C 
HETATM    4  C10 UNL     1      -0.096 -11.964  23.288  1.00  0.00     0.088 C 
HETATM    5  C11 UNL     1      -0.751 -11.144  24.252  1.00  0.00    -0.152 C 
HETATM    6  C12 UNL     1      -1.332 -10.245  25.150  1.00  0.00     0.082 C 
HETATM    7  C13 UNL     1      -0.564  -8.892  25.036  1.00  0.00     0.011 C 
HETATM    8  C14 UNL     1       0.228  -8.821  23.731  1.00  0.00     0.001 C 
HETATM    9  C15 UNL     1       1.245  -9.789  23.416  1.00  0.00     0.004 C 
HETATM   10  C16 UNL     1       0.985 -11.038  22.617  1.00  0.00     0.044 C 
HETATM   11  N3  UNL     1       0.402 -13.229  23.649  1.00  0.00    -0.331 N 
ENDROOT
BRANCH  11  12
HETATM   12  C17 UNL     1       1.549 -13.675  24.360  1.00  0.00     0.121 C 
BRANCH  12  13
HETATM   13  O4  UNL     1       1.324 -14.129  25.573  1.00  0.00    -0.349 OA
ATOM     14  H4  UNL     1       1.813 -14.906  25.817  1.00  0.00     0.219 HD
ENDBRANCH  12  13
BRANCH  12  15
HETATM   15  C18 UNL     1       2.968 -13.733  24.022  1.00  0.00     0.081 C 
BRANCH  15  16
HETATM   16  C19 UNL     1       3.665 -14.854  24.806  1.00  0.00     0.019 C 
BRANCH  16  17
HETATM   17  C20 UNL     1       3.983 -16.043  23.906  1.00  0.00    -0.014 C 
HETATM   18  C21 UNL     1       5.367 -16.040  23.360  1.00  0.00     0.005 C 
HETATM   19  C22 UNL     1       5.755 -17.516  23.277  1.00  0.00     0.000 C 
HETATM   20  C23 UNL     1       4.606 -18.293  23.865  1.00  0.00     0.000 C 
HETATM   21  C24 UNL     1       4.028 -17.266  24.840  1.00  0.00     0.005 C 
ENDBRANCH  16  17
ENDBRANCH  15  16
BRANCH  15  22
HETATM   22  C25 UNL     1       3.669 -12.439  24.321  1.00  0.00     0.171 C 
BRANCH  22  23
HETATM   23  N4  UNL     1       4.765 -12.156  23.466  1.00  0.00    -0.235 N 
BRANCH  23  24
HETATM   24  O5  UNL     1       5.871 -11.466  23.892  1.00  0.00    -0.285 OA
ATOM     25  H5  UNL     1       6.499 -11.087  23.288  1.00  0.00     0.245 HD
ENDBRANCH  23  24
BRANCH  23  26
HETATM   26  C26 UNL     1       4.793 -12.565  22.126  1.00  0.00     0.376 C 
HETATM   27  O6  UNL     1       5.846 -12.859  21.547  1.00  0.00    -0.281 OA
ENDBRANCH  23  26
ENDBRANCH  22  23
ENDBRANCH  15  22
ENDBRANCH  12  15
ENDBRANCH  11  12
BRANCH   1  28
HETATM   28  C5  UNL     1       0.161 -15.124  22.143  1.00  0.00     0.242 C 
HETATM   29  N1  UNL     1       1.104 -14.547  21.273  1.00  0.00    -0.351 N 
ATOM     30  H1  UNL     1       1.299 -13.551  21.375  1.00  0.00     0.163 HD
HETATM   31  O1  UNL     1      -0.121 -16.324  22.065  1.00  0.00    -0.271 OA
BRANCH  29  32
HETATM   32  C2  UNL     1       1.813 -15.270  20.245  1.00  0.00     0.022 C 
HETATM   33  C1  UNL     1       2.440 -16.532  20.804  1.00  0.00     0.037 C 
HETATM   34  C3  UNL     1       0.910 -15.707  19.121  1.00  0.00     0.037 C 
HETATM   35  C4  UNL     1       2.900 -14.388  19.675  1.00  0.00     0.037 C 
ENDBRANCH  29  32
ENDBRANCH   1  28
BRANCH   2  36
HETATM   36  C8  UNL     1      -2.735 -13.216  23.558  1.00  0.00     0.142 C 
HETATM   37  N2  UNL     1      -2.874 -13.869  24.666  1.00  0.00    -0.251 N 
ATOM     38  H2  UNL     1      -2.224 -14.624  24.883  1.00  0.00     0.196 HD
BRANCH  36  39
HETATM   39  O2  UNL     1      -3.619 -12.206  23.282  1.00  0.00    -0.348 OA
ATOM     40  H2  UNL     1      -3.289 -11.369  22.977  1.00  0.00     0.219 HD
ENDBRANCH  36  39
BRANCH  37  41
HETATM   41  O3  UNL     1      -3.874 -13.568  25.557  1.00  0.00    -0.288 OA
ATOM     42  H3  UNL     1      -4.258 -14.234  26.116  1.00  0.00     0.244 HD
ENDBRANCH  37  41
ENDBRANCH   2  36
TORSDOF 14
ENDMDL
MODEL 3
REMARK VINA RESULT: -7.465012816      2.027      4.069
REMARK  14 active torsions:
REMARK  status: ('A' for Active; 'I' for Inactive)
REMARK    1  A    between atoms: C2_2  and  N1_5 
REMARK       I    between atoms: N1_5  and  C5_7 
REMARK    2  A    between atoms: C5_7  and  C6_9 
REMARK    3  A    between atoms: C7_10  and  C8_11 
REMARK    4  A    between atoms: C8_11  and  O2_12 
REMARK    5  A    between atoms: N2_14  and  O3_16 
REMARK    6  A    between atoms: N3_26  and  C17_27 
REMARK    7  A    between atoms: C17_27  and  O4_28 
REMARK    8  A    between atoms: C17_27  and  C18_30 
REMARK    9  A    between atoms: C18_30  and  C19_31 
REMARK   10  A    between atoms: C18_30  and  C25_37 
REMARK   11  A    between atoms: C19_31  and  C20_32 
REMARK   12  A    between atoms: C25_37  and  N4_38 
REMARK   13  A    between atoms: N4_38  and  O5_39 
REMARK   14  A    between atoms: N4_38  and  C26_41 
ROOT
HETATM    1  C6  UNL     1      -0.055 -24.645  29.228  1.00  0.00     0.192 C 
HETATM    2  C7  UNL     1      -1.029 -23.731  29.906  1.00  0.00     0.097 C 
HETATM    3  C9  UNL     1      -2.159 -23.638  28.937  1.00  0.00     0.059 C 
HETATM    4  C10 UNL     1      -1.347 -23.498  27.617  1.00  0.00     0.088 C 
HETATM    5  C11 UNL     1      -1.103 -22.126  27.317  1.00  0.00    -0.152 C 
HETATM    6  C12 UNL     1      -0.955 -20.788  26.943  1.00  0.00     0.082 C 
HETATM    7  C13 UNL     1      -1.829 -20.549  25.673  1.00  0.00     0.011 C 
HETATM    8  C14 UNL     1      -2.877 -21.649  25.514  1.00  0.00     0.001 C 
HETATM    9  C15 UNL     1      -2.500 -23.032  25.382  1.00  0.00     0.004 C 
HETATM   10  C16 UNL     1      -2.393 -23.980  26.546  1.00  0.00     0.044 C 
HETATM   11  N3  UNL     1      -0.274 -24.391  27.790  1.00  0.00    -0.331 N 
ENDROOT
BRANCH  11  12
HETATM   12  C17 UNL     1       0.610 -25.058  26.900  1.00  0.00     0.121 C 
BRANCH  12  13
HETATM   13  O4  UNL     1       0.515 -26.369  26.882  1.00  0.00    -0.349 OA
ATOM     14  H4  UNL     1      -0.257 -26.718  26.452  1.00  0.00     0.219 HD
ENDBRANCH  12  13
BRANCH  12  15
HETATM   15  C18 UNL     1       1.638 -24.585  25.977  1.00  0.00     0.081 C 
BRANCH  15  16
HETATM   16  C19 UNL     1       2.375 -23.373  26.564  1.00  0.00     0.019 C 
BRANCH  16  17
HETATM   17  C20 UNL     1       2.622 -22.309  25.501  1.00  0.00    -0.014 C 
HETATM   18  C21 UNL     1       2.465 -20.912  25.989  1.00  0.00     0.005 C 
HETATM   19  C22 UNL     1       3.497 -20.106  25.199  1.00  0.00     0.000 C 
HETATM   20  C23 UNL     1       4.260 -21.097  24.359  1.00  0.00     0.000 C 
HETATM   21  C24 UNL     1       4.134 -22.360  25.211  1.00  0.00     0.005 C 
ENDBRANCH  16  17
ENDBRANCH  15  16
BRANCH  15  22
HETATM   22  C25 UNL     1       1.059 -24.191  24.649  1.00  0.00     0.171 C 
BRANCH  22  23
HETATM   23  N4  UNL     1       1.542 -24.950  23.552  1.00  0.00    -0.235 N 
BRANCH  23  24
HETATM   24  O5  UNL     1       2.372 -24.418  22.598  1.00  0.00    -0.285 OA
ATOM     25  H5  UNL     1       2.268 -24.603  21.672  1.00  0.00     0.245 HD
ENDBRANCH  23  24
BRANCH  23  26
HETATM   26  C26 UNL     1       1.205 -26.297  23.369  1.00  0.00     0.376 C 
HETATM   27  O6  UNL     1       1.176 -26.826  22.251  1.00  0.00    -0.281 OA
ENDBRANCH  23  26
ENDBRANCH  22  23
ENDBRANCH  15  22
ENDBRANCH  12  15
ENDBRANCH  11  12
BRANCH   1  28
HETATM   28  C5  UNL     1      -0.341 -26.071  29.548  1.00  0.00     0.242 C 
HETATM   29  N1  UNL     1      -1.575 -26.640  29.185  1.00  0.00    -0.351 N 
ATOM     30  H1  UNL     1      -2.252 -26.046  28.707  1.00  0.00     0.163 HD
HETATM   31  O1  UNL     1       0.517 -26.740  30.134  1.00  0.00    -0.271 OA
BRANCH  29  32
HETATM   32  C2  UNL     1      -1.948 -28.010  29.446  1.00  0.00     0.022 C 
HETATM   33  C1  UNL     1      -0.927 -28.969  28.867  1.00  0.00     0.037 C 
HETATM   34  C3  UNL     1      -2.029 -28.315  30.918  1.00  0.00     0.037 C 
HETATM   35  C4  UNL     1      -3.296 -28.286  28.820  1.00  0.00     0.037 C 
ENDBRANCH  29  32
ENDBRANCH   1  28
BRANCH   2  36
HETATM   36  C8  UNL     1      -0.491 -22.385  30.194  1.00  0.00     0.142 C 
HETATM   37  N2  UNL     1       0.778 -22.134  30.191  1.00  0.00    -0.251 N 
ATOM     38  H2  UNL     1       1.434 -22.886  29.983  1.00  0.00     0.196 HD
BRANCH  36  39
HETATM   39  O2  UNL     1      -1.357 -21.362  30.477  1.00  0.00    -0.348 OA
ATOM     40  H2  UNL     1      -1.883 -20.990  29.779  1.00  0.00     0.219 HD
ENDBRANCH  36  39
BRANCH  37  41
HETATM   41  O3  UNL     1       1.263 -20.878  30.461  1.00  0.00    -0.288 OA
ATOM     42  H3  UNL     1       2.093 -20.580  30.108  1.00  0.00     0.244 HD
ENDBRANCH  37  41
ENDBRANCH   2  36
TORSDOF 14
ENDMDL
MODEL 4
REMARK VINA RESULT: -7.436391297      2.617      5.076
REMARK  14 active torsions:
REMARK  status: ('A' for Active; 'I' for Inactive)
REMARK    1  A    between atoms: C2_2  and  N1_5 
REMARK       I    between atoms: N1_5  and  C5_7 
REMARK    2  A    between atoms: C5_7  and  C6_9 
REMARK    3  A    between atoms: C7_10  and  C8_11 
REMARK    4  A    between atoms: C8_11  and  O2_12 
REMARK    5  A    between atoms: N2_14  and  O3_16 
REMARK    6  A    between atoms: N3_26  and  C17_27 
REMARK    7  A    between atoms: C17_27  and  O4_28 
REMARK    8  A    between atoms: C17_27  and  C18_30 
REMARK    9  A    between atoms: C18_30  and  C19_31 
REMARK   10  A    between atoms: C18_30  and  C25_37 
REMARK   11  A    between atoms: C19_31  and  C20_32 
REMARK   12  A    between atoms: C25_37  and  N4_38 
REMARK   13  A    between atoms: N4_38  and  O5_39 
REMARK   14  A    between atoms: N4_38  and  C26_41 
ROOT
HETATM    1  C6  UNL     1       1.320 -24.446  29.290  1.00  0.00     0.192 C 
HETATM    2  C7  UNL     1       0.252 -23.861  30.162  1.00  0.00     0.097 C 
HETATM    3  C9  UNL     1      -1.006 -24.133  29.410  1.00  0.00     0.059 C 
HETATM    4  C10 UNL     1      -0.524 -23.775  27.975  1.00  0.00     0.088 C 
HETATM    5  C11 UNL     1      -0.764 -22.400  27.689  1.00  0.00    -0.152 C 
HETATM    6  C12 UNL     1      -1.097 -21.087  27.346  1.00  0.00     0.082 C 
HETATM    7  C13 UNL     1      -2.214 -21.147  26.259  1.00  0.00     0.011 C 
HETATM    8  C14 UNL     1      -2.890 -22.517  26.244  1.00  0.00     0.001 C 
HETATM    9  C15 UNL     1      -2.142 -23.721  25.995  1.00  0.00     0.004 C 
HETATM   10  C16 UNL     1      -1.548 -24.572  27.086  1.00  0.00     0.044 C 
HETATM   11  N3  UNL     1       0.782 -24.296  27.923  1.00  0.00    -0.331 N 
ENDROOT
BRANCH  11  12
HETATM   12  C17 UNL     1       1.653 -24.678  26.868  1.00  0.00     0.121 C 
BRANCH  12  13
HETATM   13  O4  UNL     1       2.033 -25.936  26.872  1.00  0.00    -0.349 OA
ATOM     14  H4  UNL     1       2.184 -26.322  26.017  1.00  0.00     0.219 HD
ENDBRANCH  12  13
BRANCH  12  15
HETATM   15  C18 UNL     1       2.240 -23.947  25.748  1.00  0.00     0.081 C 
BRANCH  15  16
HETATM   16  C19 UNL     1       2.461 -22.474  26.121  1.00  0.00     0.019 C 
BRANCH  16  17
HETATM   17  C20 UNL     1       3.133 -21.712  24.984  1.00  0.00    -0.014 C 
HETATM   18  C21 UNL     1       3.376 -20.273  25.275  1.00  0.00     0.005 C 
HETATM   19  C22 UNL     1       4.680 -19.945  24.548  1.00  0.00     0.000 C 
HETATM   20  C23 UNL     1       5.170 -21.236  23.946  1.00  0.00     0.000 C 
HETATM   21  C24 UNL     1       4.572 -22.255  24.916  1.00  0.00     0.005 C 
ENDBRANCH  16  17
ENDBRANCH  15  16
BRANCH  15  22
HETATM   22  C25 UNL     1       1.370 -24.002  24.526  1.00  0.00     0.171 C 
BRANCH  22  23
HETATM   23  N4  UNL     1       1.806 -24.920  23.537  1.00  0.00    -0.235 N 
BRANCH  23  24
HETATM   24  O5  UNL     1       2.806 -24.622  22.646  1.00  0.00    -0.285 OA
ATOM     25  H5  UNL     1       2.740 -23.902  22.030  1.00  0.00     0.245 HD
ENDBRANCH  23  24
BRANCH  23  26
HETATM   26  C26 UNL     1       1.248 -26.198  23.404  1.00  0.00     0.376 C 
HETATM   27  O6  UNL     1       1.143 -26.764  22.309  1.00  0.00    -0.281 OA
ENDBRANCH  23  26
ENDBRANCH  22  23
ENDBRANCH  15  22
ENDBRANCH  12  15
ENDBRANCH  11  12
BRANCH   1  28
HETATM   28  C5  UNL     1       1.541 -25.886  29.601  1.00  0.00     0.242 C 
HETATM   29  N1  UNL     1       2.846 -26.370  29.808  1.00  0.00    -0.351 N 
ATOM     30  H1  UNL     1       3.617 -25.706  29.736  1.00  0.00     0.163 HD
HETATM   31  O1  UNL     1       0.567 -26.642  29.671  1.00  0.00    -0.271 OA
BRANCH  29  32
HETATM   32  C2  UNL     1       3.165 -27.742  30.118  1.00  0.00     0.022 C 
HETATM   33  C1  UNL     1       4.654 -27.915  30.347  1.00  0.00     0.037 C 
HETATM   34  C3  UNL     1       2.484 -28.224  31.372  1.00  0.00     0.037 C 
HETATM   35  C4  UNL     1       2.736 -28.624  28.967  1.00  0.00     0.037 C 
ENDBRANCH  29  32
ENDBRANCH   1  28
BRANCH   2  36
HETATM   36  C8  UNL     1       0.400 -22.410  30.402  1.00  0.00     0.142 C 
HETATM   37  N2  UNL     1      -0.529 -21.705  30.962  1.00  0.00    -0.251 N 
ATOM     38  H2  UNL     1      -1.395 -22.161  31.250  1.00  0.00     0.196 HD
BRANCH  36  39
HETATM   39  O2  UNL     1       1.555 -21.780  30.021  1.00  0.00    -0.348 OA
ATOM     40  H2  UNL     1       1.503 -20.943  29.574  1.00  0.00     0.219 HD
ENDBRANCH  36  39
BRANCH  37  41
HETATM   41  O3  UNL     1      -0.378 -20.358  31.179  1.00  0.00    -0.288 OA
ATOM     42  H3  UNL     1      -0.251 -20.006  32.052  1.00  0.00     0.244 HD
ENDBRANCH  37  41
ENDBRANCH   2  36
TORSDOF 14
ENDMDL
MODEL 5
REMARK VINA RESULT: -7.416093641      1.097      1.278
REMARK  14 active torsions:
REMARK  status: ('A' for Active; 'I' for Inactive)
REMARK    1  A    between atoms: C2_2  and  N1_5 
REMARK       I    between atoms: N1_5  and  C5_7 
REMARK    2  A    between atoms: C5_7  and  C6_9 
REMARK    3  A    between atoms: C7_10  and  C8_11 
REMARK    4  A    between atoms: C8_11  and  O2_12 
REMARK    5  A    between atoms: N2_14  and  O3_16 
REMARK    6  A    between atoms: N3_26  and  C17_27 
REMARK    7  A    between atoms: C17_27  and  O4_28 
REMARK    8  A    between atoms: C17_27  and  C18_30 
REMARK    9  A    between atoms: C18_30  and  C19_31 
REMARK   10  A    between atoms: C18_30  and  C25_37 
REMARK   11  A    between atoms: C19_31  and  C20_32 
REMARK   12  A    between atoms: C25_37  and  N4_38 
REMARK   13  A    between atoms: N4_38  and  O5_39 
REMARK   14  A    between atoms: N4_38  and  C26_41 
ROOT
HETATM    1  C6  UNL     1      -1.012 -24.690  26.828  1.00  0.00     0.192 C 
HETATM    2  C7  UNL     1      -1.655 -24.891  28.167  1.00  0.00     0.097 C 
HETATM    3  C9  UNL     1      -1.748 -23.511  28.724  1.00  0.00     0.059 C 
HETATM    4  C10 UNL     1      -0.345 -22.979  28.315  1.00  0.00     0.088 C 
HETATM    5  C11 UNL     1       0.610 -23.228  29.344  1.00  0.00    -0.152 C 
HETATM    6  C12 UNL     1       1.533 -23.354  30.385  1.00  0.00     0.082 C 
HETATM    7  C13 UNL     1       1.856 -21.922  30.913  1.00  0.00     0.011 C 
HETATM    8  C14 UNL     1       0.785 -20.924  30.478  1.00  0.00     0.001 C 
HETATM    9  C15 UNL     1       0.495 -20.690  29.089  1.00  0.00     0.004 C 
HETATM   10  C16 UNL     1      -0.577 -21.423  28.327  1.00  0.00     0.044 C 
HETATM   11  N3  UNL     1      -0.153 -23.504  27.024  1.00  0.00    -0.331 N 
ENDROOT
BRANCH  11  12
HETATM   12  C17 UNL     1       0.672 -23.148  25.924  1.00  0.00     0.121 C 
BRANCH  12  13
HETATM   13  O4  UNL     1       0.228 -22.162  25.177  1.00  0.00    -0.349 OA
ATOM     14  H4  UNL     1       0.312 -22.287  24.239  1.00  0.00     0.219 HD
ENDBRANCH  12  13
BRANCH  12  15
HETATM   15  C18 UNL     1       1.945 -23.662  25.428  1.00  0.00     0.081 C 
BRANCH  15  16
HETATM   16  C19 UNL     1       3.107 -22.775  25.897  1.00  0.00     0.019 C 
BRANCH  16  17
HETATM   17  C20 UNL     1       3.732 -22.020  24.730  1.00  0.00    -0.014 C 
HETATM   18  C21 UNL     1       3.839 -20.551  24.942  1.00  0.00     0.005 C 
HETATM   19  C22 UNL     1       5.124 -20.146  24.220  1.00  0.00     0.000 C 
HETATM   20  C23 UNL     1       5.742 -21.419  23.703  1.00  0.00     0.000 C 
HETATM   21  C24 UNL     1       5.216 -22.433  24.719  1.00  0.00     0.005 C 
ENDBRANCH  16  17
ENDBRANCH  15  16
BRANCH  15  22
HETATM   22  C25 UNL     1       1.976 -23.729  23.928  1.00  0.00     0.171 C 
BRANCH  22  23
HETATM   23  N4  UNL     1       1.016 -24.608  23.362  1.00  0.00    -0.235 N 
BRANCH  23  24
HETATM   24  O5  UNL     1      -0.126 -24.155  22.752  1.00  0.00    -0.285 OA
ATOM     25  H5  UNL     1      -0.380 -24.429  21.879  1.00  0.00     0.245 HD
ENDBRANCH  23  24
BRANCH  23  26
HETATM   26  C26 UNL     1       1.172 -26.000  23.384  1.00  0.00     0.376 C 
HETATM   27  O6  UNL     1       1.052 -26.695  22.368  1.00  0.00    -0.281 OA
ENDBRANCH  23  26
ENDBRANCH  22  23
ENDBRANCH  15  22
ENDBRANCH  12  15
ENDBRANCH  11  12
BRANCH   1  28
HETATM   28  C5  UNL     1      -2.030 -24.419  25.776  1.00  0.00     0.242 C 
HETATM   29  N1  UNL     1      -2.808 -23.248  25.833  1.00  0.00    -0.351 N 
ATOM     30  H1  UNL     1      -2.649 -22.608  26.610  1.00  0.00     0.163 HD
HETATM   31  O1  UNL     1      -2.180 -25.235  24.861  1.00  0.00    -0.271 OA
BRANCH  29  32
HETATM   32  C2  UNL     1      -3.815 -22.893  24.863  1.00  0.00     0.022 C 
HETATM   33  C1  UNL     1      -3.198 -22.671  23.496  1.00  0.00     0.037 C 
HETATM   34  C3  UNL     1      -4.854 -23.970  24.690  1.00  0.00     0.037 C 
HETATM   35  C4  UNL     1      -4.506 -21.623  25.306  1.00  0.00     0.037 C 
ENDBRANCH  29  32
ENDBRANCH   1  28
BRANCH   2  36
HETATM   36  C8  UNL     1      -0.884 -25.760  29.080  1.00  0.00     0.142 C 
HETATM   37  N2  UNL     1       0.051 -26.548  28.658  1.00  0.00    -0.251 N 
ATOM     38  H2  UNL     1       0.269 -26.573  27.662  1.00  0.00     0.196 HD
BRANCH  36  39
HETATM   39  O2  UNL     1      -1.163 -25.741  30.421  1.00  0.00    -0.348 OA
ATOM     40  H2  UNL     1      -1.409 -26.548  30.858  1.00  0.00     0.219 HD
ENDBRANCH  36  39
BRANCH  37  41
HETATM   41  O3  UNL     1       0.759 -27.350  29.519  1.00  0.00    -0.288 OA
ATOM     42  H3  UNL     1       1.609 -27.703  29.284  1.00  0.00     0.244 HD
ENDBRANCH  37  41
ENDBRANCH   2  36
TORSDOF 14
ENDMDL
