MODEL 1
REMARK VINA RESULT: -10.120252557      0.000      0.000
REMARK  12 active torsions:
REMARK  status: ('A' for Active; 'I' for Inactive)
REMARK    1  A    between atoms: C5_5  and  C6_6 
REMARK    2  A    between atoms: C6_6  and  C7_7 
REMARK    3  A    between atoms: C7_7  and  C8_8 
REMARK    4  A    between atoms: C8_8  and  C10_10 
REMARK    5  A    between atoms: C14_14  and  C15_15 
REMARK    6  A    between atoms: C16_16  and  C17_17 
REMARK    7  A    between atoms: C24_25  and  C26_27 
REMARK    8  A    between atoms: C26_27  and  O2_28 
REMARK    9  A    between atoms: C27_30  and  O3_31 
REMARK   10  A    between atoms: C28_33  and  O4_34 
REMARK   11  A    between atoms: C28_33  and  C29_36 
REMARK   12  A    between atoms: C29_36  and  O5_37 
ROOT
HETATM    1  C1  UNL     1       4.599 -23.377  24.113  1.00  0.00     0.017 C 
HETATM    2  C2  UNL     1       3.774 -22.800  24.777  1.00  0.00    -0.083 C 
HETATM    3  C3  UNL     1       2.783 -22.119  25.551  1.00  0.00    -0.013 C 
HETATM    4  C4  UNL     1       1.740 -22.878  26.274  1.00  0.00     0.057 C 
HETATM    5  C5  UNL     1       2.800 -20.811  25.619  1.00  0.00    -0.011 C 
ENDROOT
BRANCH   5   6
HETATM    6  C6  UNL     1       3.820 -19.967  24.919  1.00  0.00     0.028 C 
BRANCH   6   7
HETATM    7  C7  UNL     1       3.633 -18.520  25.320  1.00  0.00     0.010 C 
BRANCH   7   8
HETATM    8  C8  UNL     1       4.667 -17.689  24.637  1.00  0.00     0.011 C 
HETATM    9  C9  UNL     1       5.371 -18.365  23.495  1.00  0.00     0.012 C 
BRANCH   8  10
HETATM   10  C10 UNL     1       4.151 -16.333  24.223  1.00  0.00     0.126 C 
HETATM   11  C11 UNL     1       2.764 -16.374  23.680  1.00  0.00     0.033 C 
HETATM   12  C12 UNL     1       2.461 -15.047  23.017  1.00  0.00     0.010 C 
HETATM   13  C13 UNL     1       3.395 -13.972  23.450  1.00  0.00     0.028 C 
HETATM   14  C14 UNL     1       3.317 -12.746  22.576  1.00  0.00     0.046 C 
HETATM   15  C30 UNL     1       4.850 -14.383  23.400  1.00  0.00     0.165 C 
HETATM   16  C27 UNL     1       4.390 -12.927  21.534  1.00  0.00     0.165 C 
HETATM   17  C28 UNL     1       5.536 -13.599  22.318  1.00  0.00     0.131 C 
HETATM   18  O6  UNL     1       4.972 -15.771  23.216  1.00  0.00    -0.377 OA
BRANCH  14  19
HETATM   19  C15 UNL     1       1.981 -12.436  22.106  1.00  0.00    -0.022 C 
HETATM   20  C16 UNL     1       0.906 -12.179  22.809  1.00  0.00    -0.023 C 
BRANCH  20  21
HETATM   21  C17 UNL     1      -0.426 -11.870  22.163  1.00  0.00     0.037 C 
HETATM   22  C18 UNL     1      -1.066 -10.651  22.721  1.00  0.00    -0.022 C 
HETATM   23  C19 UNL     1      -0.272  -9.451  22.179  1.00  0.00     0.020 C 
HETATM   24  C20 UNL     1      -1.088 -10.540  24.207  1.00  0.00     0.020 C 
HETATM   25  C21 UNL     1      -2.421 -10.516  22.137  1.00  0.00    -0.014 C 
HETATM   26  C22 UNL     1      -3.105 -11.448  21.543  1.00  0.00     0.048 C 
HETATM   27  C23 UNL     1      -2.544 -12.763  21.408  1.00  0.00     0.160 C 
HETATM   28  O1  UNL     1      -3.116 -13.640  20.728  1.00  0.00    -0.292 OA
HETATM   29  C24 UNL     1      -1.284 -13.086  22.076  1.00  0.00     0.050 C 
HETATM   30  C25 UNL     1      -0.547 -14.078  21.161  1.00  0.00     0.027 C 
BRANCH  29  31
HETATM   31  C26 UNL     1      -1.556 -13.725  23.418  1.00  0.00     0.182 C 
BRANCH  31  32
HETATM   32  O2  UNL     1      -2.945 -13.638  23.666  1.00  0.00    -0.400 OA
ATOM     33  H2  UNL     1      -3.097 -13.901  24.566  1.00  0.00     0.209 HD
ENDBRANCH  31  32
ENDBRANCH  29  31
ENDBRANCH  20  21
ENDBRANCH  14  19
BRANCH  16  34
HETATM   34  O3  UNL     1       4.019 -13.779  20.494  1.00  0.00    -0.392 OA
ATOM     35  H3  UNL     1       4.264 -14.685  20.638  1.00  0.00     0.210 HD
ENDBRANCH  16  34
BRANCH  17  36
HETATM   36  O4  UNL     1       6.301 -12.565  22.853  1.00  0.00    -0.382 OA
ATOM     37  H4  UNL     1       7.165 -12.928  23.009  1.00  0.00     0.210 HD
ENDBRANCH  17  36
BRANCH  17  38
HETATM   38  C29 UNL     1       6.409 -14.404  21.421  1.00  0.00     0.207 C 
BRANCH  38  39
HETATM   39  O5  UNL     1       7.573 -14.855  22.026  1.00  0.00    -0.398 OA
ATOM     40  H5  UNL     1       7.552 -15.776  22.263  1.00  0.00     0.209 HD
ENDBRANCH  38  39
ENDBRANCH  17  38
ENDBRANCH   8  10
ENDBRANCH   7   8
ENDBRANCH   6   7
ENDBRANCH   5   6
TORSDOF 12
ENDMDL
MODEL 2
REMARK VINA RESULT: -9.973534649      1.376      2.344
REMARK  12 active torsions:
REMARK  status: ('A' for Active; 'I' for Inactive)
REMARK    1  A    between atoms: C5_5  and  C6_6 
REMARK    2  A    between atoms: C6_6  and  C7_7 
REMARK    3  A    between atoms: C7_7  and  C8_8 
REMARK    4  A    between atoms: C8_8  and  C10_10 
REMARK    5  A    between atoms: C14_14  and  C15_15 
REMARK    6  A    between atoms: C16_16  and  C17_17 
REMARK    7  A    between atoms: C24_25  and  C26_27 
REMARK    8  A    between atoms: C26_27  and  O2_28 
REMARK    9  A    between atoms: C27_30  and  O3_31 
REMARK   10  A    between atoms: C28_33  and  O4_34 
REMARK   11  A    between atoms: C28_33  and  C29_36 
REMARK   12  A    between atoms: C29_36  and  O5_37 
ROOT
HETATM    1  C1  UNL     1       3.415 -23.289  24.565  1.00  0.00     0.017 C 
HETATM    2  C2  UNL     1       3.137 -22.210  25.024  1.00  0.00    -0.083 C 
HETATM    3  C3  UNL     1       2.792 -20.928  25.557  1.00  0.00    -0.013 C 
HETATM    4  C4  UNL     1       1.610 -20.769  26.431  1.00  0.00     0.057 C 
HETATM    5  C5  UNL     1       3.531 -19.886  25.266  1.00  0.00    -0.011 C 
ENDROOT
BRANCH   5   6
HETATM    6  C6  UNL     1       4.743 -19.959  24.389  1.00  0.00     0.028 C 
BRANCH   6   7
HETATM    7  C7  UNL     1       4.815 -18.716  23.529  1.00  0.00     0.010 C 
BRANCH   7   8
HETATM    8  C8  UNL     1       5.432 -17.612  24.321  1.00  0.00     0.011 C 
HETATM    9  C9  UNL     1       6.918 -17.466  24.155  1.00  0.00     0.012 C 
BRANCH   8  10
HETATM   10  C10 UNL     1       4.736 -16.288  24.124  1.00  0.00     0.126 C 
HETATM   11  C11 UNL     1       3.261 -16.419  23.958  1.00  0.00     0.033 C 
HETATM   12  C12 UNL     1       2.707 -15.100  23.463  1.00  0.00     0.010 C 
HETATM   13  C13 UNL     1       3.649 -13.970  23.692  1.00  0.00     0.028 C 
HETATM   14  C14 UNL     1       3.263 -12.727  22.930  1.00  0.00     0.046 C 
HETATM   15  C30 UNL     1       5.064 -14.265  23.245  1.00  0.00     0.165 C 
HETATM   16  C27 UNL     1       4.033 -12.794  21.637  1.00  0.00     0.165 C 
HETATM   17  C28 UNL     1       5.387 -13.398  22.062  1.00  0.00     0.131 C 
HETATM   18  O6  UNL     1       5.225 -15.634  22.966  1.00  0.00    -0.377 OA
BRANCH  14  19
HETATM   19  C15 UNL     1       1.832 -12.507  22.839  1.00  0.00    -0.022 C 
HETATM   20  C16 UNL     1       1.058 -11.823  23.644  1.00  0.00    -0.023 C 
BRANCH  20  21
HETATM   21  C17 UNL     1      -0.430 -11.685  23.409  1.00  0.00     0.037 C 
HETATM   22  C18 UNL     1      -1.019 -12.876  22.744  1.00  0.00    -0.022 C 
HETATM   23  C19 UNL     1      -1.063 -13.992  23.801  1.00  0.00     0.020 C 
HETATM   24  C20 UNL     1      -0.279 -13.404  21.563  1.00  0.00     0.020 C 
HETATM   25  C21 UNL     1      -2.436 -12.588  22.424  1.00  0.00    -0.014 C 
HETATM   26  C22 UNL     1      -2.997 -11.417  22.371  1.00  0.00     0.048 C 
HETATM   27  C23 UNL     1      -2.214 -10.243  22.640  1.00  0.00     0.160 C 
HETATM   28  O1  UNL     1      -2.749  -9.119  22.729  1.00  0.00    -0.292 OA
HETATM   29  C24 UNL     1      -0.766 -10.361  22.813  1.00  0.00     0.050 C 
HETATM   30  C25 UNL     1      -0.363  -9.299  23.848  1.00  0.00     0.027 C 
BRANCH  29  31
HETATM   31  C26 UNL     1      -0.064 -10.098  21.502  1.00  0.00     0.182 C 
BRANCH  31  32
HETATM   32  O2  UNL     1      -0.915  -9.296  20.707  1.00  0.00    -0.400 OA
ATOM     33  H2  UNL     1      -0.763  -9.523  19.797  1.00  0.00     0.209 HD
ENDBRANCH  31  32
ENDBRANCH  29  31
ENDBRANCH  20  21
ENDBRANCH  14  19
BRANCH  16  34
HETATM   34  O3  UNL     1       3.460 -13.638  20.688  1.00  0.00    -0.392 OA
ATOM     35  H3  UNL     1       4.096 -14.140  20.191  1.00  0.00     0.210 HD
ENDBRANCH  16  34
BRANCH  17  36
HETATM   36  O4  UNL     1       6.195 -12.326  22.430  1.00  0.00    -0.382 OA
ATOM     37  H4  UNL     1       7.023 -12.449  21.980  1.00  0.00     0.210 HD
ENDBRANCH  17  36
BRANCH  17  38
HETATM   38  C29 UNL     1       6.045 -14.106  20.930  1.00  0.00     0.207 C 
BRANCH  38  39
HETATM   39  O5  UNL     1       7.205 -14.779  21.286  1.00  0.00    -0.398 OA
ATOM     40  H5  UNL     1       7.937 -14.207  21.487  1.00  0.00     0.209 HD
ENDBRANCH  38  39
ENDBRANCH  17  38
ENDBRANCH   8  10
ENDBRANCH   7   8
ENDBRANCH   6   7
ENDBRANCH   5   6
TORSDOF 12
ENDMDL
MODEL 3
REMARK VINA RESULT: -9.689101566      1.419      2.492
REMARK  12 active torsions:
REMARK  status: ('A' for Active; 'I' for Inactive)
REMARK    1  A    between atoms: C5_5  and  C6_6 
REMARK    2  A    between atoms: C6_6  and  C7_7 
REMARK    3  A    between atoms: C7_7  and  C8_8 
REMARK    4  A    between atoms: C8_8  and  C10_10 
REMARK    5  A    between atoms: C14_14  and  C15_15 
REMARK    6  A    between atoms: C16_16  and  C17_17 
REMARK    7  A    between atoms: C24_25  and  C26_27 
REMARK    8  A    between atoms: C26_27  and  O2_28 
REMARK    9  A    between atoms: C27_30  and  O3_31 
REMARK   10  A    between atoms: C28_33  and  O4_34 
REMARK   11  A    between atoms: C28_33  and  C29_36 
REMARK   12  A    between atoms: C29_36  and  O5_37 
ROOT
HETATM    1  C1  UNL     1       1.089 -20.794  27.146  1.00  0.00     0.017 C 
HETATM    2  C2  UNL     1       1.844 -21.257  26.328  1.00  0.00    -0.083 C 
HETATM    3  C3  UNL     1       2.747 -21.817  25.370  1.00  0.00    -0.013 C 
HETATM    4  C4  UNL     1       2.632 -23.234  24.965  1.00  0.00     0.057 C 
HETATM    5  C5  UNL     1       3.685 -21.065  24.848  1.00  0.00    -0.011 C 
ENDROOT
BRANCH   5   6
HETATM    6  C6  UNL     1       3.871 -19.622  25.203  1.00  0.00     0.028 C 
BRANCH   6   7
HETATM    7  C7  UNL     1       4.394 -18.873  23.997  1.00  0.00     0.010 C 
BRANCH   7   8
HETATM    8  C8  UNL     1       5.233 -17.729  24.460  1.00  0.00     0.011 C 
HETATM    9  C9  UNL     1       6.639 -17.721  23.933  1.00  0.00     0.012 C 
BRANCH   8  10
HETATM   10  C10 UNL     1       4.571 -16.391  24.246  1.00  0.00     0.126 C 
HETATM   11  C11 UNL     1       3.097 -16.491  24.046  1.00  0.00     0.033 C 
HETATM   12  C12 UNL     1       2.584 -15.160  23.538  1.00  0.00     0.010 C 
HETATM   13  C13 UNL     1       3.544 -14.050  23.789  1.00  0.00     0.028 C 
HETATM   14  C14 UNL     1       3.202 -12.800  23.018  1.00  0.00     0.046 C 
HETATM   15  C30 UNL     1       4.962 -14.376  23.375  1.00  0.00     0.165 C 
HETATM   16  C27 UNL     1       4.001 -12.884  21.743  1.00  0.00     0.165 C 
HETATM   17  C28 UNL     1       5.331 -13.517  22.200  1.00  0.00     0.131 C 
HETATM   18  O6  UNL     1       5.100 -15.749  23.101  1.00  0.00    -0.377 OA
BRANCH  14  19
HETATM   19  C15 UNL     1       1.779 -12.549  22.893  1.00  0.00    -0.022 C 
HETATM   20  C16 UNL     1       0.995 -11.873  23.695  1.00  0.00    -0.023 C 
BRANCH  20  21
HETATM   21  C17 UNL     1      -0.483 -11.700  23.423  1.00  0.00     0.037 C 
HETATM   22  C18 UNL     1      -1.083 -12.876  22.743  1.00  0.00    -0.022 C 
HETATM   23  C19 UNL     1      -1.180 -13.990  23.798  1.00  0.00     0.020 C 
HETATM   24  C20 UNL     1      -0.327 -13.423  21.581  1.00  0.00     0.020 C 
HETATM   25  C21 UNL     1      -2.484 -12.555  22.387  1.00  0.00    -0.014 C 
HETATM   26  C22 UNL     1      -3.015 -11.370  22.320  1.00  0.00     0.048 C 
HETATM   27  C23 UNL     1      -2.212 -10.216  22.609  1.00  0.00     0.160 C 
HETATM   28  O1  UNL     1      -2.721  -9.078  22.685  1.00  0.00    -0.292 OA
HETATM   29  C24 UNL     1      -0.772 -10.368  22.818  1.00  0.00     0.050 C 
HETATM   30  C25 UNL     1      -0.369  -9.316  23.864  1.00  0.00     0.027 C 
BRANCH  29  31
HETATM   31  C26 UNL     1      -0.030 -10.122  21.526  1.00  0.00     0.182 C 
BRANCH  31  32
HETATM   32  O2  UNL     1      -0.842  -9.303  20.709  1.00  0.00    -0.400 OA
ATOM     33  H2  UNL     1      -0.403  -9.198  19.873  1.00  0.00     0.209 HD
ENDBRANCH  31  32
ENDBRANCH  29  31
ENDBRANCH  20  21
ENDBRANCH  14  19
BRANCH  16  34
HETATM   34  O3  UNL     1       3.432 -13.717  20.781  1.00  0.00    -0.392 OA
ATOM     35  H3  UNL     1       4.021 -14.394  20.467  1.00  0.00     0.210 HD
ENDBRANCH  16  34
BRANCH  17  36
HETATM   36  O4  UNL     1       6.153 -12.462  22.587  1.00  0.00    -0.382 OA
ATOM     37  H4  UNL     1       6.480 -12.682  23.452  1.00  0.00     0.210 HD
ENDBRANCH  17  36
BRANCH  17  38
HETATM   38  C29 UNL     1       6.001 -14.239  21.084  1.00  0.00     0.207 C 
BRANCH  38  39
HETATM   39  O5  UNL     1       7.227 -14.790  21.426  1.00  0.00    -0.398 OA
ATOM     40  H5  UNL     1       7.918 -14.148  21.545  1.00  0.00     0.209 HD
ENDBRANCH  38  39
ENDBRANCH  17  38
ENDBRANCH   8  10
ENDBRANCH   7   8
ENDBRANCH   6   7
ENDBRANCH   5   6
TORSDOF 12
ENDMDL
MODEL 4
REMARK VINA RESULT: -8.347493800      6.732     11.914
REMARK  12 active torsions:
REMARK  status: ('A' for Active; 'I' for Inactive)
REMARK    1  A    between atoms: C5_5  and  C6_6 
REMARK    2  A    between atoms: C6_6  and  C7_7 
REMARK    3  A    between atoms: C7_7  and  C8_8 
REMARK    4  A    between atoms: C8_8  and  C10_10 
REMARK    5  A    between atoms: C14_14  and  C15_15 
REMARK    6  A    between atoms: C16_16  and  C17_17 
REMARK    7  A    between atoms: C24_25  and  C26_27 
REMARK    8  A    between atoms: C26_27  and  O2_28 
REMARK    9  A    between atoms: C27_30  and  O3_31 
REMARK   10  A    between atoms: C28_33  and  O4_34 
REMARK   11  A    between atoms: C28_33  and  C29_36 
REMARK   12  A    between atoms: C29_36  and  O5_37 
ROOT
HETATM    1  C1  UNL     1       7.213 -19.952  23.441  1.00  0.00     0.017 C 
HETATM    2  C2  UNL     1       6.314 -19.221  23.773  1.00  0.00    -0.083 C 
HETATM    3  C3  UNL     1       5.258 -18.347  24.182  1.00  0.00    -0.013 C 
HETATM    4  C4  UNL     1       5.378 -16.885  23.999  1.00  0.00     0.057 C 
HETATM    5  C5  UNL     1       4.176 -18.848  24.724  1.00  0.00    -0.011 C 
ENDROOT
BRANCH   5   6
HETATM    6  C6  UNL     1       3.974 -20.316  24.945  1.00  0.00     0.028 C 
BRANCH   6   7
HETATM    7  C7  UNL     1       2.665 -20.538  25.670  1.00  0.00     0.010 C 
BRANCH   7   8
HETATM    8  C8  UNL     1       2.194 -21.930  25.409  1.00  0.00     0.011 C 
HETATM    9  C9  UNL     1       3.253 -22.874  24.913  1.00  0.00     0.012 C 
BRANCH   8  10
HETATM   10  C10 UNL     1       1.447 -22.525  26.577  1.00  0.00     0.126 C 
HETATM   11  C11 UNL     1       0.138 -23.124  26.191  1.00  0.00     0.033 C 
HETATM   12  C12 UNL     1      -0.657 -23.406  27.449  1.00  0.00     0.010 C 
HETATM   13  C13 UNL     1       0.199 -23.431  28.666  1.00  0.00     0.028 C 
HETATM   14  C14 UNL     1      -0.603 -23.389  29.943  1.00  0.00     0.046 C 
HETATM   15  C30 UNL     1       1.136 -22.248  28.767  1.00  0.00     0.165 C 
HETATM   16  C27 UNL     1      -0.681 -21.933  30.319  1.00  0.00     0.165 C 
HETATM   17  C28 UNL     1       0.705 -21.388  29.920  1.00  0.00     0.131 C 
HETATM   18  O6  UNL     1       1.177 -21.537  27.554  1.00  0.00    -0.377 OA
BRANCH  14  19
HETATM   19  C15 UNL     1      -1.849 -24.129  29.885  1.00  0.00    -0.022 C 
HETATM   20  C16 UNL     1      -2.530 -24.503  28.831  1.00  0.00    -0.023 C 
BRANCH  20  21
HETATM   21  C17 UNL     1      -3.824 -25.277  28.939  1.00  0.00     0.037 C 
HETATM   22  C18 UNL     1      -3.621 -26.748  28.877  1.00  0.00    -0.022 C 
HETATM   23  C19 UNL     1      -3.001 -27.162  30.221  1.00  0.00     0.020 C 
HETATM   24  C20 UNL     1      -2.722 -27.244  27.796  1.00  0.00     0.020 C 
HETATM   25  C21 UNL     1      -4.946 -27.409  28.840  1.00  0.00    -0.014 C 
HETATM   26  C22 UNL     1      -6.082 -26.853  28.539  1.00  0.00     0.048 C 
HETATM   27  C23 UNL     1      -6.121 -25.459  28.199  1.00  0.00     0.160 C 
HETATM   28  O1  UNL     1      -7.207 -24.865  28.036  1.00  0.00    -0.292 OA
HETATM   29  C24 UNL     1      -4.870 -24.716  28.037  1.00  0.00     0.050 C 
HETATM   30  C25 UNL     1      -5.147 -23.285  28.525  1.00  0.00     0.027 C 
BRANCH  29  31
HETATM   31  C26 UNL     1      -4.462 -24.696  26.583  1.00  0.00     0.182 C 
BRANCH  31  32
HETATM   32  O2  UNL     1      -5.623 -24.472  25.809  1.00  0.00    -0.400 OA
ATOM     33  H2  UNL     1      -5.437 -23.765  25.203  1.00  0.00     0.209 HD
ENDBRANCH  31  32
ENDBRANCH  29  31
ENDBRANCH  20  21
ENDBRANCH  14  19
BRANCH  16  34
HETATM   34  O3  UNL     1      -1.647 -21.223  29.607  1.00  0.00    -0.392 OA
ATOM     35  H3  UNL     1      -2.520 -21.592  29.677  1.00  0.00     0.210 HD
ENDBRANCH  16  34
BRANCH  17  36
HETATM   36  O4  UNL     1       1.532 -21.578  31.025  1.00  0.00    -0.382 OA
ATOM     37  H4  UNL     1       2.344 -21.941  30.691  1.00  0.00     0.210 HD
ENDBRANCH  17  36
BRANCH  17  38
HETATM   38  C29 UNL     1       0.653 -19.930  29.628  1.00  0.00     0.207 C 
BRANCH  38  39
HETATM   39  O5  UNL     1      -0.001 -19.185  30.598  1.00  0.00    -0.398 OA
ATOM     40  H5  UNL     1      -0.115 -19.642  31.423  1.00  0.00     0.209 HD
ENDBRANCH  38  39
ENDBRANCH  17  38
ENDBRANCH   8  10
ENDBRANCH   7   8
ENDBRANCH   6   7
ENDBRANCH   5   6
TORSDOF 12
ENDMDL
MODEL 5
REMARK VINA RESULT: -8.341462186      2.228      3.611
REMARK  12 active torsions:
REMARK  status: ('A' for Active; 'I' for Inactive)
REMARK    1  A    between atoms: C5_5  and  C6_6 
REMARK    2  A    between atoms: C6_6  and  C7_7 
REMARK    3  A    between atoms: C7_7  and  C8_8 
REMARK    4  A    between atoms: C8_8  and  C10_10 
REMARK    5  A    between atoms: C14_14  and  C15_15 
REMARK    6  A    between atoms: C16_16  and  C17_17 
REMARK    7  A    between atoms: C24_25  and  C26_27 
REMARK    8  A    between atoms: C26_27  and  O2_28 
REMARK    9  A    between atoms: C27_30  and  O3_31 
REMARK   10  A    between atoms: C28_33  and  O4_34 
REMARK   11  A    between atoms: C28_33  and  C29_36 
REMARK   12  A    between atoms: C29_36  and  O5_37 
ROOT
HETATM    1  C1  UNL     1       5.234 -22.767  24.060  1.00  0.00     0.017 C 
HETATM    2  C2  UNL     1       4.322 -22.205  24.611  1.00  0.00    -0.083 C 
HETATM    3  C3  UNL     1       3.227 -21.544  25.252  1.00  0.00    -0.013 C 
HETATM    4  C4  UNL     1       2.129 -22.323  25.863  1.00  0.00     0.057 C 
HETATM    5  C5  UNL     1       3.198 -20.234  25.297  1.00  0.00    -0.011 C 
ENDROOT
BRANCH   5   6
HETATM    6  C6  UNL     1       4.268 -19.370  24.704  1.00  0.00     0.028 C 
BRANCH   6   7
HETATM    7  C7  UNL     1       3.915 -17.915  24.924  1.00  0.00     0.010 C 
BRANCH   7   8
HETATM    8  C8  UNL     1       4.842 -17.064  24.121  1.00  0.00     0.011 C 
HETATM    9  C9  UNL     1       5.769 -17.819  23.213  1.00  0.00     0.012 C 
BRANCH   8  10
HETATM   10  C10 UNL     1       4.128 -15.967  23.370  1.00  0.00     0.126 C 
HETATM   11  C11 UNL     1       4.011 -14.703  24.150  1.00  0.00     0.033 C 
HETATM   12  C12 UNL     1       3.027 -13.788  23.449  1.00  0.00     0.010 C 
HETATM   13  C13 UNL     1       2.802 -14.180  22.031  1.00  0.00     0.028 C 
HETATM   14  C14 UNL     1       1.606 -13.494  21.421  1.00  0.00     0.046 C 
HETATM   15  C30 UNL     1       2.525 -15.657  21.852  1.00  0.00     0.165 C 
HETATM   16  C27 UNL     1       0.454 -14.445  21.617  1.00  0.00     0.165 C 
HETATM   17  C28 UNL     1       1.100 -15.830  21.412  1.00  0.00     0.131 C 
HETATM   18  O6  UNL     1       2.813 -16.367  23.031  1.00  0.00    -0.377 OA
BRANCH  14  19
HETATM   19  C15 UNL     1       1.419 -12.125  21.861  1.00  0.00    -0.022 C 
HETATM   20  C16 UNL     1       0.319 -11.538  22.261  1.00  0.00    -0.023 C 
BRANCH  20  21
HETATM   21  C17 UNL     1       0.289 -10.089  22.694  1.00  0.00     0.037 C 
HETATM   22  C18 UNL     1       0.401  -9.926  24.166  1.00  0.00    -0.022 C 
HETATM   23  C19 UNL     1       1.862 -10.238  24.531  1.00  0.00     0.020 C 
HETATM   24  C20 UNL     1      -0.467 -10.811  24.994  1.00  0.00     0.020 C 
HETATM   25  C21 UNL     1       0.213  -8.497  24.502  1.00  0.00    -0.014 C 
HETATM   26  C22 UNL     1      -0.321  -7.585  23.743  1.00  0.00     0.048 C 
HETATM   27  C23 UNL     1      -0.794  -7.941  22.435  1.00  0.00     0.160 C 
HETATM   28  O1  UNL     1      -1.187  -7.068  21.633  1.00  0.00    -0.292 OA
HETATM   29  C24 UNL     1      -0.820  -9.346  22.030  1.00  0.00     0.050 C 
HETATM   30  C25 UNL     1      -0.523  -9.371  20.522  1.00  0.00     0.027 C 
BRANCH  29  31
HETATM   31  C26 UNL     1      -2.184  -9.939  22.297  1.00  0.00     0.182 C 
BRANCH  31  32
HETATM   32  O2  UNL     1      -3.007  -8.915  22.819  1.00  0.00    -0.400 OA
ATOM     33  H2  UNL     1      -3.215  -9.139  23.718  1.00  0.00     0.209 HD
ENDBRANCH  31  32
ENDBRANCH  29  31
ENDBRANCH  20  21
ENDBRANCH  14  19
BRANCH  16  34
HETATM   34  O3  UNL     1      -0.090 -14.406  22.900  1.00  0.00    -0.392 OA
ATOM     35  H3  UNL     1      -0.401 -15.249  23.207  1.00  0.00     0.210 HD
ENDBRANCH  16  34
BRANCH  17  36
HETATM   36  O4  UNL     1       1.024 -16.099  20.047  1.00  0.00    -0.382 OA
ATOM     37  H4  UNL     1       1.918 -16.095  19.725  1.00  0.00     0.210 HD
ENDBRANCH  17  36
BRANCH  17  38
HETATM   38  C29 UNL     1       0.348 -16.892  22.134  1.00  0.00     0.207 C 
BRANCH  38  39
HETATM   39  O5  UNL     1       0.219 -16.663  23.496  1.00  0.00    -0.398 OA
ATOM     40  H5  UNL     1      -0.668 -16.768  23.822  1.00  0.00     0.209 HD
ENDBRANCH  38  39
ENDBRANCH  17  38
ENDBRANCH   8  10
ENDBRANCH   7   8
ENDBRANCH   6   7
ENDBRANCH   5   6
TORSDOF 12
ENDMDL
