MODEL 1
REMARK VINA RESULT: -8.177008168      0.000      0.000
REMARK  11 active torsions:
REMARK  status: ('A' for Active; 'I' for Inactive)
REMARK    1  A    between atoms: C2_2  and  S1_4 
REMARK    2  A    between atoms: S1_4  and  O3_7 
REMARK    3  A    between atoms: O3_7  and  C4_8 
REMARK    4  A    between atoms: C14_18  and  O4_19 
REMARK    5  A    between atoms: C18_24  and  O5_25 
REMARK    6  A    between atoms: C19_27  and  N1_28 
REMARK    7  A    between atoms: N1_28  and  C20_30 
REMARK    8  A    between atoms: C20_30  and  C21_31 
REMARK    9  A    between atoms: C21_31  and  C22_32 
REMARK   10  A    between atoms: C22_32  and  C23_33 
REMARK   11  A    between atoms: C23_33  and  N2_34 
ROOT
HETATM    1  C4  UNL     1       0.106 -10.637  23.368  1.00  0.00     0.146 C 
HETATM    2  C5  UNL     1       0.160 -11.898  24.231  1.00  0.00     0.034 C 
HETATM    3  C6  UNL     1       1.595 -12.266  24.566  1.00  0.00     0.012 C 
HETATM    4  C7  UNL     1       2.325 -12.430  23.266  1.00  0.00     0.019 C 
HETATM    5  C8  UNL     1       1.423 -12.225  22.120  1.00  0.00    -0.077 C 
HETATM    6  C9  UNL     1       1.179 -13.168  21.244  1.00  0.00    -0.023 C 
HETATM    7  C10 UNL     1       1.756 -14.538  21.278  1.00  0.00     0.033 C 
HETATM    8  C11 UNL     1       2.351 -14.811  22.640  1.00  0.00    -0.001 C 
HETATM    9  C12 UNL     1       3.138 -13.663  23.148  1.00  0.00     0.001 C 
HETATM   10  C13 UNL     1       4.231 -13.343  22.131  1.00  0.00     0.037 C 
HETATM   11  C14 UNL     1       5.393 -14.297  22.273  1.00  0.00     0.119 C 
HETATM   12  C15 UNL     1       5.115 -15.509  21.478  1.00  0.00     0.044 C 
HETATM   13  C16 UNL     1       4.121 -16.486  21.864  1.00  0.00    -0.010 C 
HETATM   14  C17 UNL     1       3.645 -17.169  20.564  1.00  0.00     0.018 C 
HETATM   15  C18 UNL     1       4.829 -17.615  22.656  1.00  0.00     0.149 C 
HETATM   16  C19 UNL     1       3.896 -17.983  23.743  1.00  0.00     0.106 C 
HETATM   17  C24 UNL     1       3.172 -16.697  24.102  1.00  0.00     0.033 C 
HETATM   18  C25 UNL     1       2.958 -16.153  22.676  1.00  0.00     0.003 C 
HETATM   19  C26 UNL     1       0.799 -10.862  22.045  1.00  0.00     0.067 C 
ENDROOT
BRANCH  16  20
HETATM   20  N1  UNL     1       4.455 -18.682  24.795  1.00  0.00    -0.415 N 
ATOM     21  H1  UNL     1       5.249 -18.263  25.278  1.00  0.00     0.153 HD
BRANCH  20  22
HETATM   22  C20 UNL     1       4.005 -19.924  25.238  1.00  0.00     0.114 C 
BRANCH  22  23
HETATM   23  C21 UNL     1       4.395 -20.953  24.153  1.00  0.00     0.021 C 
BRANCH  23  24
HETATM   24  C22 UNL     1       5.874 -21.232  24.191  1.00  0.00     0.029 C 
BRANCH  24  25
HETATM   25  C23 UNL     1       6.604 -20.682  22.987  1.00  0.00     0.229 C 
BRANCH  25  26
HETATM   26  N2  UNL     1       7.670 -19.814  23.469  1.00  0.00    -0.079 N 
ATOM     27  H23 UNL     1       7.362 -19.182  24.209  1.00  0.00     0.274 HD
ATOM     28  H22 UNL     1       8.378 -20.316  24.005  1.00  0.00     0.274 HD
ATOM     29  H21 UNL     1       8.060 -19.321  22.665  1.00  0.00     0.274 HD
ENDBRANCH  25  26
ENDBRANCH  24  25
ENDBRANCH  23  24
ENDBRANCH  22  23
ENDBRANCH  20  22
ENDBRANCH  16  20
BRANCH  15  30
HETATM   30  O5  UNL     1       6.100 -17.257  22.990  1.00  0.00    -0.393 OA
ATOM     31  H5  UNL     1       6.136 -16.913  23.875  1.00  0.00     0.210 HD
ENDBRANCH  15  30
BRANCH  11  32
HETATM   32  O4  UNL     1       5.819 -14.453  23.559  1.00  0.00    -0.396 OA
ATOM     33  H4  UNL     1       6.529 -15.077  23.652  1.00  0.00     0.210 HD
ENDBRANCH  11  32
BRANCH   1  34
HETATM   34  O3  UNL     1      -1.150 -10.131  23.259  1.00  0.00    -0.270 OA
BRANCH  34  35
HETATM   35  S1  UNL     1      -2.178 -10.716  22.142  1.00  0.00     0.269 S 
HETATM   36  O1  UNL     1      -3.582 -10.186  22.245  1.00  0.00    -0.198 OA
HETATM   37  O2  UNL     1      -1.691 -10.237  20.774  1.00  0.00    -0.198 OA
BRANCH  35  38
HETATM   38  C2  UNL     1      -2.163 -12.492  22.041  1.00  0.00     0.128 C 
HETATM   39  C1  UNL     1      -2.991 -13.082  23.198  1.00  0.00     0.028 C 
HETATM   40  C3  UNL     1      -2.865 -12.921  20.773  1.00  0.00     0.028 C 
ENDBRANCH  35  38
ENDBRANCH  34  35
ENDBRANCH   1  34
TORSDOF 11
ENDMDL
MODEL 2
REMARK VINA RESULT: -8.127661542      1.094      1.822
REMARK  11 active torsions:
REMARK  status: ('A' for Active; 'I' for Inactive)
REMARK    1  A    between atoms: C2_2  and  S1_4 
REMARK    2  A    between atoms: S1_4  and  O3_7 
REMARK    3  A    between atoms: O3_7  and  C4_8 
REMARK    4  A    between atoms: C14_18  and  O4_19 
REMARK    5  A    between atoms: C18_24  and  O5_25 
REMARK    6  A    between atoms: C19_27  and  N1_28 
REMARK    7  A    between atoms: N1_28  and  C20_30 
REMARK    8  A    between atoms: C20_30  and  C21_31 
REMARK    9  A    between atoms: C21_31  and  C22_32 
REMARK   10  A    between atoms: C22_32  and  C23_33 
REMARK   11  A    between atoms: C23_33  and  N2_34 
ROOT
HETATM    1  C4  UNL     1       0.114 -10.614  23.406  1.00  0.00     0.146 C 
HETATM    2  C5  UNL     1       0.185 -11.883  24.255  1.00  0.00     0.034 C 
HETATM    3  C6  UNL     1       1.625 -12.251  24.562  1.00  0.00     0.012 C 
HETATM    4  C7  UNL     1       2.333 -12.403  23.249  1.00  0.00     0.019 C 
HETATM    5  C8  UNL     1       1.411 -12.188  22.120  1.00  0.00    -0.077 C 
HETATM    6  C9  UNL     1       1.153 -13.123  21.240  1.00  0.00    -0.023 C 
HETATM    7  C10 UNL     1       1.732 -14.493  21.251  1.00  0.00     0.033 C 
HETATM    8  C11 UNL     1       2.350 -14.778  22.600  1.00  0.00    -0.001 C 
HETATM    9  C12 UNL     1       3.145 -13.634  23.106  1.00  0.00     0.001 C 
HETATM   10  C13 UNL     1       4.220 -13.303  22.073  1.00  0.00     0.037 C 
HETATM   11  C14 UNL     1       5.385 -14.257  22.186  1.00  0.00     0.119 C 
HETATM   12  C15 UNL     1       5.095 -15.462  21.384  1.00  0.00     0.044 C 
HETATM   13  C16 UNL     1       4.109 -16.443  21.778  1.00  0.00    -0.010 C 
HETATM   14  C17 UNL     1       3.611 -17.115  20.480  1.00  0.00     0.018 C 
HETATM   15  C18 UNL     1       4.832 -17.579  22.547  1.00  0.00     0.149 C 
HETATM   16  C19 UNL     1       3.917 -17.958  23.647  1.00  0.00     0.106 C 
HETATM   17  C24 UNL     1       3.198 -16.677  24.030  1.00  0.00     0.033 C 
HETATM   18  C25 UNL     1       2.960 -16.120  22.613  1.00  0.00     0.003 C 
HETATM   19  C26 UNL     1       0.785 -10.825  22.068  1.00  0.00     0.067 C 
ENDROOT
BRANCH  16  20
HETATM   20  N1  UNL     1       4.495 -18.667  24.683  1.00  0.00    -0.415 N 
ATOM     21  H1  UNL     1       5.036 -18.146  25.373  1.00  0.00     0.153 HD
BRANCH  20  22
HETATM   22  C20 UNL     1       4.387 -20.046  24.845  1.00  0.00     0.114 C 
BRANCH  22  23
HETATM   23  C21 UNL     1       3.046 -20.306  25.567  1.00  0.00     0.021 C 
BRANCH  23  24
HETATM   24  C22 UNL     1       2.653 -21.755  25.455  1.00  0.00     0.029 C 
BRANCH  24  25
HETATM   25  C23 UNL     1       1.694 -22.186  26.541  1.00  0.00     0.229 C 
BRANCH  25  26
HETATM   26  N2  UNL     1       1.252 -20.992  27.249  1.00  0.00    -0.079 N 
ATOM     27  H23 UNL     1       1.900 -20.210  27.148  1.00  0.00     0.274 HD
ATOM     28  H22 UNL     1       0.441 -20.552  26.814  1.00  0.00     0.274 HD
ATOM     29  H21 UNL     1       1.089 -21.246  28.222  1.00  0.00     0.274 HD
ENDBRANCH  25  26
ENDBRANCH  24  25
ENDBRANCH  23  24
ENDBRANCH  22  23
ENDBRANCH  20  22
ENDBRANCH  16  20
BRANCH  15  30
HETATM   30  O5  UNL     1       6.107 -17.223  22.864  1.00  0.00    -0.393 OA
ATOM     31  H5  UNL     1       6.587 -17.958  23.227  1.00  0.00     0.210 HD
ENDBRANCH  15  30
BRANCH  11  32
HETATM   32  O4  UNL     1       5.833 -14.425  23.463  1.00  0.00    -0.396 OA
ATOM     33  H4  UNL     1       5.298 -15.015  23.981  1.00  0.00     0.210 HD
ENDBRANCH  11  32
BRANCH   1  34
HETATM   34  O3  UNL     1      -1.144 -10.107  23.322  1.00  0.00    -0.270 OA
BRANCH  34  35
HETATM   35  S1  UNL     1      -2.182 -10.664  22.199  1.00  0.00     0.269 S 
HETATM   36  O1  UNL     1      -3.584 -10.135  22.326  1.00  0.00    -0.198 OA
HETATM   37  O2  UNL     1      -1.704 -10.151  20.840  1.00  0.00    -0.198 OA
BRANCH  35  38
HETATM   38  C2  UNL     1      -2.169 -12.437  22.053  1.00  0.00     0.128 C 
HETATM   39  C1  UNL     1      -3.039 -13.052  23.165  1.00  0.00     0.028 C 
HETATM   40  C3  UNL     1      -2.827 -12.830  20.751  1.00  0.00     0.028 C 
ENDBRANCH  35  38
ENDBRANCH  34  35
ENDBRANCH   1  34
TORSDOF 11
ENDMDL
MODEL 3
REMARK VINA RESULT: -8.042693933      3.544      8.972
REMARK  11 active torsions:
REMARK  status: ('A' for Active; 'I' for Inactive)
REMARK    1  A    between atoms: C2_2  and  S1_4 
REMARK    2  A    between atoms: S1_4  and  O3_7 
REMARK    3  A    between atoms: O3_7  and  C4_8 
REMARK    4  A    between atoms: C14_18  and  O4_19 
REMARK    5  A    between atoms: C18_24  and  O5_25 
REMARK    6  A    between atoms: C19_27  and  N1_28 
REMARK    7  A    between atoms: N1_28  and  C20_30 
REMARK    8  A    between atoms: C20_30  and  C21_31 
REMARK    9  A    between atoms: C21_31  and  C22_32 
REMARK   10  A    between atoms: C22_32  and  C23_33 
REMARK   11  A    between atoms: C23_33  and  N2_34 
ROOT
HETATM    1  C4  UNL     1       4.001 -15.933  23.407  1.00  0.00     0.146 C 
HETATM    2  C5  UNL     1       4.004 -14.455  23.015  1.00  0.00     0.034 C 
HETATM    3  C6  UNL     1       2.978 -13.678  23.821  1.00  0.00     0.012 C 
HETATM    4  C7  UNL     1       1.647 -14.328  23.589  1.00  0.00     0.019 C 
HETATM    5  C8  UNL     1       1.763 -15.455  22.647  1.00  0.00    -0.077 C 
HETATM    6  C9  UNL     1       1.134 -15.474  21.498  1.00  0.00    -0.023 C 
HETATM    7  C10 UNL     1       0.244 -14.396  20.991  1.00  0.00     0.033 C 
HETATM    8  C11 UNL     1       0.458 -13.134  21.794  1.00  0.00    -0.001 C 
HETATM    9  C12 UNL     1       0.542 -13.402  23.249  1.00  0.00     0.001 C 
HETATM   10  C13 UNL     1      -0.740 -14.112  23.680  1.00  0.00     0.037 C 
HETATM   11  C14 UNL     1      -1.869 -13.124  23.853  1.00  0.00     0.119 C 
HETATM   12  C15 UNL     1      -2.520 -12.909  22.545  1.00  0.00     0.044 C 
HETATM   13  C16 UNL     1      -1.890 -12.173  21.472  1.00  0.00    -0.010 C 
HETATM   14  C17 UNL     1      -2.489 -12.713  20.155  1.00  0.00     0.018 C 
HETATM   15  C18 UNL     1      -2.375 -10.702  21.540  1.00  0.00     0.149 C 
HETATM   16  C19 UNL     1      -1.192  -9.878  21.209  1.00  0.00     0.106 C 
HETATM   17  C24 UNL     1      -0.001 -10.653  21.745  1.00  0.00     0.033 C 
HETATM   18  C25 UNL     1      -0.445 -12.067  21.325  1.00  0.00     0.003 C 
HETATM   19  C26 UNL     1       2.663 -16.567  23.102  1.00  0.00     0.067 C 
ENDROOT
BRANCH  16  20
HETATM   20  N1  UNL     1      -1.271  -8.549  21.577  1.00  0.00    -0.415 N 
ATOM     21  H1  UNL     1      -2.103  -8.027  21.302  1.00  0.00     0.153 HD
BRANCH  20  22
HETATM   22  C20 UNL     1      -0.288  -7.874  22.298  1.00  0.00     0.114 C 
BRANCH  22  23
HETATM   23  C21 UNL     1      -0.554  -8.165  23.793  1.00  0.00     0.021 C 
BRANCH  23  24
HETATM   24  C22 UNL     1       0.741  -8.344  24.538  1.00  0.00     0.029 C 
BRANCH  24  25
HETATM   25  C23 UNL     1       1.014  -9.787  24.897  1.00  0.00     0.229 C 
BRANCH  25  26
HETATM   26  N2  UNL     1       2.459  -9.976  24.922  1.00  0.00    -0.079 N 
ATOM     27  H23 UNL     1       2.743 -10.783  25.479  1.00  0.00     0.274 HD
ATOM     28  H22 UNL     1       2.833 -10.291  24.027  1.00  0.00     0.274 HD
ATOM     29  H21 UNL     1       2.883  -9.106  25.243  1.00  0.00     0.274 HD
ENDBRANCH  25  26
ENDBRANCH  24  25
ENDBRANCH  23  24
ENDBRANCH  22  23
ENDBRANCH  20  22
ENDBRANCH  16  20
BRANCH  15  30
HETATM   30  O5  UNL     1      -3.026 -10.454  22.710  1.00  0.00    -0.393 OA
ATOM     31  H5  UNL     1      -3.937 -10.717  22.657  1.00  0.00     0.210 HD
ENDBRANCH  15  30
BRANCH  11  32
HETATM   32  O4  UNL     1      -1.530 -12.029  24.592  1.00  0.00    -0.396 OA
ATOM     33  H4  UNL     1      -1.867 -11.213  24.242  1.00  0.00     0.210 HD
ENDBRANCH  11  32
BRANCH   1  34
HETATM   34  O3  UNL     1       5.065 -16.612  22.902  1.00  0.00    -0.270 OA
BRANCH  34  35
HETATM   35  S1  UNL     1       5.953 -17.580  23.861  1.00  0.00     0.269 S 
HETATM   36  O1  UNL     1       7.345 -17.081  24.136  1.00  0.00    -0.198 OA
HETATM   37  O2  UNL     1       5.281 -17.605  25.235  1.00  0.00    -0.198 OA
BRANCH  35  38
HETATM   38  C2  UNL     1       5.967 -19.276  23.323  1.00  0.00     0.128 C 
HETATM   39  C1  UNL     1       7.311 -19.925  23.701  1.00  0.00     0.028 C 
HETATM   40  C3  UNL     1       4.911 -20.044  24.083  1.00  0.00     0.028 C 
ENDBRANCH  35  38
ENDBRANCH  34  35
ENDBRANCH   1  34
TORSDOF 11
ENDMDL
MODEL 4
REMARK VINA RESULT: -7.733133238      1.787      2.870
REMARK  11 active torsions:
REMARK  status: ('A' for Active; 'I' for Inactive)
REMARK    1  A    between atoms: C2_2  and  S1_4 
REMARK    2  A    between atoms: S1_4  and  O3_7 
REMARK    3  A    between atoms: O3_7  and  C4_8 
REMARK    4  A    between atoms: C14_18  and  O4_19 
REMARK    5  A    between atoms: C18_24  and  O5_25 
REMARK    6  A    between atoms: C19_27  and  N1_28 
REMARK    7  A    between atoms: N1_28  and  C20_30 
REMARK    8  A    between atoms: C20_30  and  C21_31 
REMARK    9  A    between atoms: C21_31  and  C22_32 
REMARK   10  A    between atoms: C22_32  and  C23_33 
REMARK   11  A    between atoms: C23_33  and  N2_34 
ROOT
HETATM    1  C4  UNL     1      -0.075 -11.543  23.604  1.00  0.00     0.146 C 
HETATM    2  C5  UNL     1      -0.153 -12.927  24.248  1.00  0.00     0.034 C 
HETATM    3  C6  UNL     1       1.167 -13.298  24.900  1.00  0.00     0.012 C 
HETATM    4  C7  UNL     1       2.223 -13.219  23.839  1.00  0.00     0.019 C 
HETATM    5  C8  UNL     1       1.641 -12.857  22.535  1.00  0.00    -0.077 C 
HETATM    6  C9  UNL     1       1.710 -13.649  21.494  1.00  0.00    -0.023 C 
HETATM    7  C10 UNL     1       2.360 -14.986  21.477  1.00  0.00     0.033 C 
HETATM    8  C11 UNL     1       2.595 -15.461  22.892  1.00  0.00    -0.001 C 
HETATM    9  C12 UNL     1       3.130 -14.388  23.762  1.00  0.00     0.001 C 
HETATM   10  C13 UNL     1       4.424 -13.867  23.141  1.00  0.00     0.037 C 
HETATM   11  C14 UNL     1       5.578 -14.793  23.448  1.00  0.00     0.119 C 
HETATM   12  C15 UNL     1       5.613 -15.865  22.433  1.00  0.00     0.044 C 
HETATM   13  C16 UNL     1       4.630 -16.924  22.383  1.00  0.00    -0.010 C 
HETATM   14  C17 UNL     1       4.566 -17.398  20.914  1.00  0.00     0.018 C 
HETATM   15  C18 UNL     1       5.190 -18.145  23.157  1.00  0.00     0.149 C 
HETATM   16  C19 UNL     1       4.034 -18.719  23.881  1.00  0.00     0.106 C 
HETATM   17  C24 UNL     1       3.145 -17.536  24.219  1.00  0.00     0.033 C 
HETATM   18  C25 UNL     1       3.273 -16.770  22.888  1.00  0.00     0.003 C 
HETATM   19  C26 UNL     1       0.957 -11.522  22.500  1.00  0.00     0.067 C 
ENDROOT
BRANCH  16  20
HETATM   20  N1  UNL     1       4.349 -19.565  24.927  1.00  0.00    -0.415 N 
ATOM     21  H1  UNL     1       4.953 -19.205  25.666  1.00  0.00     0.153 HD
BRANCH  20  22
HETATM   22  C20 UNL     1       3.894 -20.877  25.039  1.00  0.00     0.114 C 
BRANCH  22  23
HETATM   23  C21 UNL     1       2.555 -20.821  25.809  1.00  0.00     0.021 C 
BRANCH  23  24
HETATM   24  C22 UNL     1       2.082 -22.206  26.157  1.00  0.00     0.029 C 
BRANCH  24  25
HETATM   25  C23 UNL     1       1.240 -22.239  27.411  1.00  0.00     0.229 C 
BRANCH  25  26
HETATM   26  N2  UNL     1       0.977 -20.862  27.810  1.00  0.00    -0.079 N 
ATOM     27  H23 UNL     1       1.753 -20.444  28.325  1.00  0.00     0.274 HD
ATOM     28  H22 UNL     1       0.975 -20.216  27.021  1.00  0.00     0.274 HD
ATOM     29  H21 UNL     1       0.102 -20.849  28.334  1.00  0.00     0.274 HD
ENDBRANCH  25  26
ENDBRANCH  24  25
ENDBRANCH  23  24
ENDBRANCH  22  23
ENDBRANCH  20  22
ENDBRANCH  16  20
BRANCH  15  30
HETATM   30  O5  UNL     1       6.296 -17.806  23.875  1.00  0.00    -0.393 OA
ATOM     31  H5  UNL     1       6.071 -17.606  24.775  1.00  0.00     0.210 HD
ENDBRANCH  15  30
BRANCH  11  32
HETATM   32  O4  UNL     1       5.661 -15.146  24.762  1.00  0.00    -0.396 OA
ATOM     33  H4  UNL     1       6.494 -15.536  25.000  1.00  0.00     0.210 HD
ENDBRANCH  11  32
BRANCH   1  34
HETATM   34  O3  UNL     1      -1.294 -11.067  23.234  1.00  0.00    -0.270 OA
BRANCH  34  35
HETATM   35  S1  UNL     1      -1.408  -9.776  22.251  1.00  0.00     0.269 S 
HETATM   36  O1  UNL     1      -1.519 -10.110  20.789  1.00  0.00    -0.198 OA
HETATM   37  O2  UNL     1      -2.723  -9.066  22.579  1.00  0.00    -0.198 OA
BRANCH  35  38
HETATM   38  C2  UNL     1      -0.142  -8.560  22.544  1.00  0.00     0.128 C 
HETATM   39  C1  UNL     1      -0.215  -7.469  21.460  1.00  0.00     0.028 C 
HETATM   40  C3  UNL     1      -0.423  -7.860  23.853  1.00  0.00     0.028 C 
ENDBRANCH  35  38
ENDBRANCH  34  35
ENDBRANCH   1  34
TORSDOF 11
ENDMDL
MODEL 5
REMARK VINA RESULT: -7.708974215      1.818      2.737
REMARK  11 active torsions:
REMARK  status: ('A' for Active; 'I' for Inactive)
REMARK    1  A    between atoms: C2_2  and  S1_4 
REMARK    2  A    between atoms: S1_4  and  O3_7 
REMARK    3  A    between atoms: O3_7  and  C4_8 
REMARK    4  A    between atoms: C14_18  and  O4_19 
REMARK    5  A    between atoms: C18_24  and  O5_25 
REMARK    6  A    between atoms: C19_27  and  N1_28 
REMARK    7  A    between atoms: N1_28  and  C20_30 
REMARK    8  A    between atoms: C20_30  and  C21_31 
REMARK    9  A    between atoms: C21_31  and  C22_32 
REMARK   10  A    between atoms: C22_32  and  C23_33 
REMARK   11  A    between atoms: C23_33  and  N2_34 
ROOT
HETATM    1  C4  UNL     1      -0.074 -11.541  23.485  1.00  0.00     0.146 C 
HETATM    2  C5  UNL     1      -0.195 -12.911  24.153  1.00  0.00     0.034 C 
HETATM    3  C6  UNL     1       1.097 -13.289  24.855  1.00  0.00     0.012 C 
HETATM    4  C7  UNL     1       2.188 -13.249  23.826  1.00  0.00     0.019 C 
HETATM    5  C8  UNL     1       1.653 -12.904  22.498  1.00  0.00    -0.077 C 
HETATM    6  C9  UNL     1       1.742 -13.717  21.475  1.00  0.00    -0.023 C 
HETATM    7  C10 UNL     1       2.370 -15.064  21.504  1.00  0.00     0.033 C 
HETATM    8  C11 UNL     1       2.552 -15.515  22.935  1.00  0.00    -0.001 C 
HETATM    9  C12 UNL     1       3.077 -14.433  23.801  1.00  0.00     0.001 C 
HETATM   10  C13 UNL     1       4.399 -13.946  23.211  1.00  0.00     0.037 C 
HETATM   11  C14 UNL     1       5.526 -14.884  23.573  1.00  0.00     0.119 C 
HETATM   12  C15 UNL     1       5.576 -15.976  22.581  1.00  0.00     0.044 C 
HETATM   13  C16 UNL     1       4.578 -17.020  22.519  1.00  0.00    -0.010 C 
HETATM   14  C17 UNL     1       4.552 -17.522  21.059  1.00  0.00     0.018 C 
HETATM   15  C18 UNL     1       5.092 -18.234  23.334  1.00  0.00     0.149 C 
HETATM   16  C19 UNL     1       3.905 -18.775  24.032  1.00  0.00     0.106 C 
HETATM   17  C24 UNL     1       3.025 -17.571  24.319  1.00  0.00     0.033 C 
HETATM   18  C25 UNL     1       3.208 -16.834  22.978  1.00  0.00     0.003 C 
HETATM   19  C26 UNL     1       0.993 -11.558  22.415  1.00  0.00     0.067 C 
ENDROOT
BRANCH  16  20
HETATM   20  N1  UNL     1       4.172 -19.605  25.104  1.00  0.00    -0.415 N 
ATOM     21  H1  UNL     1       5.053 -19.474  25.600  1.00  0.00     0.153 HD
BRANCH  20  22
HETATM   22  C20 UNL     1       3.317 -20.610  25.550  1.00  0.00     0.114 C 
BRANCH  22  23
HETATM   23  C21 UNL     1       3.846 -21.939  24.962  1.00  0.00     0.021 C 
BRANCH  23  24
HETATM   24  C22 UNL     1       2.760 -22.980  24.938  1.00  0.00     0.029 C 
BRANCH  24  25
HETATM   25  C23 UNL     1       1.387 -22.387  24.716  1.00  0.00     0.229 C 
BRANCH  25  26
HETATM   26  N2  UNL     1       0.725 -23.167  23.678  1.00  0.00    -0.079 N 
ATOM     27  H23 UNL     1       0.259 -23.997  24.044  1.00  0.00     0.274 HD
ATOM     28  H22 UNL     1      -0.101 -22.703  23.301  1.00  0.00     0.274 HD
ATOM     29  H21 UNL     1       1.417 -23.385  22.961  1.00  0.00     0.274 HD
ENDBRANCH  25  26
ENDBRANCH  24  25
ENDBRANCH  23  24
ENDBRANCH  22  23
ENDBRANCH  20  22
ENDBRANCH  16  20
BRANCH  15  30
HETATM   30  O5  UNL     1       6.181 -17.899  24.080  1.00  0.00    -0.393 OA
ATOM     31  H5  UNL     1       6.861 -18.558  24.007  1.00  0.00     0.210 HD
ENDBRANCH  15  30
BRANCH  11  32
HETATM   32  O4  UNL     1       5.562 -15.212  24.896  1.00  0.00    -0.396 OA
ATOM     33  H4  UNL     1       6.358 -15.661  25.156  1.00  0.00     0.210 HD
ENDBRANCH  11  32
BRANCH   1  34
HETATM   34  O3  UNL     1      -1.272 -11.053  23.068  1.00  0.00    -0.270 OA
BRANCH  34  35
HETATM   35  S1  UNL     1      -1.345  -9.666  22.222  1.00  0.00     0.269 S 
HETATM   36  O1  UNL     1      -1.464  -9.845  20.734  1.00  0.00    -0.198 OA
HETATM   37  O2  UNL     1      -2.637  -8.952  22.623  1.00  0.00    -0.198 OA
BRANCH  35  38
HETATM   38  C2  UNL     1      -0.042  -8.526  22.634  1.00  0.00     0.128 C 
HETATM   39  C1  UNL     1      -0.144  -7.279  21.737  1.00  0.00     0.028 C 
HETATM   40  C3  UNL     1      -0.246  -8.033  24.048  1.00  0.00     0.028 C 
ENDBRANCH  35  38
ENDBRANCH  34  35
ENDBRANCH   1  34
TORSDOF 11
ENDMDL
