MODEL 1
REMARK VINA RESULT: -6.074836714      0.000      0.000
REMARK  4 active torsions:
REMARK  status: ('A' for Active; 'I' for Inactive)
REMARK    1  A    between atoms: C2_2  and  O1_3 
REMARK    2  A    between atoms: C5_7  and  O2_8 
REMARK    3  A    between atoms: C6_10  and  O3_11 
REMARK    4  A    between atoms: C8_14  and  O4_15 
ROOT
HETATM    1  C1  UNL     1      12.269  17.596  15.739  1.00  0.00     0.046 C 
HETATM    2  C2  UNL     1      12.450  16.519  16.745  1.00  0.00     0.057 C 
HETATM    3  C3  UNL     1      13.893  15.995  16.795  1.00  0.00     0.047 C 
HETATM    4  C4  UNL     1      14.338  16.414  18.127  1.00  0.00     0.054 C 
HETATM    5  C5  UNL     1      15.301  15.602  18.872  1.00  0.00     0.154 C 
HETATM    6  C6  UNL     1      14.863  15.803  20.330  1.00  0.00     0.150 C 
HETATM    7  C7  UNL     1      13.527  16.566  20.255  1.00  0.00     0.072 C 
HETATM    8  C8  UNL     1      13.051  16.121  18.935  1.00  0.00     0.069 C 
HETATM    9  C9  UNL     1      12.136  16.994  18.176  1.00  0.00     0.075 C 
ENDROOT
BRANCH   2  10
HETATM   10  O1  UNL     1      11.633  15.409  16.533  1.00  0.00    -0.390 OA
ATOM     11  H1  UNL     1      11.781  14.701  17.149  1.00  0.00     0.210 HD
ENDBRANCH   2  10
BRANCH   8  12
HETATM   12  O4  UNL     1      12.755  14.773  18.845  1.00  0.00    -0.389 OA
ATOM     13  H4  UNL     1      11.874  14.624  19.167  1.00  0.00     0.210 HD
ENDBRANCH   8  12
BRANCH   5  14
HETATM   14  O2  UNL     1      15.315  14.269  18.521  1.00  0.00    -0.393 OA
ATOM     15  H2  UNL     1      16.147  13.833  18.665  1.00  0.00     0.210 HD
ENDBRANCH   5  14
BRANCH   6  16
HETATM   16  O3  UNL     1      15.800  16.479  21.067  1.00  0.00    -0.393 OA
ATOM     17  H3  UNL     1      15.576  16.516  21.989  1.00  0.00     0.210 HD
ENDBRANCH   6  16
TORSDOF 4
ENDMDL
MODEL 2
REMARK VINA RESULT: -6.018281677      1.421      4.148
REMARK  4 active torsions:
REMARK  status: ('A' for Active; 'I' for Inactive)
REMARK    1  A    between atoms: C2_2  and  O1_3 
REMARK    2  A    between atoms: C5_7  and  O2_8 
REMARK    3  A    between atoms: C6_10  and  O3_11 
REMARK    4  A    between atoms: C8_14  and  O4_15 
ROOT
HETATM    1  C1  UNL     1      15.690  16.217  20.504  1.00  0.00     0.046 C 
HETATM    2  C2  UNL     1      15.087  15.787  19.218  1.00  0.00     0.057 C 
HETATM    3  C3  UNL     1      13.552  15.846  19.238  1.00  0.00     0.047 C 
HETATM    4  C4  UNL     1      13.261  16.904  18.266  1.00  0.00     0.054 C 
HETATM    5  C5  UNL     1      12.041  16.849  17.459  1.00  0.00     0.154 C 
HETATM    6  C6  UNL     1      12.482  17.480  16.130  1.00  0.00     0.150 C 
HETATM    7  C7  UNL     1      14.009  17.649  16.243  1.00  0.00     0.072 C 
HETATM    8  C8  UNL     1      14.318  16.563  17.188  1.00  0.00     0.069 C 
HETATM    9  C9  UNL     1      15.517  16.680  18.040  1.00  0.00     0.075 C 
ENDROOT
BRANCH   2  10
HETATM   10  O1  UNL     1      15.428  14.486  18.845  1.00  0.00    -0.390 OA
ATOM     11  H1  UNL     1      14.740  14.030  18.374  1.00  0.00     0.210 HD
ENDBRANCH   2  10
BRANCH   8  12
HETATM   12  O4  UNL     1      14.083  15.287  16.709  1.00  0.00    -0.389 OA
ATOM     13  H4  UNL     1      14.594  15.151  15.920  1.00  0.00     0.210 HD
ENDBRANCH   8  12
BRANCH   5  14
HETATM   14  O2  UNL     1      11.533  15.580  17.279  1.00  0.00    -0.393 OA
ATOM     15  H2  UNL     1      11.171  15.187  18.064  1.00  0.00     0.210 HD
ENDBRANCH   5  14
BRANCH   6  16
HETATM   16  O3  UNL     1      11.851  18.672  15.886  1.00  0.00    -0.393 OA
ATOM     17  H3  UNL     1      11.088  18.796  16.437  1.00  0.00     0.210 HD
ENDBRANCH   6  16
TORSDOF 4
ENDMDL
MODEL 3
REMARK VINA RESULT: -5.922823572      1.504      4.248
REMARK  4 active torsions:
REMARK  status: ('A' for Active; 'I' for Inactive)
REMARK    1  A    between atoms: C2_2  and  O1_3 
REMARK    2  A    between atoms: C5_7  and  O2_8 
REMARK    3  A    between atoms: C6_10  and  O3_11 
REMARK    4  A    between atoms: C8_14  and  O4_15 
ROOT
HETATM    1  C1  UNL     1      14.384  15.503  20.355  1.00  0.00     0.046 C 
HETATM    2  C2  UNL     1      14.445  15.310  18.885  1.00  0.00     0.057 C 
HETATM    3  C3  UNL     1      13.111  14.822  18.298  1.00  0.00     0.047 C 
HETATM    4  C4  UNL     1      12.691  15.957  17.473  1.00  0.00     0.054 C 
HETATM    5  C5  UNL     1      11.922  15.735  16.248  1.00  0.00     0.154 C 
HETATM    6  C6  UNL     1      12.416  16.859  15.325  1.00  0.00     0.150 C 
HETATM    7  C7  UNL     1      13.603  17.504  16.064  1.00  0.00     0.072 C 
HETATM    8  C8  UNL     1      14.059  16.358  16.868  1.00  0.00     0.069 C 
HETATM    9  C9  UNL     1      14.769  16.615  18.134  1.00  0.00     0.075 C 
ENDROOT
BRANCH   2  10
HETATM   10  O1  UNL     1      15.415  14.394  18.477  1.00  0.00    -0.390 OA
ATOM     11  H1  UNL     1      15.457  13.615  19.019  1.00  0.00     0.210 HD
ENDBRANCH   2  10
BRANCH   8  12
HETATM   12  O4  UNL     1      14.562  15.296  16.139  1.00  0.00    -0.389 OA
ATOM     13  H4  UNL     1      15.461  15.483  15.895  1.00  0.00     0.210 HD
ENDBRANCH   8  12
BRANCH   5  14
HETATM   14  O2  UNL     1      12.101  14.491  15.681  1.00  0.00    -0.393 OA
ATOM     15  H2  UNL     1      12.388  13.820  16.288  1.00  0.00     0.210 HD
ENDBRANCH   5  14
BRANCH   6  16
HETATM   16  O3  UNL     1      11.431  17.769  15.041  1.00  0.00    -0.393 OA
ATOM     17  H3  UNL     1      11.475  18.534  15.602  1.00  0.00     0.210 HD
ENDBRANCH   6  16
TORSDOF 4
ENDMDL
MODEL 4
REMARK VINA RESULT: -5.747360054      1.396      1.617
REMARK  4 active torsions:
REMARK  status: ('A' for Active; 'I' for Inactive)
REMARK    1  A    between atoms: C2_2  and  O1_3 
REMARK    2  A    between atoms: C5_7  and  O2_8 
REMARK    3  A    between atoms: C6_10  and  O3_11 
REMARK    4  A    between atoms: C8_14  and  O4_15 
ROOT
HETATM    1  C1  UNL     1      12.104  16.701  16.019  1.00  0.00     0.046 C 
HETATM    2  C2  UNL     1      13.248  15.984  16.636  1.00  0.00     0.057 C 
HETATM    3  C3  UNL     1      14.365  16.936  17.090  1.00  0.00     0.047 C 
HETATM    4  C4  UNL     1      14.335  16.789  18.548  1.00  0.00     0.054 C 
HETATM    5  C5  UNL     1      15.566  16.919  19.328  1.00  0.00     0.154 C 
HETATM    6  C6  UNL     1      15.348  15.926  20.480  1.00  0.00     0.150 C 
HETATM    7  C7  UNL     1      14.064  15.155  20.118  1.00  0.00     0.072 C 
HETATM    8  C8  UNL     1      14.105  15.262  18.650  1.00  0.00     0.069 C 
HETATM    9  C9  UNL     1      12.839  15.200  17.897  1.00  0.00     0.075 C 
ENDROOT
BRANCH   2  10
HETATM   10  O1  UNL     1      13.846  15.048  15.791  1.00  0.00    -0.390 OA
ATOM     11  H1  UNL     1      13.231  14.592  15.228  1.00  0.00     0.210 HD
ENDBRANCH   2  10
BRANCH   8  12
HETATM   12  O4  UNL     1      15.160  14.603  18.046  1.00  0.00    -0.389 OA
ATOM     13  H4  UNL     1      14.954  14.458  17.130  1.00  0.00     0.210 HD
ENDBRANCH   8  12
BRANCH   5  14
HETATM   14  O2  UNL     1      16.719  16.640  18.624  1.00  0.00    -0.393 OA
ATOM     15  H2  UNL     1      17.425  17.258  18.766  1.00  0.00     0.210 HD
ENDBRANCH   5  14
BRANCH   6  16
HETATM   16  O3  UNL     1      15.245  16.553  21.694  1.00  0.00    -0.393 OA
ATOM     17  H3  UNL     1      14.573  16.168  22.244  1.00  0.00     0.210 HD
ENDBRANCH   6  16
TORSDOF 4
ENDMDL
MODEL 5
REMARK VINA RESULT: -5.667074696      1.396      4.147
REMARK  4 active torsions:
REMARK  status: ('A' for Active; 'I' for Inactive)
REMARK    1  A    between atoms: C2_2  and  O1_3 
REMARK    2  A    between atoms: C5_7  and  O2_8 
REMARK    3  A    between atoms: C6_10  and  O3_11 
REMARK    4  A    between atoms: C8_14  and  O4_15 
ROOT
HETATM    1  C1  UNL     1      15.150  16.271  20.751  1.00  0.00     0.046 C 
HETATM    2  C2  UNL     1      14.261  15.696  19.711  1.00  0.00     0.057 C 
HETATM    3  C3  UNL     1      13.055  16.597  19.402  1.00  0.00     0.047 C 
HETATM    4  C4  UNL     1      13.313  17.012  18.020  1.00  0.00     0.054 C 
HETATM    5  C5  UNL     1      12.198  17.264  17.105  1.00  0.00     0.154 C 
HETATM    6  C6  UNL     1      12.760  16.811  15.749  1.00  0.00     0.150 C 
HETATM    7  C7  UNL     1      14.105  16.133  16.069  1.00  0.00     0.072 C 
HETATM    8  C8  UNL     1      13.843  15.677  17.444  1.00  0.00     0.069 C 
HETATM    9  C9  UNL     1      14.982  15.500  18.364  1.00  0.00     0.075 C 
ENDROOT
BRANCH   2  10
HETATM   10  O1  UNL     1      13.743  14.444  20.044  1.00  0.00    -0.390 OA
ATOM     11  H1  UNL     1      13.130  14.463  20.769  1.00  0.00     0.210 HD
ENDBRANCH   2  10
BRANCH   8  12
HETATM   12  O4  UNL     1      12.862  14.709  17.561  1.00  0.00    -0.389 OA
ATOM     13  H4  UNL     1      12.765  14.260  16.730  1.00  0.00     0.210 HD
ENDBRANCH   8  12
BRANCH   5  14
HETATM   14  O2  UNL     1      11.036  16.596  17.426  1.00  0.00    -0.393 OA
ATOM     15  H2  UNL     1      10.810  15.892  16.830  1.00  0.00     0.210 HD
ENDBRANCH   5  14
BRANCH   6  16
HETATM   16  O3  UNL     1      12.906  17.854  14.872  1.00  0.00    -0.393 OA
ATOM     17  H3  UNL     1      12.072  18.231  14.618  1.00  0.00     0.210 HD
ENDBRANCH   6  16
TORSDOF 4
ENDMDL
