MODEL 1
REMARK VINA RESULT: -7.306147313      0.000      0.000
REMARK  10 active torsions:
REMARK  status: ('A' for Active; 'I' for Inactive)
REMARK    1  A    between atoms: C2_2  and  C3_3 
REMARK    2  A    between atoms: C3_3  and  C4_4 
REMARK    3  A    between atoms: C6_6  and  O1_7 
REMARK    4  A    between atoms: O1_7  and  C7_8 
REMARK    5  A    between atoms: C9_11  and  N1_12 
REMARK    6  A    between atoms: N1_12  and  N2_14 
REMARK    7  A    between atoms: C10_19  and  N4_20 
REMARK    8  A    between atoms: C15_28  and  O3_29 
REMARK    9  A    between atoms: C16_31  and  O4_32 
REMARK   10  A    between atoms: C17_34  and  N6_35 
ROOT
HETATM    1  C7  UNL     1     -12.385  45.931  35.597  1.00  0.00     0.294 C 
HETATM    2  O2  UNL     1     -11.523  45.822  34.529  1.00  0.00    -0.356 OA
HETATM    3  C8  UNL     1     -12.268  45.624  33.398  1.00  0.00     0.203 C 
HETATM    4  C9  UNL     1     -13.152  46.787  33.004  1.00  0.00     0.172 C 
HETATM    5  C10 UNL     1     -13.866  47.377  34.198  1.00  0.00     0.045 C 
HETATM    6  C15 UNL     1     -13.058  47.290  35.466  1.00  0.00     0.220 C 
ENDROOT
BRANCH   1   7
HETATM    7  O1  UNL     1     -13.334  44.950  35.673  1.00  0.00    -0.350 OA
BRANCH   7   8
HETATM    8  C6  UNL     1     -13.285  44.236  36.844  1.00  0.00     0.156 C 
HETATM    9  C5  UNL     1     -14.053  42.933  36.816  1.00  0.00     0.041 C 
HETATM   10  C4  UNL     1     -13.311  42.036  37.814  1.00  0.00     0.024 C 
HETATM   11  C17 UNL     1     -12.023  42.715  38.102  1.00  0.00     0.218 C 
HETATM   12  C16 UNL     1     -11.849  43.709  36.983  1.00  0.00     0.177 C 
BRANCH  10  13
HETATM   13  C3  UNL     1     -13.180  40.680  37.169  1.00  0.00     0.033 C 
BRANCH  13  14
HETATM   14  C2  UNL     1     -13.173  39.570  38.125  1.00  0.00    -0.036 C 
HETATM   15  C1  UNL     1     -14.148  39.433  38.992  1.00  0.00     0.007 C 
ENDBRANCH  13  14
ENDBRANCH  10  13
BRANCH  11  16
HETATM   16  N6  UNL     1     -12.174  43.467  39.329  1.00  0.00    -0.072 N 
ATOM     17  H63 UNL     1     -13.101  43.365  39.742  1.00  0.00     0.274 HD
ATOM     18  H62 UNL     1     -11.635  43.075  40.101  1.00  0.00     0.274 HD
ATOM     19  H61 UNL     1     -11.935  44.440  39.136  1.00  0.00     0.274 HD
ENDBRANCH  11  16
BRANCH  12  20
HETATM   20  O4  UNL     1     -11.510  43.105  35.775  1.00  0.00    -0.391 OA
ATOM     21  H4  UNL     1     -10.898  42.405  35.971  1.00  0.00     0.210 HD
ENDBRANCH  12  20
ENDBRANCH   7   8
ENDBRANCH   1   7
BRANCH   6  22
HETATM   22  O3  UNL     1     -12.050  48.212  35.588  1.00  0.00    -0.385 OA
ATOM     23  H3  UNL     1     -12.111  48.760  34.815  1.00  0.00     0.210 HD
ENDBRANCH   6  22
BRANCH   5  24
HETATM   24  N4  UNL     1     -14.591  48.554  33.995  1.00  0.00    -0.380 N 
HETATM   25  C11 UNL     1     -15.120  49.116  35.196  1.00  0.00     0.150 C 
HETATM   26  C12 UNL     1     -15.941  50.334  35.069  1.00  0.00     0.252 C 
HETATM   27  N5  UNL     1     -16.820  50.295  33.910  1.00  0.00    -0.072 N 
HETATM   28  C13 UNL     1     -15.936  50.197  32.764  1.00  0.00     0.252 C 
ATOM     29  H52 UNL     1     -17.524  49.558  33.951  1.00  0.00     0.277 HD
ATOM     30  H51 UNL     1     -17.472  51.078  33.861  1.00  0.00     0.277 HD
HETATM   31  C14 UNL     1     -15.318  48.786  32.820  1.00  0.00     0.150 C 
ENDBRANCH   5  24
BRANCH   4  32
HETATM   32  N1  UNL     1     -12.325  47.729  32.297  1.00  0.00    -0.310 N 
ATOM     33  H1  UNL     1     -12.774  48.354  31.626  1.00  0.00     0.182 HD
BRANCH  32  34
HETATM   34  N2  UNL     1     -11.108  47.826  32.455  1.00  0.00    -0.253 N 
HETATM   35  N3  UNL     1     -10.061  48.104  33.053  1.00  0.00    -0.331 N 
ATOM     36  H32 UNL     1     -10.460  48.458  33.922  1.00  0.00     0.178 HD
ATOM     37  H31 UNL     1      -9.053  48.184  33.183  1.00  0.00     0.178 HD
ATOM     38  H2  UNL     1     -10.754  47.463  31.571  1.00  0.00     0.207 HD
ENDBRANCH  32  34
ENDBRANCH   4  32
TORSDOF 10
ENDMDL
MODEL 2
REMARK VINA RESULT: -7.057481779      2.196      3.758
REMARK  10 active torsions:
REMARK  status: ('A' for Active; 'I' for Inactive)
REMARK    1  A    between atoms: C2_2  and  C3_3 
REMARK    2  A    between atoms: C3_3  and  C4_4 
REMARK    3  A    between atoms: C6_6  and  O1_7 
REMARK    4  A    between atoms: O1_7  and  C7_8 
REMARK    5  A    between atoms: C9_11  and  N1_12 
REMARK    6  A    between atoms: N1_12  and  N2_14 
REMARK    7  A    between atoms: C10_19  and  N4_20 
REMARK    8  A    between atoms: C15_28  and  O3_29 
REMARK    9  A    between atoms: C16_31  and  O4_32 
REMARK   10  A    between atoms: C17_34  and  N6_35 
ROOT
HETATM    1  C7  UNL     1     -14.043  45.816  36.323  1.00  0.00     0.294 C 
HETATM    2  O2  UNL     1     -14.171  47.122  36.744  1.00  0.00    -0.356 OA
HETATM    3  C8  UNL     1     -12.960  47.740  36.593  1.00  0.00     0.203 C 
HETATM    4  C9  UNL     1     -12.493  47.888  35.161  1.00  0.00     0.172 C 
HETATM    5  C10 UNL     1     -12.719  46.624  34.365  1.00  0.00     0.045 C 
HETATM    6  C15 UNL     1     -13.943  45.865  34.805  1.00  0.00     0.220 C 
ENDROOT
BRANCH   1   7
HETATM    7  O1  UNL     1     -12.965  45.150  36.837  1.00  0.00    -0.350 OA
BRANCH   7   8
HETATM    8  C6  UNL     1     -13.283  43.917  37.348  1.00  0.00     0.156 C 
HETATM    9  C5  UNL     1     -13.557  42.857  36.304  1.00  0.00     0.041 C 
HETATM   10  C4  UNL     1     -13.163  41.542  36.987  1.00  0.00     0.024 C 
HETATM   11  C17 UNL     1     -12.406  41.921  38.206  1.00  0.00     0.218 C 
HETATM   12  C16 UNL     1     -12.002  43.355  37.983  1.00  0.00     0.177 C 
BRANCH  10  13
HETATM   13  C3  UNL     1     -12.378  40.744  35.978  1.00  0.00     0.033 C 
BRANCH  13  14
HETATM   14  C2  UNL     1     -12.327  41.358  34.649  1.00  0.00    -0.036 C 
HETATM   15  C1  UNL     1     -11.929  40.663  33.611  1.00  0.00     0.007 C 
ENDBRANCH  13  14
ENDBRANCH  10  13
BRANCH  11  16
HETATM   16  N6  UNL     1     -13.319  41.898  39.329  1.00  0.00    -0.072 N 
ATOM     17  H63 UNL     1     -13.831  41.019  39.403  1.00  0.00     0.274 HD
ATOM     18  H62 UNL     1     -12.838  41.853  40.227  1.00  0.00     0.274 HD
ATOM     19  H61 UNL     1     -13.935  42.707  39.253  1.00  0.00     0.274 HD
ENDBRANCH  11  16
BRANCH  12  20
HETATM   20  O4  UNL     1     -10.982  43.487  37.045  1.00  0.00    -0.391 OA
ATOM     21  H4  UNL     1     -10.534  42.651  36.996  1.00  0.00     0.210 HD
ENDBRANCH  12  20
ENDBRANCH   7   8
ENDBRANCH   1   7
BRANCH   6  22
HETATM   22  O3  UNL     1     -15.141  46.374  34.375  1.00  0.00    -0.385 OA
ATOM     23  H3  UNL     1     -15.025  46.551  33.449  1.00  0.00     0.210 HD
ENDBRANCH   6  22
BRANCH   5  24
HETATM   24  N4  UNL     1     -12.477  46.680  32.990  1.00  0.00    -0.380 N 
HETATM   25  C11 UNL     1     -12.650  45.428  32.326  1.00  0.00     0.150 C 
HETATM   26  C12 UNL     1     -12.367  45.385  30.879  1.00  0.00     0.252 C 
HETATM   27  N5  UNL     1     -11.199  46.174  30.516  1.00  0.00    -0.072 N 
HETATM   28  C13 UNL     1     -11.527  47.535  30.895  1.00  0.00     0.252 C 
ATOM     29  H52 UNL     1     -10.328  45.832  30.921  1.00  0.00     0.277 HD
ATOM     30  H51 UNL     1     -10.922  46.073  29.539  1.00  0.00     0.277 HD
HETATM   31  C14 UNL     1     -11.538  47.560  32.435  1.00  0.00     0.150 C 
ENDBRANCH   5  24
BRANCH   4  32
HETATM   32  N1  UNL     1     -13.154  49.045  34.616  1.00  0.00    -0.310 N 
ATOM     33  H1  UNL     1     -12.632  49.638  33.971  1.00  0.00     0.182 HD
BRANCH  32  34
HETATM   34  N2  UNL     1     -14.314  49.361  34.883  1.00  0.00    -0.253 N 
HETATM   35  N3  UNL     1     -15.548  49.297  34.826  1.00  0.00    -0.331 N 
ATOM     36  H32 UNL     1     -15.639  48.524  34.167  1.00  0.00     0.178 HD
ATOM     37  H31 UNL     1     -16.508  49.558  35.048  1.00  0.00     0.178 HD
ATOM     38  H2  UNL     1     -14.175  50.128  35.539  1.00  0.00     0.207 HD
ENDBRANCH  32  34
ENDBRANCH   4  32
TORSDOF 10
ENDMDL
MODEL 3
REMARK VINA RESULT: -6.970156004      1.231      1.465
REMARK  10 active torsions:
REMARK  status: ('A' for Active; 'I' for Inactive)
REMARK    1  A    between atoms: C2_2  and  C3_3 
REMARK    2  A    between atoms: C3_3  and  C4_4 
REMARK    3  A    between atoms: C6_6  and  O1_7 
REMARK    4  A    between atoms: O1_7  and  C7_8 
REMARK    5  A    between atoms: C9_11  and  N1_12 
REMARK    6  A    between atoms: N1_12  and  N2_14 
REMARK    7  A    between atoms: C10_19  and  N4_20 
REMARK    8  A    between atoms: C15_28  and  O3_29 
REMARK    9  A    between atoms: C16_31  and  O4_32 
REMARK   10  A    between atoms: C17_34  and  N6_35 
ROOT
HETATM    1  C7  UNL     1     -11.933  46.301  35.593  1.00  0.00     0.294 C 
HETATM    2  O2  UNL     1     -11.261  46.068  34.414  1.00  0.00    -0.356 OA
HETATM    3  C8  UNL     1     -12.184  45.773  33.447  1.00  0.00     0.203 C 
HETATM    4  C9  UNL     1     -13.116  46.910  33.088  1.00  0.00     0.172 C 
HETATM    5  C10 UNL     1     -13.620  47.631  34.317  1.00  0.00     0.045 C 
HETATM    6  C15 UNL     1     -12.613  47.654  35.437  1.00  0.00     0.220 C 
ENDROOT
BRANCH   1   7
HETATM    7  O1  UNL     1     -12.861  45.352  35.924  1.00  0.00    -0.350 OA
BRANCH   7   8
HETATM    8  C6  UNL     1     -12.341  44.085  35.991  1.00  0.00     0.156 C 
HETATM    9  C5  UNL     1     -12.088  43.584  37.397  1.00  0.00     0.041 C 
HETATM   10  C4  UNL     1     -12.237  42.062  37.288  1.00  0.00     0.024 C 
HETATM   11  C17 UNL     1     -12.865  41.801  35.969  1.00  0.00     0.218 C 
HETATM   12  C16 UNL     1     -13.454  43.123  35.550  1.00  0.00     0.177 C 
BRANCH  10  13
HETATM   13  C3  UNL     1     -13.054  41.617  38.475  1.00  0.00     0.033 C 
BRANCH  13  14
HETATM   14  C2  UNL     1     -13.801  40.378  38.245  1.00  0.00    -0.036 C 
HETATM   15  C1  UNL     1     -14.059  39.563  39.240  1.00  0.00     0.007 C 
ENDBRANCH  13  14
ENDBRANCH  10  13
BRANCH  11  16
HETATM   16  N6  UNL     1     -11.814  41.479  35.026  1.00  0.00    -0.072 N 
ATOM     17  H63 UNL     1     -12.159  41.377  34.071  1.00  0.00     0.274 HD
ATOM     18  H62 UNL     1     -11.180  42.260  34.861  1.00  0.00     0.274 HD
ATOM     19  H61 UNL     1     -11.333  40.644  35.361  1.00  0.00     0.274 HD
ENDBRANCH  11  16
BRANCH  12  20
HETATM   20  O4  UNL     1     -14.598  43.454  36.272  1.00  0.00    -0.391 OA
ATOM     21  H4  UNL     1     -15.347  43.198  35.747  1.00  0.00     0.210 HD
ENDBRANCH  12  20
ENDBRANCH   7   8
ENDBRANCH   1   7
BRANCH   6  22
HETATM   22  O3  UNL     1     -11.594  48.562  35.297  1.00  0.00    -0.385 OA
ATOM     23  H3  UNL     1     -11.542  48.744  34.366  1.00  0.00     0.210 HD
ENDBRANCH   6  22
BRANCH   5  24
HETATM   24  N4  UNL     1     -14.363  48.797  34.118  1.00  0.00    -0.380 N 
HETATM   25  C11 UNL     1     -14.987  49.289  35.304  1.00  0.00     0.150 C 
HETATM   26  C12 UNL     1     -15.832  50.490  35.175  1.00  0.00     0.252 C 
HETATM   27  N5  UNL     1     -16.631  50.482  33.959  1.00  0.00    -0.072 N 
HETATM   28  C13 UNL     1     -15.669  50.459  32.872  1.00  0.00     0.252 C 
ATOM     29  H52 UNL     1     -17.315  49.726  33.919  1.00  0.00     0.277 HD
ATOM     30  H51 UNL     1     -17.300  51.250  33.900  1.00  0.00     0.277 HD
HETATM   31  C14 UNL     1     -15.017  49.064  32.908  1.00  0.00     0.150 C 
ENDBRANCH   5  24
BRANCH   4  32
HETATM   32  N1  UNL     1     -12.414  47.759  32.163  1.00  0.00    -0.310 N 
ATOM     33  H1  UNL     1     -12.965  48.306  31.500  1.00  0.00     0.182 HD
BRANCH  32  34
HETATM   34  N2  UNL     1     -11.188  47.865  32.124  1.00  0.00    -0.253 N 
HETATM   35  N3  UNL     1     -10.062  48.160  32.541  1.00  0.00    -0.331 N 
ATOM     36  H32 UNL     1     -10.322  48.535  33.454  1.00  0.00     0.178 HD
ATOM     37  H31 UNL     1      -9.047  48.247  32.509  1.00  0.00     0.178 HD
ATOM     38  H2  UNL     1     -10.976  47.482  31.203  1.00  0.00     0.207 HD
ENDBRANCH  32  34
ENDBRANCH   4  32
TORSDOF 10
ENDMDL
MODEL 4
REMARK VINA RESULT: -6.702319962      2.270      3.983
REMARK  10 active torsions:
REMARK  status: ('A' for Active; 'I' for Inactive)
REMARK    1  A    between atoms: C2_2  and  C3_3 
REMARK    2  A    between atoms: C3_3  and  C4_4 
REMARK    3  A    between atoms: C6_6  and  O1_7 
REMARK    4  A    between atoms: O1_7  and  C7_8 
REMARK    5  A    between atoms: C9_11  and  N1_12 
REMARK    6  A    between atoms: N1_12  and  N2_14 
REMARK    7  A    between atoms: C10_19  and  N4_20 
REMARK    8  A    between atoms: C15_28  and  O3_29 
REMARK    9  A    between atoms: C16_31  and  O4_32 
REMARK   10  A    between atoms: C17_34  and  N6_35 
ROOT
HETATM    1  C7  UNL     1     -14.208  46.079  34.391  1.00  0.00     0.294 C 
HETATM    2  O2  UNL     1     -15.199  47.014  34.194  1.00  0.00    -0.356 OA
HETATM    3  C8  UNL     1     -14.739  48.225  34.636  1.00  0.00     0.203 C 
HETATM    4  C9  UNL     1     -13.576  48.790  33.850  1.00  0.00     0.172 C 
HETATM    5  C10 UNL     1     -12.539  47.734  33.545  1.00  0.00     0.045 C 
HETATM    6  C15 UNL     1     -13.137  46.366  33.348  1.00  0.00     0.220 C 
ENDROOT
BRANCH   1   7
HETATM    7  O1  UNL     1     -13.651  46.084  35.640  1.00  0.00    -0.350 OA
BRANCH   7   8
HETATM    8  C6  UNL     1     -13.661  44.853  36.244  1.00  0.00     0.156 C 
HETATM    9  C5  UNL     1     -13.766  43.685  35.287  1.00  0.00     0.041 C 
HETATM   10  C4  UNL     1     -13.054  42.537  36.012  1.00  0.00     0.024 C 
HETATM   11  C17 UNL     1     -12.320  43.156  37.145  1.00  0.00     0.218 C 
HETATM   12  C16 UNL     1     -12.251  44.623  36.809  1.00  0.00     0.177 C 
BRANCH  10  13
HETATM   13  C3  UNL     1     -12.180  41.852  34.993  1.00  0.00     0.033 C 
BRANCH  13  14
HETATM   14  C2  UNL     1     -12.198  40.390  35.088  1.00  0.00    -0.036 C 
HETATM   15  C1  UNL     1     -11.672  39.656  34.138  1.00  0.00     0.007 C 
ENDBRANCH  13  14
ENDBRANCH  10  13
BRANCH  11  16
HETATM   16  N6  UNL     1     -13.133  43.022  38.335  1.00  0.00    -0.072 N 
ATOM     17  H63 UNL     1     -13.924  43.667  38.347  1.00  0.00     0.274 HD
ATOM     18  H62 UNL     1     -13.665  42.152  38.353  1.00  0.00     0.274 HD
ATOM     19  H61 UNL     1     -12.526  43.130  39.147  1.00  0.00     0.274 HD
ENDBRANCH  11  16
BRANCH  12  20
HETATM   20  O4  UNL     1     -11.346  44.899  35.788  1.00  0.00    -0.391 OA
ATOM     21  H4  UNL     1     -11.834  44.907  34.973  1.00  0.00     0.210 HD
ENDBRANCH  12  20
ENDBRANCH   7   8
ENDBRANCH   1   7
BRANCH   6  22
HETATM   22  O3  UNL     1     -13.740  46.153  32.135  1.00  0.00    -0.385 OA
ATOM     23  H3  UNL     1     -13.954  45.228  32.116  1.00  0.00     0.210 HD
ENDBRANCH   6  22
BRANCH   5  24
HETATM   24  N4  UNL     1     -11.493  48.090  32.691  1.00  0.00    -0.380 N 
HETATM   25  C11 UNL     1     -11.712  47.721  31.329  1.00  0.00     0.150 C 
HETATM   26  C12 UNL     1     -10.635  48.015  30.366  1.00  0.00     0.252 C 
HETATM   27  N5  UNL     1      -9.311  47.765  30.917  1.00  0.00    -0.072 N 
HETATM   28  C13 UNL     1      -9.195  48.665  32.049  1.00  0.00     0.252 C 
ATOM     29  H52 UNL     1      -9.139  46.787  31.149  1.00  0.00     0.277 HD
ATOM     30  H51 UNL     1      -8.558  47.860  30.236  1.00  0.00     0.277 HD
HETATM   31  C14 UNL     1     -10.160  48.129  33.123  1.00  0.00     0.150 C 
ENDBRANCH   5  24
BRANCH   4  32
HETATM   32  N1  UNL     1     -14.123  49.424  32.679  1.00  0.00    -0.310 N 
ATOM     33  H1  UNL     1     -13.773  50.348  32.425  1.00  0.00     0.182 HD
BRANCH  32  34
HETATM   34  N2  UNL     1     -14.989  48.916  31.967  1.00  0.00    -0.253 N 
HETATM   35  N3  UNL     1     -15.453  48.128  31.133  1.00  0.00    -0.331 N 
ATOM     36  H32 UNL     1     -14.607  47.596  30.927  1.00  0.00     0.178 HD
ATOM     37  H31 UNL     1     -16.170  47.708  30.543  1.00  0.00     0.178 HD
ATOM     38  H2  UNL     1     -15.808  49.474  32.205  1.00  0.00     0.207 HD
ENDBRANCH  32  34
ENDBRANCH   4  32
TORSDOF 10
ENDMDL
MODEL 5
REMARK VINA RESULT: -6.536852829      2.128      2.579
REMARK  10 active torsions:
REMARK  status: ('A' for Active; 'I' for Inactive)
REMARK    1  A    between atoms: C2_2  and  C3_3 
REMARK    2  A    between atoms: C3_3  and  C4_4 
REMARK    3  A    between atoms: C6_6  and  O1_7 
REMARK    4  A    between atoms: O1_7  and  C7_8 
REMARK    5  A    between atoms: C9_11  and  N1_12 
REMARK    6  A    between atoms: N1_12  and  N2_14 
REMARK    7  A    between atoms: C10_19  and  N4_20 
REMARK    8  A    between atoms: C15_28  and  O3_29 
REMARK    9  A    between atoms: C16_31  and  O4_32 
REMARK   10  A    between atoms: C17_34  and  N6_35 
ROOT
HETATM    1  C7  UNL     1     -12.380  46.255  33.440  1.00  0.00     0.294 C 
HETATM    2  O2  UNL     1     -12.115  46.442  32.101  1.00  0.00    -0.356 OA
HETATM    3  C8  UNL     1     -13.309  46.492  31.433  1.00  0.00     0.203 C 
HETATM    4  C9  UNL     1     -14.182  47.679  31.776  1.00  0.00     0.172 C 
HETATM    5  C10 UNL     1     -14.221  47.935  33.265  1.00  0.00     0.045 C 
HETATM    6  C15 UNL     1     -12.930  47.578  33.954  1.00  0.00     0.220 C 
ENDROOT
BRANCH   1   7
HETATM    7  O1  UNL     1     -13.261  45.247  33.718  1.00  0.00    -0.350 OA
BRANCH   7   8
HETATM    8  C6  UNL     1     -12.694  44.203  34.402  1.00  0.00     0.156 C 
HETATM    9  C5  UNL     1     -11.962  44.604  35.665  1.00  0.00     0.041 C 
HETATM   10  C4  UNL     1     -12.071  43.374  36.572  1.00  0.00     0.024 C 
HETATM   11  C17 UNL     1     -13.093  42.493  35.953  1.00  0.00     0.218 C 
HETATM   12  C16 UNL     1     -13.847  43.382  34.999  1.00  0.00     0.177 C 
BRANCH  10  13
HETATM   13  C3  UNL     1     -12.422  43.876  37.950  1.00  0.00     0.033 C 
BRANCH  13  14
HETATM   14  C2  UNL     1     -12.691  42.808  38.916  1.00  0.00    -0.036 C 
HETATM   15  C1  UNL     1     -12.734  43.070  40.200  1.00  0.00     0.007 C 
ENDBRANCH  13  14
ENDBRANCH  10  13
BRANCH  11  16
HETATM   16  N6  UNL     1     -12.407  41.494  35.162  1.00  0.00    -0.072 N 
ATOM     17  H63 UNL     1     -13.041  40.795  34.773  1.00  0.00     0.274 HD
ATOM     18  H62 UNL     1     -12.053  41.865  34.281  1.00  0.00     0.274 HD
ATOM     19  H61 UNL     1     -11.674  41.081  35.739  1.00  0.00     0.274 HD
ENDBRANCH  11  16
BRANCH  12  20
HETATM   20  O4  UNL     1     -14.695  44.274  35.651  1.00  0.00    -0.391 OA
ATOM     21  H4  UNL     1     -14.402  44.334  36.552  1.00  0.00     0.210 HD
ENDBRANCH  12  20
ENDBRANCH   7   8
ENDBRANCH   1   7
BRANCH   6  22
HETATM   22  O3  UNL     1     -11.910  48.482  33.805  1.00  0.00    -0.385 OA
ATOM     23  H3  UNL     1     -11.292  48.285  34.499  1.00  0.00     0.210 HD
ENDBRANCH   6  22
BRANCH   5  24
HETATM   24  N4  UNL     1     -14.864  49.096  33.700  1.00  0.00    -0.380 N 
HETATM   25  C11 UNL     1     -15.003  49.178  35.118  1.00  0.00     0.150 C 
HETATM   26  C12 UNL     1     -15.714  50.349  35.663  1.00  0.00     0.252 C 
HETATM   27  N5  UNL     1     -16.870  50.722  34.860  1.00  0.00    -0.072 N 
HETATM   28  C13 UNL     1     -16.333  51.057  33.554  1.00  0.00     0.252 C 
ATOM     29  H52 UNL     1     -17.601  50.011  34.835  1.00  0.00     0.277 HD
ATOM     30  H51 UNL     1     -17.438  51.461  35.274  1.00  0.00     0.277 HD
HETATM   31  C14 UNL     1     -15.853  49.730  32.936  1.00  0.00     0.150 C 
ENDBRANCH   5  24
BRANCH   4  32
HETATM   32  N1  UNL     1     -13.702  48.797  31.007  1.00  0.00    -0.310 N 
ATOM     33  H1  UNL     1     -13.954  49.736  31.314  1.00  0.00     0.182 HD
BRANCH  32  34
HETATM   34  N2  UNL     1     -13.003  48.685  29.999  1.00  0.00    -0.253 N 
HETATM   35  N3  UNL     1     -12.379  49.072  29.004  1.00  0.00    -0.331 N 
ATOM     36  H32 UNL     1     -12.561  50.073  29.079  1.00  0.00     0.178 HD
ATOM     37  H31 UNL     1     -11.800  48.979  28.169  1.00  0.00     0.178 HD
ATOM     38  H2  UNL     1     -12.847  47.678  29.964  1.00  0.00     0.207 HD
ENDBRANCH  32  34
ENDBRANCH   4  32
TORSDOF 10
ENDMDL
