MODEL 1
REMARK VINA RESULT: -7.903180769      0.000      0.000
REMARK  8 active torsions:
REMARK  status: ('A' for Active; 'I' for Inactive)
REMARK    1  A    between atoms: C2_2  and  O1_3 
REMARK    2  A    between atoms: O1_3  and  C3_4 
REMARK       I    between atoms: C3_4  and  N1_6 
REMARK    3  A    between atoms: N1_6  and  C4_8 
REMARK    4  A    between atoms: C5_11  and  S1_12 
REMARK    5  A    between atoms: S1_12  and  C6_13 
REMARK    6  A    between atoms: C9_16  and  O3_17 
REMARK    7  A    between atoms: N4_22  and  C12_24 
REMARK    8  A    between atoms: C12_24  and  C13_25 
ROOT
HETATM    1  C13 UNL     1     -16.461  50.713  33.464  1.00  0.00     0.092 C 
HETATM    2  N5  UNL     1     -16.805  50.978  34.672  1.00  0.00    -0.307 N 
ATOM      3  H5  UNL     1     -17.688  51.465  34.825  1.00  0.00     0.177 HD
HETATM    4  C14 UNL     1     -16.038  50.637  35.792  1.00  0.00     0.181 C 
HETATM    5  N6  UNL     1     -15.409  50.340  36.717  1.00  0.00    -0.172 NA
ENDROOT
BRANCH   1   6
HETATM    6  C12 UNL     1     -15.190  50.008  33.191  1.00  0.00     0.183 C 
BRANCH   6   7
HETATM    7  N4  UNL     1     -15.329  48.651  33.642  1.00  0.00    -0.221 N 
HETATM    8  C11 UNL     1     -14.322  47.931  34.025  1.00  0.00     0.680 A 
HETATM    9  N3  UNL     1     -12.996  48.385  34.039  1.00  0.00    -0.171 N 
HETATM   10  N7  UNL     1     -14.577  46.586  34.458  1.00  0.00    -0.191 N 
HETATM   11  C9  UNL     1     -11.873  47.598  34.460  1.00  0.00     0.159 A 
ATOM     12  H3  UNL     1     -12.818  49.341  33.730  1.00  0.00     0.186 HD
HETATM   13  C8  UNL     1     -12.135  46.362  34.854  1.00  0.00     0.087 A 
HETATM   14  C7  UNL     1     -13.476  45.790  34.879  1.00  0.00     0.059 A 
HETATM   15  C6  UNL     1     -13.636  44.543  35.291  1.00  0.00     0.083 C 
ATOM     16  H7  UNL     1     -15.526  46.211  34.465  1.00  0.00     0.184 HD
ATOM     17  H4  UNL     1     -16.261  48.236  33.663  1.00  0.00     0.178 HD
BRANCH  11  18
HETATM   18  O3  UNL     1     -10.579  48.133  34.444  1.00  0.00    -0.340 OA
HETATM   19  C10 UNL     1      -9.926  48.147  33.187  1.00  0.00     0.211 C 
ENDBRANCH  11  18
BRANCH  15  20
HETATM   20  S1  UNL     1     -12.256  43.567  35.810  1.00  0.00    -0.062 SA
BRANCH  20  21
HETATM   21  C5  UNL     1     -12.463  43.012  37.487  1.00  0.00     0.178 A 
HETATM   22  N2  UNL     1     -13.066  41.875  37.867  1.00  0.00    -0.167 N 
HETATM   23  C4  UNL     1     -13.054  41.755  39.202  1.00  0.00     0.703 A 
ATOM     24  H2  UNL     1     -13.476  41.196  37.227  1.00  0.00     0.186 HD
HETATM   25  N9  UNL     1     -12.419  42.860  39.650  1.00  0.00    -0.130 N 
HETATM   26  N8  UNL     1     -12.064  43.617  38.620  1.00  0.00    -0.265 N 
ATOM     27  H9  UNL     1     -12.240  43.079  40.630  1.00  0.00     0.205 HD
ATOM     28  H8  UNL     1     -11.570  44.507  38.678  1.00  0.00     0.189 HD
BRANCH  23  29
HETATM   29  N1  UNL     1     -13.553  40.775  39.897  1.00  0.00    -0.134 N 
HETATM   30  C3  UNL     1     -13.600  39.465  39.361  1.00  0.00     0.379 C 
HETATM   31  O2  UNL     1     -14.679  38.816  39.331  1.00  0.00    -0.238 OA
ATOM     32  H1  UNL     1     -13.912  40.951  40.835  1.00  0.00     0.189 HD
BRANCH  30  33
HETATM   33  O1  UNL     1     -12.481  38.816  38.842  1.00  0.00    -0.304 OA
BRANCH  33  34
HETATM   34  C2  UNL     1     -12.384  38.483  37.455  1.00  0.00     0.176 C 
HETATM   35  C1  UNL     1     -11.095  37.696  37.298  1.00  0.00     0.034 C 
ENDBRANCH  33  34
ENDBRANCH  30  33
ENDBRANCH  23  29
ENDBRANCH  20  21
ENDBRANCH  15  20
ENDBRANCH   6   7
ENDBRANCH   1   6
TORSDOF 8
ENDMDL
MODEL 2
REMARK VINA RESULT: -7.894145208      2.741      9.064
REMARK  8 active torsions:
REMARK  status: ('A' for Active; 'I' for Inactive)
REMARK    1  A    between atoms: C2_2  and  O1_3 
REMARK    2  A    between atoms: O1_3  and  C3_4 
REMARK       I    between atoms: C3_4  and  N1_6 
REMARK    3  A    between atoms: N1_6  and  C4_8 
REMARK    4  A    between atoms: C5_11  and  S1_12 
REMARK    5  A    between atoms: S1_12  and  C6_13 
REMARK    6  A    between atoms: C9_16  and  O3_17 
REMARK    7  A    between atoms: N4_22  and  C12_24 
REMARK    8  A    between atoms: C12_24  and  C13_25 
ROOT
HETATM    1  C13 UNL     1     -13.242  42.334  40.610  1.00  0.00     0.092 C 
HETATM    2  N5  UNL     1     -13.794  41.365  41.247  1.00  0.00    -0.307 N 
ATOM      3  H5  UNL     1     -14.166  41.552  42.179  1.00  0.00     0.177 HD
HETATM    4  C14 UNL     1     -13.913  40.068  40.738  1.00  0.00     0.181 C 
HETATM    5  N6  UNL     1     -14.024  38.999  40.307  1.00  0.00    -0.172 NA
ENDROOT
BRANCH   1   6
HETATM    6  C12 UNL     1     -12.689  42.114  39.257  1.00  0.00     0.183 C 
BRANCH   6   7
HETATM    7  N4  UNL     1     -12.586  43.392  38.606  1.00  0.00    -0.221 N 
HETATM    8  C11 UNL     1     -12.570  43.524  37.317  1.00  0.00     0.680 A 
HETATM    9  N3  UNL     1     -12.650  42.451  36.419  1.00  0.00    -0.171 N 
HETATM   10  N7  UNL     1     -12.465  44.849  36.775  1.00  0.00    -0.191 N 
HETATM   11  C9  UNL     1     -12.634  42.586  34.991  1.00  0.00     0.159 A 
ATOM     12  H3  UNL     1     -12.724  41.511  36.807  1.00  0.00     0.186 HD
HETATM   13  C8  UNL     1     -12.535  43.817  34.516  1.00  0.00     0.087 A 
HETATM   14  C7  UNL     1     -12.447  45.003  35.361  1.00  0.00     0.059 A 
HETATM   15  C6  UNL     1     -12.351  46.193  34.791  1.00  0.00     0.083 C 
ATOM     16  H7  UNL     1     -12.404  45.661  37.389  1.00  0.00     0.184 HD
ATOM     17  H4  UNL     1     -12.522  44.230  39.184  1.00  0.00     0.178 HD
BRANCH  11  18
HETATM   18  O3  UNL     1     -12.719  41.457  34.166  1.00  0.00    -0.340 OA
HETATM   19  C10 UNL     1     -11.999  40.315  34.594  1.00  0.00     0.211 C 
ENDBRANCH  11  18
BRANCH  15  20
HETATM   20  S1  UNL     1     -12.330  46.366  33.031  1.00  0.00    -0.062 SA
BRANCH  20  21
HETATM   21  C5  UNL     1     -13.738  47.293  32.465  1.00  0.00     0.178 A 
HETATM   22  N2  UNL     1     -14.524  48.066  33.229  1.00  0.00    -0.167 N 
HETATM   23  C4  UNL     1     -15.497  48.626  32.497  1.00  0.00     0.703 A 
ATOM     24  H2  UNL     1     -14.399  48.210  34.231  1.00  0.00     0.186 HD
HETATM   25  N9  UNL     1     -15.293  48.176  31.239  1.00  0.00    -0.130 N 
HETATM   26  N8  UNL     1     -14.237  47.374  31.219  1.00  0.00    -0.265 N 
ATOM     27  H9  UNL     1     -15.864  48.416  30.428  1.00  0.00     0.205 HD
ATOM     28  H8  UNL     1     -13.864  46.900  30.397  1.00  0.00     0.189 HD
BRANCH  23  29
HETATM   29  N1  UNL     1     -16.427  49.428  32.924  1.00  0.00    -0.134 N 
HETATM   30  C3  UNL     1     -16.524  49.747  34.300  1.00  0.00     0.379 C 
HETATM   31  O2  UNL     1     -17.607  49.596  34.925  1.00  0.00    -0.238 OA
ATOM     32  H1  UNL     1     -17.091  49.831  32.263  1.00  0.00     0.189 HD
BRANCH  30  33
HETATM   33  O1  UNL     1     -15.453  50.241  35.043  1.00  0.00    -0.304 OA
BRANCH  33  34
HETATM   34  C2  UNL     1     -15.311  49.953  36.436  1.00  0.00     0.176 C 
HETATM   35  C1  UNL     1     -14.175  48.953  36.547  1.00  0.00     0.034 C 
ENDBRANCH  33  34
ENDBRANCH  30  33
ENDBRANCH  23  29
ENDBRANCH  20  21
ENDBRANCH  15  20
ENDBRANCH   6   7
ENDBRANCH   1   6
TORSDOF 8
ENDMDL
MODEL 3
REMARK VINA RESULT: -7.756289224      2.914      9.869
REMARK  8 active torsions:
REMARK  status: ('A' for Active; 'I' for Inactive)
REMARK    1  A    between atoms: C2_2  and  O1_3 
REMARK    2  A    between atoms: O1_3  and  C3_4 
REMARK       I    between atoms: C3_4  and  N1_6 
REMARK    3  A    between atoms: N1_6  and  C4_8 
REMARK    4  A    between atoms: C5_11  and  S1_12 
REMARK    5  A    between atoms: S1_12  and  C6_13 
REMARK    6  A    between atoms: C9_16  and  O3_17 
REMARK    7  A    between atoms: N4_22  and  C12_24 
REMARK    8  A    between atoms: C12_24  and  C13_25 
ROOT
HETATM    1  C13 UNL     1     -14.442  38.408  39.387  1.00  0.00     0.092 C 
HETATM    2  N5  UNL     1     -14.835  37.185  39.377  1.00  0.00    -0.307 N 
ATOM      3  H5  UNL     1     -15.779  36.981  39.703  1.00  0.00     0.177 HD
HETATM    4  C14 UNL     1     -14.042  36.117  38.944  1.00  0.00     0.181 C 
HETATM    5  N6  UNL     1     -13.388  35.237  38.572  1.00  0.00    -0.172 NA
ENDROOT
BRANCH   1   6
HETATM    6  C12 UNL     1     -13.082  38.755  38.923  1.00  0.00     0.183 C 
BRANCH   6   7
HETATM    7  N4  UNL     1     -12.951  40.186  38.958  1.00  0.00    -0.221 N 
HETATM    8  C11 UNL     1     -12.739  40.898  37.897  1.00  0.00     0.680 A 
HETATM    9  N3  UNL     1     -12.612  40.364  36.608  1.00  0.00    -0.171 N 
HETATM   10  N7  UNL     1     -12.627  42.322  38.049  1.00  0.00    -0.191 N 
HETATM   11  C9  UNL     1     -12.377  41.142  35.426  1.00  0.00     0.159 A 
ATOM     12  H3  UNL     1     -12.691  39.352  36.503  1.00  0.00     0.186 HD
HETATM   13  C8  UNL     1     -12.277  42.451  35.593  1.00  0.00     0.087 A 
HETATM   14  C7  UNL     1     -12.394  43.110  36.889  1.00  0.00     0.059 A 
HETATM   15  C6  UNL     1     -12.279  44.427  36.953  1.00  0.00     0.083 C 
ATOM     16  H7  UNL     1     -12.713  42.756  38.968  1.00  0.00     0.184 HD
ATOM     17  H4  UNL     1     -13.029  40.661  39.858  1.00  0.00     0.178 HD
BRANCH  11  18
HETATM   18  O3  UNL     1     -12.263  40.525  34.174  1.00  0.00    -0.340 OA
HETATM   19  C10 UNL     1     -11.550  39.301  34.145  1.00  0.00     0.211 C 
ENDBRANCH  11  18
BRANCH  15  20
HETATM   20  S1  UNL     1     -11.989  45.393  35.501  1.00  0.00    -0.062 SA
BRANCH  20  21
HETATM   21  C5  UNL     1     -12.767  46.987  35.630  1.00  0.00     0.178 A 
HETATM   22  N2  UNL     1     -13.646  47.355  36.575  1.00  0.00    -0.167 N 
HETATM   23  C4  UNL     1     -14.043  48.621  36.388  1.00  0.00     0.703 A 
ATOM     24  H2  UNL     1     -13.967  46.753  37.333  1.00  0.00     0.186 HD
HETATM   25  N9  UNL     1     -13.379  49.038  35.288  1.00  0.00    -0.130 N 
HETATM   26  N8  UNL     1     -12.613  48.057  34.831  1.00  0.00    -0.265 N 
ATOM     27  H9  UNL     1     -13.455  49.967  34.871  1.00  0.00     0.205 HD
ATOM     28  H8  UNL     1     -12.007  48.106  34.012  1.00  0.00     0.189 HD
BRANCH  23  29
HETATM   29  N1  UNL     1     -14.886  49.286  37.121  1.00  0.00    -0.134 N 
HETATM   30  C3  UNL     1     -15.746  50.246  36.536  1.00  0.00     0.379 C 
HETATM   31  O2  UNL     1     -15.799  51.424  36.978  1.00  0.00    -0.238 OA
ATOM     32  H1  UNL     1     -14.928  49.115  38.126  1.00  0.00     0.189 HD
BRANCH  30  33
HETATM   33  O1  UNL     1     -16.577  49.962  35.453  1.00  0.00    -0.304 OA
BRANCH  33  34
HETATM   34  C2  UNL     1     -16.582  50.776  34.278  1.00  0.00     0.176 C 
HETATM   35  C1  UNL     1     -16.046  49.904  33.157  1.00  0.00     0.034 C 
ENDBRANCH  33  34
ENDBRANCH  30  33
ENDBRANCH  23  29
ENDBRANCH  20  21
ENDBRANCH  15  20
ENDBRANCH   6   7
ENDBRANCH   1   6
TORSDOF 8
ENDMDL
MODEL 4
REMARK VINA RESULT: -7.755452716      3.129      8.848
REMARK  8 active torsions:
REMARK  status: ('A' for Active; 'I' for Inactive)
REMARK    1  A    between atoms: C2_2  and  O1_3 
REMARK    2  A    between atoms: O1_3  and  C3_4 
REMARK       I    between atoms: C3_4  and  N1_6 
REMARK    3  A    between atoms: N1_6  and  C4_8 
REMARK    4  A    between atoms: C5_11  and  S1_12 
REMARK    5  A    between atoms: S1_12  and  C6_13 
REMARK    6  A    between atoms: C9_16  and  O3_17 
REMARK    7  A    between atoms: N4_22  and  C12_24 
REMARK    8  A    between atoms: C12_24  and  C13_25 
ROOT
HETATM    1  C13 UNL     1     -12.714  42.580  39.450  1.00  0.00     0.092 C 
HETATM    2  N5  UNL     1     -13.189  41.575  40.092  1.00  0.00    -0.307 N 
ATOM      3  H5  UNL     1     -13.180  41.607  41.112  1.00  0.00     0.177 HD
HETATM    4  C14 UNL     1     -13.717  40.437  39.474  1.00  0.00     0.181 C 
HETATM    5  N6  UNL     1     -14.167  39.503  38.959  1.00  0.00    -0.172 NA
ENDROOT
BRANCH   1   6
HETATM    6  C12 UNL     1     -12.705  42.582  37.972  1.00  0.00     0.183 C 
BRANCH   6   7
HETATM    7  N4  UNL     1     -12.276  43.880  37.531  1.00  0.00    -0.221 N 
HETATM    8  C11 UNL     1     -12.403  44.283  36.305  1.00  0.00     0.680 A 
HETATM    9  N3  UNL     1     -12.963  43.508  35.281  1.00  0.00    -0.171 N 
HETATM   10  N7  UNL     1     -11.940  45.602  35.976  1.00  0.00    -0.191 N 
HETATM   11  C9  UNL     1     -13.109  43.944  33.922  1.00  0.00     0.159 A 
ATOM     12  H3  UNL     1     -13.290  42.571  35.518  1.00  0.00     0.186 HD
HETATM   13  C8  UNL     1     -12.674  45.162  33.644  1.00  0.00     0.087 A 
HETATM   14  C7  UNL     1     -12.075  46.051  34.633  1.00  0.00     0.059 A 
HETATM   15  C6  UNL     1     -11.671  47.253  34.257  1.00  0.00     0.083 C 
ATOM     16  H7  UNL     1     -11.525  46.202  36.688  1.00  0.00     0.184 HD
ATOM     17  H4  UNL     1     -11.854  44.512  38.211  1.00  0.00     0.178 HD
BRANCH  11  18
HETATM   18  O3  UNL     1     -13.682  43.103  32.960  1.00  0.00    -0.340 OA
HETATM   19  C10 UNL     1     -12.895  42.839  31.813  1.00  0.00     0.211 C 
ENDBRANCH  11  18
BRANCH  15  20
HETATM   20  S1  UNL     1     -11.846  47.796  32.584  1.00  0.00    -0.062 SA
BRANCH  20  21
HETATM   21  C5  UNL     1     -13.524  48.276  32.242  1.00  0.00     0.178 A 
HETATM   22  N2  UNL     1     -14.315  48.991  33.057  1.00  0.00    -0.167 N 
HETATM   23  C4  UNL     1     -15.520  49.182  32.502  1.00  0.00     0.703 A 
ATOM     24  H2  UNL     1     -14.037  49.342  33.973  1.00  0.00     0.186 HD
HETATM   25  N9  UNL     1     -15.458  48.560  31.304  1.00  0.00    -0.130 N 
HETATM   26  N8  UNL     1     -14.259  48.015  31.147  1.00  0.00    -0.265 N 
ATOM     27  H9  UNL     1     -16.218  48.516  30.624  1.00  0.00     0.205 HD
ATOM     28  H8  UNL     1     -13.947  47.487  30.332  1.00  0.00     0.189 HD
BRANCH  23  29
HETATM   29  N1  UNL     1     -16.520  49.830  33.023  1.00  0.00    -0.134 N 
HETATM   30  C3  UNL     1     -16.634  49.968  34.427  1.00  0.00     0.379 C 
HETATM   31  O2  UNL     1     -17.690  49.636  35.027  1.00  0.00    -0.238 OA
ATOM     32  H1  UNL     1     -17.227  50.242  32.414  1.00  0.00     0.189 HD
BRANCH  30  33
HETATM   33  O1  UNL     1     -15.609  50.472  35.227  1.00  0.00    -0.304 OA
BRANCH  33  34
HETATM   34  C2  UNL     1     -15.372  49.971  36.544  1.00  0.00     0.176 C 
HETATM   35  C1  UNL     1     -14.257  48.949  36.413  1.00  0.00     0.034 C 
ENDBRANCH  33  34
ENDBRANCH  30  33
ENDBRANCH  23  29
ENDBRANCH  20  21
ENDBRANCH  15  20
ENDBRANCH   6   7
ENDBRANCH   1   6
TORSDOF 8
ENDMDL
MODEL 5
REMARK VINA RESULT: -7.742226487      2.156      3.255
REMARK  8 active torsions:
REMARK  status: ('A' for Active; 'I' for Inactive)
REMARK    1  A    between atoms: C2_2  and  O1_3 
REMARK    2  A    between atoms: O1_3  and  C3_4 
REMARK       I    between atoms: C3_4  and  N1_6 
REMARK    3  A    between atoms: N1_6  and  C4_8 
REMARK    4  A    between atoms: C5_11  and  S1_12 
REMARK    5  A    between atoms: S1_12  and  C6_13 
REMARK    6  A    between atoms: C9_16  and  O3_17 
REMARK    7  A    between atoms: N4_22  and  C12_24 
REMARK    8  A    between atoms: C12_24  and  C13_25 
ROOT
HETATM    1  C13 UNL     1     -15.131  49.690  35.586  1.00  0.00     0.092 C 
HETATM    2  N5  UNL     1     -15.297  49.768  34.314  1.00  0.00    -0.307 N 
ATOM      3  H5  UNL     1     -16.212  50.053  33.966  1.00  0.00     0.177 HD
HETATM    4  C14 UNL     1     -14.295  49.484  33.381  1.00  0.00     0.181 C 
HETATM    5  N6  UNL     1     -13.459  49.262  32.611  1.00  0.00    -0.172 NA
ENDROOT
BRANCH   1   6
HETATM    6  C12 UNL     1     -13.823  49.282  36.140  1.00  0.00     0.183 C 
BRANCH   6   7
HETATM    7  N4  UNL     1     -13.975  47.979  36.727  1.00  0.00    -0.221 N 
HETATM    8  C11 UNL     1     -13.503  46.903  36.180  1.00  0.00     0.680 A 
HETATM    9  N3  UNL     1     -12.802  46.884  34.967  1.00  0.00    -0.171 N 
HETATM   10  N7  UNL     1     -13.713  45.653  36.855  1.00  0.00    -0.191 N 
HETATM   11  C9  UNL     1     -12.276  45.700  34.352  1.00  0.00     0.159 A 
ATOM     12  H3  UNL     1     -12.655  47.774  34.489  1.00  0.00     0.186 HD
HETATM   13  C8  UNL     1     -12.483  44.561  34.994  1.00  0.00     0.087 A 
HETATM   14  C7  UNL     1     -13.199  44.468  36.261  1.00  0.00     0.059 A 
HETATM   15  C6  UNL     1     -13.354  43.282  36.826  1.00  0.00     0.083 C 
ATOM     16  H7  UNL     1     -14.218  45.617  37.741  1.00  0.00     0.184 HD
ATOM     17  H4  UNL     1     -14.475  47.898  37.612  1.00  0.00     0.178 HD
BRANCH  11  18
HETATM   18  O3  UNL     1     -11.585  45.772  33.136  1.00  0.00    -0.340 OA
HETATM   19  C10 UNL     1     -12.382  45.789  31.966  1.00  0.00     0.211 C 
ENDBRANCH  11  18
BRANCH  15  20
HETATM   20  S1  UNL     1     -12.709  41.818  36.073  1.00  0.00    -0.062 SA
BRANCH  20  21
HETATM   21  C5  UNL     1     -12.710  40.458  37.220  1.00  0.00     0.178 A 
HETATM   22  N2  UNL     1     -13.464  40.368  38.327  1.00  0.00    -0.167 N 
HETATM   23  C4  UNL     1     -13.226  39.218  38.971  1.00  0.00     0.703 A 
ATOM     24  H2  UNL     1     -14.128  41.078  38.635  1.00  0.00     0.186 HD
HETATM   25  N9  UNL     1     -12.292  38.584  38.228  1.00  0.00    -0.130 N 
HETATM   26  N8  UNL     1     -11.981  39.329  37.175  1.00  0.00    -0.265 N 
ATOM     27  H9  UNL     1     -11.888  37.672  38.442  1.00  0.00     0.205 HD
ATOM     28  H8  UNL     1     -11.304  39.086  36.453  1.00  0.00     0.189 HD
BRANCH  23  29
HETATM   29  N1  UNL     1     -13.785  38.816  40.075  1.00  0.00    -0.134 N 
HETATM   30  C3  UNL     1     -13.884  39.685  41.188  1.00  0.00     0.379 C 
HETATM   31  O2  UNL     1     -13.459  39.336  42.321  1.00  0.00    -0.238 OA
ATOM     32  H1  UNL     1     -14.156  37.868  40.138  1.00  0.00     0.189 HD
BRANCH  30  33
HETATM   33  O1  UNL     1     -14.446  40.958  41.111  1.00  0.00    -0.304 OA
BRANCH  33  34
HETATM   34  C2  UNL     1     -13.835  42.087  41.741  1.00  0.00     0.176 C 
HETATM   35  C1  UNL     1     -13.101  42.837  40.644  1.00  0.00     0.034 C 
ENDBRANCH  33  34
ENDBRANCH  30  33
ENDBRANCH  23  29
ENDBRANCH  20  21
ENDBRANCH  15  20
ENDBRANCH   6   7
ENDBRANCH   1   6
TORSDOF 8
ENDMDL
