MODEL 1
REMARK VINA RESULT: -7.063187966      0.000      0.000
REMARK  7 active torsions:
REMARK  status: ('A' for Active; 'I' for Inactive)
REMARK    1  A    between atoms: C2_3  and  N2_4 
REMARK    2  A    between atoms: C9_14  and  N4_15 
REMARK    3  A    between atoms: N6_21  and  C11_23 
REMARK    4  A    between atoms: C11_23  and  C12_24 
REMARK    5  A    between atoms: C12_24  and  C13_25 
REMARK    6  A    between atoms: C13_25  and  N7_26 
REMARK    7  A    between atoms: N7_26  and  C14_28 
ROOT
HETATM    1  C1  UNL     1     -14.506  34.791  42.920  1.00  0.00     0.177 C 
HETATM    2  N1  UNL     1     -14.357  35.990  42.108  1.00  0.00    -0.171 N 
HETATM    3  C2  UNL     1     -14.366  35.940  40.768  1.00  0.00     0.684 A 
HETATM    4  N3  UNL     1     -14.226  37.065  40.004  1.00  0.00    -0.185 N 
ATOM      5  H3  UNL     1     -14.239  36.974  38.988  1.00  0.00     0.184 HD
HETATM    6  C7  UNL     1     -14.073  38.276  40.539  1.00  0.00     0.123 A 
HETATM    7  C8  UNL     1     -14.061  38.367  41.917  1.00  0.00     0.110 A 
HETATM    8  C9  UNL     1     -14.205  37.199  42.673  1.00  0.00     0.146 A 
HETATM    9  N5  UNL     1     -13.894  39.776  41.947  1.00  0.00    -0.336 N 
ATOM     10  H5  UNL     1     -13.808  40.493  42.668  1.00  0.00     0.168 HD
HETATM   11  C10 UNL     1     -13.898  39.742  40.496  1.00  0.00     0.132 A 
HETATM   12  N6  UNL     1     -13.762  40.670  39.652  1.00  0.00    -0.374 N 
ATOM     13  H6  UNL     1     -13.667  41.605  40.048  1.00  0.00     0.161 HD
ENDROOT
BRANCH  12  14
HETATM   14  C11 UNL     1     -13.720  40.608  38.239  1.00  0.00     0.123 C 
BRANCH  14  15
HETATM   15  C12 UNL     1     -12.598  41.574  37.791  1.00  0.00     0.039 C 
BRANCH  15  16
HETATM   16  C13 UNL     1     -12.720  41.674  36.278  1.00  0.00     0.115 C 
BRANCH  16  17
HETATM   17  N7  UNL     1     -12.189  42.910  35.760  1.00  0.00    -0.417 N 
ATOM     18  H7  UNL     1     -11.224  43.202  35.920  1.00  0.00     0.153 HD
BRANCH  17  19
HETATM   19  C14 UNL     1     -13.105  43.693  35.008  1.00  0.00     0.080 C 
HETATM   20  C15 UNL     1     -14.345  44.003  35.760  1.00  0.00     0.051 C 
HETATM   21  C16 UNL     1     -14.112  44.944  36.907  1.00  0.00     0.169 C 
HETATM   22  O2  UNL     1     -12.867  45.582  36.856  1.00  0.00    -0.391 OA
HETATM   23  C17 UNL     1     -12.661  46.100  35.559  1.00  0.00     0.169 C 
HETATM   24  C18 UNL     1     -12.397  44.981  34.627  1.00  0.00     0.051 C 
ENDBRANCH  17  19
ENDBRANCH  16  17
ENDBRANCH  15  16
ENDBRANCH  14  15
ENDBRANCH  12  14
BRANCH   3  25
HETATM   25  N2  UNL     1     -14.574  34.736  40.097  1.00  0.00    -0.213 N 
HETATM   26  C3  UNL     1     -15.924  34.351  39.727  1.00  0.00     0.167 C 
HETATM   27  C4  UNL     1     -15.987  33.762  38.354  1.00  0.00     0.188 C 
HETATM   28  O1  UNL     1     -14.912  32.926  38.069  1.00  0.00    -0.388 OA
HETATM   29  C5  UNL     1     -14.240  32.554  39.212  1.00  0.00     0.188 C 
HETATM   30  C6  UNL     1     -13.529  33.807  39.746  1.00  0.00     0.167 C 
ENDBRANCH   3  25
BRANCH   8  31
HETATM   31  N4  UNL     1     -14.187  37.243  43.968  1.00  0.00    -0.383 N 
ATOM     32  H42 UNL     1     -15.013  36.990  44.510  1.00  0.00     0.157 HD
ATOM     33  H41 UNL     1     -13.318  37.546  44.407  1.00  0.00     0.157 HD
ENDBRANCH   8  31
TORSDOF 7
ENDMDL
MODEL 2
REMARK VINA RESULT: -7.049846918      4.271      6.990
REMARK  7 active torsions:
REMARK  status: ('A' for Active; 'I' for Inactive)
REMARK    1  A    between atoms: C2_3  and  N2_4 
REMARK    2  A    between atoms: C9_14  and  N4_15 
REMARK    3  A    between atoms: N6_21  and  C11_23 
REMARK    4  A    between atoms: C11_23  and  C12_24 
REMARK    5  A    between atoms: C12_24  and  C13_25 
REMARK    6  A    between atoms: C13_25  and  N7_26 
REMARK    7  A    between atoms: N7_26  and  C14_28 
ROOT
HETATM    1  C1  UNL     1     -12.277  38.914  37.466  1.00  0.00     0.177 C 
HETATM    2  N1  UNL     1     -12.563  40.232  36.920  1.00  0.00    -0.171 N 
HETATM    3  C2  UNL     1     -13.074  41.215  37.675  1.00  0.00     0.684 A 
HETATM    4  N3  UNL     1     -13.343  42.453  37.163  1.00  0.00    -0.185 N 
ATOM      5  H3  UNL     1     -13.732  43.167  37.779  1.00  0.00     0.184 HD
HETATM    6  C7  UNL     1     -13.116  42.762  35.886  1.00  0.00     0.123 A 
HETATM    7  C8  UNL     1     -12.589  41.775  35.077  1.00  0.00     0.110 A 
HETATM    8  C9  UNL     1     -12.324  40.517  35.628  1.00  0.00     0.146 A 
HETATM    9  N5  UNL     1     -12.541  42.582  33.911  1.00  0.00    -0.336 N 
ATOM     10  H5  UNL     1     -12.247  42.461  32.942  1.00  0.00     0.168 HD
HETATM   11  C10 UNL     1     -13.096  43.658  34.713  1.00  0.00     0.132 A 
HETATM   12  N6  UNL     1     -13.420  44.836  34.397  1.00  0.00    -0.374 N 
ATOM     13  H6  UNL     1     -13.229  45.092  33.428  1.00  0.00     0.161 HD
ENDROOT
BRANCH  12  14
HETATM   14  C11 UNL     1     -14.006  45.854  35.184  1.00  0.00     0.123 C 
BRANCH  14  15
HETATM   15  C12 UNL     1     -12.849  46.534  35.954  1.00  0.00     0.039 C 
BRANCH  15  16
HETATM   16  C13 UNL     1     -13.001  48.025  35.693  1.00  0.00     0.115 C 
BRANCH  16  17
HETATM   17  N7  UNL     1     -14.373  48.463  35.766  1.00  0.00    -0.417 N 
ATOM     18  H7  UNL     1     -15.064  48.002  36.358  1.00  0.00     0.153 HD
BRANCH  17  19
HETATM   19  C14 UNL     1     -14.692  49.583  34.953  1.00  0.00     0.080 C 
HETATM   20  C15 UNL     1     -14.437  49.339  33.513  1.00  0.00     0.051 C 
HETATM   21  C16 UNL     1     -15.380  48.334  32.916  1.00  0.00     0.169 C 
HETATM   22  O2  UNL     1     -16.490  48.066  33.726  1.00  0.00    -0.391 OA
HETATM   23  C17 UNL     1     -17.054  49.284  34.162  1.00  0.00     0.169 C 
HETATM   24  C18 UNL     1     -16.162  49.898  35.171  1.00  0.00     0.051 C 
ENDBRANCH  17  19
ENDBRANCH  16  17
ENDBRANCH  15  16
ENDBRANCH  14  15
ENDBRANCH  12  14
BRANCH   3  25
HETATM   25  N2  UNL     1     -13.302  41.026  39.037  1.00  0.00    -0.213 N 
HETATM   26  C3  UNL     1     -12.789  41.998  39.987  1.00  0.00     0.167 C 
HETATM   27  C4  UNL     1     -13.774  42.301  41.071  1.00  0.00     0.188 C 
HETATM   28  O1  UNL     1     -14.462  41.176  41.515  1.00  0.00    -0.388 OA
HETATM   29  C5  UNL     1     -13.840  40.012  41.120  1.00  0.00     0.188 C 
HETATM   30  C6  UNL     1     -14.011  39.902  39.598  1.00  0.00     0.167 C 
ENDBRANCH   3  25
BRANCH   8  31
HETATM   31  N4  UNL     1     -11.839  39.562  34.898  1.00  0.00    -0.383 N 
ATOM     32  H42 UNL     1     -10.943  39.133  35.128  1.00  0.00     0.157 HD
ATOM     33  H41 UNL     1     -12.391  39.275  34.090  1.00  0.00     0.157 HD
ENDBRANCH   8  31
TORSDOF 7
ENDMDL
MODEL 3
REMARK VINA RESULT: -7.025652250      3.866      6.770
REMARK  7 active torsions:
REMARK  status: ('A' for Active; 'I' for Inactive)
REMARK    1  A    between atoms: C2_3  and  N2_4 
REMARK    2  A    between atoms: C9_14  and  N4_15 
REMARK    3  A    between atoms: N6_21  and  C11_23 
REMARK    4  A    between atoms: C11_23  and  C12_24 
REMARK    5  A    between atoms: C12_24  and  C13_25 
REMARK    6  A    between atoms: C13_25  and  N7_26 
REMARK    7  A    between atoms: N7_26  and  C14_28 
ROOT
HETATM    1  C1  UNL     1     -12.234  38.718  37.140  1.00  0.00     0.177 C 
HETATM    2  N1  UNL     1     -12.538  40.053  36.647  1.00  0.00    -0.171 N 
HETATM    3  C2  UNL     1     -13.197  40.949  37.396  1.00  0.00     0.684 A 
HETATM    4  N3  UNL     1     -13.484  42.203  36.934  1.00  0.00    -0.185 N 
ATOM      5  H3  UNL     1     -13.988  42.848  37.542  1.00  0.00     0.184 HD
HETATM    6  C7  UNL     1     -13.129  42.613  35.717  1.00  0.00     0.123 A 
HETATM    7  C8  UNL     1     -12.447  41.718  34.917  1.00  0.00     0.110 A 
HETATM    8  C9  UNL     1     -12.168  40.442  35.415  1.00  0.00     0.146 A 
HETATM    9  N5  UNL     1     -12.314  42.607  33.819  1.00  0.00    -0.336 N 
ATOM     10  H5  UNL     1     -11.901  42.571  32.887  1.00  0.00     0.168 HD
HETATM   11  C10 UNL     1     -13.029  43.590  34.613  1.00  0.00     0.132 A 
HETATM   12  N6  UNL     1     -13.388  44.767  34.336  1.00  0.00    -0.374 N 
ATOM     13  H6  UNL     1     -13.102  45.102  33.416  1.00  0.00     0.161 HD
ENDROOT
BRANCH  12  14
HETATM   14  C11 UNL     1     -14.128  45.692  35.109  1.00  0.00     0.123 C 
BRANCH  14  15
HETATM   15  C12 UNL     1     -13.128  46.334  36.100  1.00  0.00     0.039 C 
BRANCH  15  16
HETATM   16  C13 UNL     1     -13.139  47.823  35.791  1.00  0.00     0.115 C 
BRANCH  16  17
HETATM   17  N7  UNL     1     -14.462  48.392  35.856  1.00  0.00    -0.417 N 
ATOM     18  H7  UNL     1     -15.196  48.006  36.450  1.00  0.00     0.153 HD
BRANCH  17  19
HETATM   19  C14 UNL     1     -14.671  49.530  35.032  1.00  0.00     0.080 C 
HETATM   20  C15 UNL     1     -14.360  49.270  33.605  1.00  0.00     0.051 C 
HETATM   21  C16 UNL     1     -15.333  48.325  32.959  1.00  0.00     0.169 C 
HETATM   22  O2  UNL     1     -16.497  48.128  33.712  1.00  0.00    -0.391 OA
HETATM   23  C17 UNL     1     -17.005  49.379  34.123  1.00  0.00     0.169 C 
HETATM   24  C18 UNL     1     -16.127  49.936  35.177  1.00  0.00     0.051 C 
ENDBRANCH  17  19
ENDBRANCH  16  17
ENDBRANCH  15  16
ENDBRANCH  14  15
ENDBRANCH  12  14
BRANCH   3  25
HETATM   25  N2  UNL     1     -13.571  40.652  38.705  1.00  0.00    -0.213 N 
HETATM   26  C3  UNL     1     -14.484  39.550  38.952  1.00  0.00     0.167 C 
HETATM   27  C4  UNL     1     -14.077  38.734  40.137  1.00  0.00     0.188 C 
HETATM   28  O1  UNL     1     -13.600  39.505  41.193  1.00  0.00    -0.388 OA
HETATM   29  C5  UNL     1     -13.940  40.832  41.048  1.00  0.00     0.188 C 
HETATM   30  C6  UNL     1     -13.125  41.380  39.867  1.00  0.00     0.167 C 
ENDBRANCH   3  25
BRANCH   8  31
HETATM   31  N4  UNL     1     -11.540  39.570  34.690  1.00  0.00    -0.383 N 
ATOM     32  H42 UNL     1     -10.719  39.838  34.147  1.00  0.00     0.157 HD
ATOM     33  H41 UNL     1     -11.910  38.620  34.689  1.00  0.00     0.157 HD
ENDBRANCH   8  31
TORSDOF 7
ENDMDL
MODEL 4
REMARK VINA RESULT: -6.809874585      2.359      9.909
REMARK  7 active torsions:
REMARK  status: ('A' for Active; 'I' for Inactive)
REMARK    1  A    between atoms: C2_3  and  N2_4 
REMARK    2  A    between atoms: C9_14  and  N4_15 
REMARK    3  A    between atoms: N6_21  and  C11_23 
REMARK    4  A    between atoms: C11_23  and  C12_24 
REMARK    5  A    between atoms: C12_24  and  C13_25 
REMARK    6  A    between atoms: C13_25  and  N7_26 
REMARK    7  A    between atoms: N7_26  and  C14_28 
ROOT
HETATM    1  C1  UNL     1     -12.166  42.428  33.533  1.00  0.00     0.177 C 
HETATM    2  N1  UNL     1     -12.468  41.989  34.887  1.00  0.00    -0.171 N 
HETATM    3  C2  UNL     1     -12.904  42.842  35.825  1.00  0.00     0.684 A 
HETATM    4  N3  UNL     1     -13.187  42.431  37.097  1.00  0.00    -0.185 N 
ATOM      5  H3  UNL     1     -13.516  43.119  37.775  1.00  0.00     0.184 HD
HETATM    6  C7  UNL     1     -13.051  41.163  37.485  1.00  0.00     0.123 A 
HETATM    7  C8  UNL     1     -12.606  40.255  36.545  1.00  0.00     0.110 A 
HETATM    8  C9  UNL     1     -12.322  40.704  35.251  1.00  0.00     0.146 A 
HETATM    9  N5  UNL     1     -12.648  39.139  37.420  1.00  0.00    -0.336 N 
ATOM     10  H5  UNL     1     -12.441  38.142  37.355  1.00  0.00     0.168 HD
HETATM   11  C10 UNL     1     -13.118  40.047  38.450  1.00  0.00     0.132 A 
HETATM   12  N6  UNL     1     -13.402  39.840  39.662  1.00  0.00    -0.374 N 
ATOM     13  H6  UNL     1     -13.323  38.870  39.965  1.00  0.00     0.161 HD
ENDROOT
BRANCH  12  14
HETATM   14  C11 UNL     1     -13.811  40.752  40.663  1.00  0.00     0.123 C 
BRANCH  14  15
HETATM   15  C12 UNL     1     -14.170  39.904  41.907  1.00  0.00     0.039 C 
BRANCH  15  16
HETATM   16  C13 UNL     1     -13.837  38.467  41.537  1.00  0.00     0.115 C 
BRANCH  16  17
HETATM   17  N7  UNL     1     -13.565  37.646  42.690  1.00  0.00    -0.417 N 
ATOM     18  H7  UNL     1     -12.690  37.708  43.211  1.00  0.00     0.153 HD
BRANCH  17  19
HETATM   19  C14 UNL     1     -14.603  36.746  43.049  1.00  0.00     0.080 C 
HETATM   20  C15 UNL     1     -14.695  35.583  42.133  1.00  0.00     0.051 C 
HETATM   21  C16 UNL     1     -13.521  34.653  42.251  1.00  0.00     0.169 C 
HETATM   22  O2  UNL     1     -12.745  34.883  43.393  1.00  0.00    -0.391 OA
HETATM   23  C17 UNL     1     -13.590  34.983  44.519  1.00  0.00     0.169 C 
HETATM   24  C18 UNL     1     -14.322  36.268  44.463  1.00  0.00     0.051 C 
ENDBRANCH  17  19
ENDBRANCH  16  17
ENDBRANCH  15  16
ENDBRANCH  14  15
ENDBRANCH  12  14
BRANCH   3  25
HETATM   25  N2  UNL     1     -13.137  44.182  35.521  1.00  0.00    -0.213 N 
HETATM   26  C3  UNL     1     -12.084  45.156  35.746  1.00  0.00     0.167 C 
HETATM   27  C4  UNL     1     -11.985  46.147  34.630  1.00  0.00     0.188 C 
HETATM   28  O1  UNL     1     -13.225  46.547  34.143  1.00  0.00    -0.388 OA
HETATM   29  C5  UNL     1     -14.241  46.226  35.015  1.00  0.00     0.188 C 
HETATM   30  C6  UNL     1     -14.381  44.697  35.003  1.00  0.00     0.167 C 
ENDBRANCH   3  25
BRANCH   8  31
HETATM   31  N4  UNL     1     -11.892  39.883  34.345  1.00  0.00    -0.383 N 
ATOM     32  H42 UNL     1     -10.952  39.978  33.959  1.00  0.00     0.157 HD
ATOM     33  H41 UNL     1     -12.537  39.156  34.039  1.00  0.00     0.157 HD
ENDBRANCH   8  31
TORSDOF 7
ENDMDL
MODEL 5
REMARK VINA RESULT: -6.754822085      1.945      9.695
REMARK  7 active torsions:
REMARK  status: ('A' for Active; 'I' for Inactive)
REMARK    1  A    between atoms: C2_3  and  N2_4 
REMARK    2  A    between atoms: C9_14  and  N4_15 
REMARK    3  A    between atoms: N6_21  and  C11_23 
REMARK    4  A    between atoms: C11_23  and  C12_24 
REMARK    5  A    between atoms: C12_24  and  C13_25 
REMARK    6  A    between atoms: C13_25  and  N7_26 
REMARK    7  A    between atoms: N7_26  and  C14_28 
ROOT
HETATM    1  C1  UNL     1     -11.996  41.828  33.919  1.00  0.00     0.177 C 
HETATM    2  N1  UNL     1     -12.337  41.353  35.251  1.00  0.00    -0.171 N 
HETATM    3  C2  UNL     1     -12.859  42.167  36.181  1.00  0.00     0.684 A 
HETATM    4  N3  UNL     1     -13.179  41.722  37.432  1.00  0.00    -0.185 N 
ATOM      5  H3  UNL     1     -13.573  42.382  38.103  1.00  0.00     0.184 HD
HETATM    6  C7  UNL     1     -12.996  40.456  37.807  1.00  0.00     0.123 A 
HETATM    7  C8  UNL     1     -12.462  39.587  36.877  1.00  0.00     0.110 A 
HETATM    8  C9  UNL     1     -12.143  40.071  35.604  1.00  0.00     0.146 A 
HETATM    9  N5  UNL     1     -12.488  38.456  37.733  1.00  0.00    -0.336 N 
ATOM     10  H5  UNL     1     -12.228  37.472  37.663  1.00  0.00     0.168 HD
HETATM   11  C10 UNL     1     -13.051  39.323  38.753  1.00  0.00     0.132 A 
HETATM   12  N6  UNL     1     -13.380  39.082  39.947  1.00  0.00    -0.374 N 
ATOM     13  H6  UNL     1     -13.266  38.111  40.240  1.00  0.00     0.161 HD
ENDROOT
BRANCH  12  14
HETATM   14  C11 UNL     1     -13.881  39.955  40.940  1.00  0.00     0.123 C 
BRANCH  14  15
HETATM   15  C12 UNL     1     -13.880  39.157  42.266  1.00  0.00     0.039 C 
BRANCH  15  16
HETATM   16  C13 UNL     1     -14.202  37.721  41.883  1.00  0.00     0.115 C 
BRANCH  16  17
HETATM   17  N7  UNL     1     -13.511  36.760  42.705  1.00  0.00    -0.417 N 
ATOM     18  H7  UNL     1     -12.554  36.903  43.028  1.00  0.00     0.153 HD
BRANCH  17  19
HETATM   19  C14 UNL     1     -14.260  35.598  43.035  1.00  0.00     0.080 C 
HETATM   20  C15 UNL     1     -14.694  34.838  41.838  1.00  0.00     0.051 C 
HETATM   21  C16 UNL     1     -13.550  34.188  41.112  1.00  0.00     0.169 C 
HETATM   22  O2  UNL     1     -12.367  34.156  41.860  1.00  0.00    -0.391 OA
HETATM   23  C17 UNL     1     -12.647  33.679  43.158  1.00  0.00     0.169 C 
HETATM   24  C18 UNL     1     -13.379  34.723  43.910  1.00  0.00     0.051 C 
ENDBRANCH  17  19
ENDBRANCH  16  17
ENDBRANCH  15  16
ENDBRANCH  14  15
ENDBRANCH  12  14
BRANCH   3  25
HETATM   25  N2  UNL     1     -13.146  43.499  35.885  1.00  0.00    -0.213 N 
HETATM   26  C3  UNL     1     -12.246  44.540  36.347  1.00  0.00     0.167 C 
HETATM   27  C4  UNL     1     -12.020  45.592  35.308  1.00  0.00     0.188 C 
HETATM   28  O1  UNL     1     -13.173  45.919  34.601  1.00  0.00    -0.388 OA
HETATM   29  C5  UNL     1     -14.307  45.473  35.245  1.00  0.00     0.188 C 
HETATM   30  C6  UNL     1     -14.306  43.940  35.151  1.00  0.00     0.167 C 
ENDBRANCH   3  25
BRANCH   8  31
HETATM   31  N4  UNL     1     -11.630  39.288  34.707  1.00  0.00    -0.383 N 
ATOM     32  H42 UNL     1     -11.674  39.530  33.717  1.00  0.00     0.157 HD
ATOM     33  H41 UNL     1     -11.194  38.429  35.041  1.00  0.00     0.157 HD
ENDBRANCH   8  31
TORSDOF 7
ENDMDL
