MODEL 1
REMARK VINA RESULT: -5.640133340      0.000      0.000
REMARK  5 active torsions:
REMARK  status: ('A' for Active; 'I' for Inactive)
REMARK    1  A    between atoms: C3_4  and  N2_5 
REMARK       I    between atoms: N2_5  and  C4_7 
REMARK    2  A    between atoms: C4_7  and  O2_9 
REMARK    3  A    between atoms: O2_9  and  C5_10 
REMARK    4  A    between atoms: C10_15  and  C11_16 
REMARK    5  A    between atoms: C11_16  and  N3_17 
ROOT
HETATM    1  C1  UNL     1      35.049  58.506  83.666  1.00  0.00     0.310 C 
HETATM    2  N1  UNL     1      35.665  59.793  83.871  1.00  0.00     0.092 N 
HETATM    3  C2  UNL     1      36.080  59.859  85.275  1.00  0.00     0.297 C 
HETATM    4  C3  UNL     1      37.376  59.099  85.273  1.00  0.00     0.117 C 
HETATM    5  C9  UNL     1      37.813  58.957  83.831  1.00  0.00     0.064 C 
HETATM    6  C10 UNL     1      36.897  59.972  83.168  1.00  0.00     0.250 C 
ENDROOT
BRANCH   4   7
HETATM    7  N2  UNL     1      37.326  57.851  85.979  1.00  0.00    -0.330 N 
HETATM    8  C4  UNL     1      38.482  57.278  86.564  1.00  0.00     0.361 C 
HETATM    9  O1  UNL     1      39.626  57.791  86.524  1.00  0.00    -0.238 OA
ATOM     10  H2  UNL     1      36.434  57.364  86.061  1.00  0.00     0.165 HD
BRANCH   8  11
HETATM   11  O2  UNL     1      38.355  56.072  87.229  1.00  0.00    -0.294 OA
BRANCH  11  12
HETATM   12  C5  UNL     1      38.019  54.885  86.549  1.00  0.00     0.061 C 
HETATM   13  C6  UNL     1      38.750  53.701  87.145  1.00  0.00     0.046 C 
HETATM   14  C7  UNL     1      36.531  54.653  86.794  1.00  0.00     0.046 C 
HETATM   15  C8  UNL     1      38.291  54.937  85.078  1.00  0.00     0.046 C 
ENDBRANCH  11  12
ENDBRANCH   8  11
ENDBRANCH   4   7
BRANCH   6  16
HETATM   16  C11 UNL     1      36.847  59.747  81.698  1.00  0.00     0.271 C 
BRANCH  16  17
HETATM   17  N3  UNL     1      36.981  60.916  80.890  1.00  0.00    -0.076 N 
HETATM   18  C12 UNL     1      37.494  62.072  81.556  1.00  0.00     0.271 C 
HETATM   19  C13 UNL     1      35.671  61.251  80.342  1.00  0.00     0.271 C 
HETATM   20  C14 UNL     1      37.838  60.676  79.723  1.00  0.00     0.271 C 
ENDBRANCH  16  17
ENDBRANCH   6  16
TORSDOF 5
ENDMDL
MODEL 2
REMARK VINA RESULT: -5.505281076      2.483      7.069
REMARK  5 active torsions:
REMARK  status: ('A' for Active; 'I' for Inactive)
REMARK    1  A    between atoms: C3_4  and  N2_5 
REMARK       I    between atoms: N2_5  and  C4_7 
REMARK    2  A    between atoms: C4_7  and  O2_9 
REMARK    3  A    between atoms: O2_9  and  C5_10 
REMARK    4  A    between atoms: C10_15  and  C11_16 
REMARK    5  A    between atoms: C11_16  and  N3_17 
ROOT
HETATM    1  C1  UNL     1      38.695  56.509  83.734  1.00  0.00     0.310 C 
HETATM    2  N1  UNL     1      38.594  56.971  85.096  1.00  0.00     0.092 N 
HETATM    3  C2  UNL     1      38.419  58.425  85.052  1.00  0.00     0.297 C 
HETATM    4  C3  UNL     1      36.952  58.574  84.761  1.00  0.00     0.117 C 
HETATM    5  C9  UNL     1      36.304  57.229  85.015  1.00  0.00     0.064 C 
HETATM    6  C10 UNL     1      37.417  56.531  85.779  1.00  0.00     0.250 C 
ENDROOT
BRANCH   4   7
HETATM    7  N2  UNL     1      36.663  59.110  83.463  1.00  0.00    -0.330 N 
HETATM    8  C4  UNL     1      36.186  60.433  83.291  1.00  0.00     0.361 C 
HETATM    9  O1  UNL     1      35.978  61.239  84.229  1.00  0.00    -0.238 OA
ATOM     10  H2  UNL     1      36.804  58.522  82.641  1.00  0.00     0.165 HD
BRANCH   8  11
HETATM   11  O2  UNL     1      35.930  60.879  82.007  1.00  0.00    -0.294 OA
BRANCH  11  12
HETATM   12  C5  UNL     1      36.923  61.506  81.229  1.00  0.00     0.061 C 
HETATM   13  C6  UNL     1      38.226  60.742  81.308  1.00  0.00     0.046 C 
HETATM   14  C7  UNL     1      36.451  61.426  79.781  1.00  0.00     0.046 C 
HETATM   15  C8  UNL     1      37.169  62.933  81.607  1.00  0.00     0.046 C 
ENDBRANCH  11  12
ENDBRANCH   8  11
ENDBRANCH   4   7
BRANCH   6  16
HETATM   16  C11 UNL     1      37.189  55.061  85.803  1.00  0.00     0.271 C 
BRANCH  16  17
HETATM   17  N3  UNL     1      37.730  54.372  86.930  1.00  0.00    -0.076 N 
HETATM   18  C12 UNL     1      38.531  55.162  87.812  1.00  0.00     0.271 C 
HETATM   19  C13 UNL     1      38.545  53.263  86.445  1.00  0.00     0.271 C 
HETATM   20  C14 UNL     1      36.679  53.751  87.745  1.00  0.00     0.271 C 
ENDBRANCH  16  17
ENDBRANCH   6  16
TORSDOF 5
ENDMDL
MODEL 3
REMARK VINA RESULT: -5.480513989      2.694      6.973
REMARK  5 active torsions:
REMARK  status: ('A' for Active; 'I' for Inactive)
REMARK    1  A    between atoms: C3_4  and  N2_5 
REMARK       I    between atoms: N2_5  and  C4_7 
REMARK    2  A    between atoms: C4_7  and  O2_9 
REMARK    3  A    between atoms: O2_9  and  C5_10 
REMARK    4  A    between atoms: C10_15  and  C11_16 
REMARK    5  A    between atoms: C11_16  and  N3_17 
ROOT
HETATM    1  C1  UNL     1      35.379  57.857  84.732  1.00  0.00     0.310 C 
HETATM    2  N1  UNL     1      36.032  56.827  83.962  1.00  0.00     0.092 N 
HETATM    3  C2  UNL     1      36.539  57.453  82.738  1.00  0.00     0.297 C 
HETATM    4  C3  UNL     1      37.817  58.093  83.199  1.00  0.00     0.117 C 
HETATM    5  C9  UNL     1      38.156  57.502  84.550  1.00  0.00     0.064 C 
HETATM    6  C10 UNL     1      37.218  56.306  84.566  1.00  0.00     0.250 C 
ENDROOT
BRANCH   4   7
HETATM    7  N2  UNL     1      37.790  59.527  83.196  1.00  0.00    -0.330 N 
HETATM    8  C4  UNL     1      38.221  60.280  82.075  1.00  0.00     0.361 C 
HETATM    9  O1  UNL     1      38.655  59.780  81.010  1.00  0.00    -0.238 OA
ATOM     10  H2  UNL     1      37.450  60.018  84.022  1.00  0.00     0.165 HD
BRANCH   8  11
HETATM   11  O2  UNL     1      38.165  61.660  82.147  1.00  0.00    -0.294 OA
BRANCH  11  12
HETATM   12  C5  UNL     1      37.025  62.376  81.733  1.00  0.00     0.061 C 
HETATM   13  C6  UNL     1      35.886  62.182  82.709  1.00  0.00     0.046 C 
HETATM   14  C7  UNL     1      37.402  63.853  81.782  1.00  0.00     0.046 C 
HETATM   15  C8  UNL     1      36.556  62.015  80.358  1.00  0.00     0.046 C 
ENDBRANCH  11  12
ENDBRANCH   8  11
ENDBRANCH   4   7
BRANCH   6  16
HETATM   16  C11 UNL     1      37.068  55.781  85.950  1.00  0.00     0.271 C 
BRANCH  16  17
HETATM   17  N3  UNL     1      37.595  54.473  86.174  1.00  0.00    -0.076 N 
HETATM   18  C12 UNL     1      38.147  53.824  85.026  1.00  0.00     0.271 C 
HETATM   19  C13 UNL     1      36.529  53.630  86.705  1.00  0.00     0.271 C 
HETATM   20  C14 UNL     1      38.637  54.476  87.208  1.00  0.00     0.271 C 
ENDBRANCH  16  17
ENDBRANCH   6  16
TORSDOF 5
ENDMDL
MODEL 4
REMARK VINA RESULT: -5.420325889      2.482      7.074
REMARK  5 active torsions:
REMARK  status: ('A' for Active; 'I' for Inactive)
REMARK    1  A    between atoms: C3_4  and  N2_5 
REMARK       I    between atoms: N2_5  and  C4_7 
REMARK    2  A    between atoms: C4_7  and  O2_9 
REMARK    3  A    between atoms: O2_9  and  C5_10 
REMARK    4  A    between atoms: C10_15  and  C11_16 
REMARK    5  A    between atoms: C11_16  and  N3_17 
ROOT
HETATM    1  C1  UNL     1      38.696  56.501  83.720  1.00  0.00     0.310 C 
HETATM    2  N1  UNL     1      38.598  56.957  85.085  1.00  0.00     0.092 N 
HETATM    3  C2  UNL     1      38.434  58.412  85.047  1.00  0.00     0.297 C 
HETATM    4  C3  UNL     1      36.968  58.573  84.757  1.00  0.00     0.117 C 
HETATM    5  C9  UNL     1      36.310  57.233  85.003  1.00  0.00     0.064 C 
HETATM    6  C10 UNL     1      37.417  56.523  85.765  1.00  0.00     0.250 C 
ENDROOT
BRANCH   4   7
HETATM    7  N2  UNL     1      36.683  59.118  83.460  1.00  0.00    -0.330 N 
HETATM    8  C4  UNL     1      36.205  60.441  83.296  1.00  0.00     0.361 C 
HETATM    9  O1  UNL     1      35.992  61.240  84.238  1.00  0.00    -0.238 OA
ATOM     10  H2  UNL     1      36.829  58.536  82.635  1.00  0.00     0.165 HD
BRANCH   8  11
HETATM   11  O2  UNL     1      35.953  60.896  82.014  1.00  0.00    -0.294 OA
BRANCH  11  12
HETATM   12  C5  UNL     1      36.979  61.406  81.195  1.00  0.00     0.061 C 
HETATM   13  C6  UNL     1      36.589  61.326  79.735  1.00  0.00     0.046 C 
HETATM   14  C7  UNL     1      37.108  62.887  81.537  1.00  0.00     0.046 C 
HETATM   15  C8  UNL     1      38.297  60.722  81.387  1.00  0.00     0.046 C 
ENDBRANCH  11  12
ENDBRANCH   8  11
ENDBRANCH   4   7
BRANCH   6  16
HETATM   16  C11 UNL     1      37.179  55.054  85.781  1.00  0.00     0.271 C 
BRANCH  16  17
HETATM   17  N3  UNL     1      37.704  54.357  86.911  1.00  0.00    -0.076 N 
HETATM   18  C12 UNL     1      38.543  53.239  86.612  1.00  0.00     0.271 C 
HETATM   19  C13 UNL     1      36.588  53.885  87.722  1.00  0.00     0.271 C 
HETATM   20  C14 UNL     1      38.472  55.247  87.791  1.00  0.00     0.271 C 
ENDBRANCH  16  17
ENDBRANCH   6  16
TORSDOF 5
ENDMDL
MODEL 5
REMARK VINA RESULT: -5.334077338      2.671      6.836
REMARK  5 active torsions:
REMARK  status: ('A' for Active; 'I' for Inactive)
REMARK    1  A    between atoms: C3_4  and  N2_5 
REMARK       I    between atoms: N2_5  and  C4_7 
REMARK    2  A    between atoms: C4_7  and  O2_9 
REMARK    3  A    between atoms: O2_9  and  C5_10 
REMARK    4  A    between atoms: C10_15  and  C11_16 
REMARK    5  A    between atoms: C11_16  and  N3_17 
ROOT
HETATM    1  C1  UNL     1      38.857  56.410  83.903  1.00  0.00     0.310 C 
HETATM    2  N1  UNL     1      38.661  56.110  85.299  1.00  0.00     0.092 N 
HETATM    3  C2  UNL     1      38.662  57.384  86.023  1.00  0.00     0.297 C 
HETATM    4  C3  UNL     1      37.263  57.889  85.807  1.00  0.00     0.117 C 
HETATM    5  C9  UNL     1      36.440  56.729  85.291  1.00  0.00     0.064 C 
HETATM    6  C10 UNL     1      37.372  55.571  85.607  1.00  0.00     0.250 C 
ENDROOT
BRANCH   4   7
HETATM    7  N2  UNL     1      37.183  59.057  84.978  1.00  0.00    -0.330 N 
HETATM    8  C4  UNL     1      36.075  59.938  85.036  1.00  0.00     0.361 C 
HETATM    9  O1  UNL     1      35.088  59.787  85.794  1.00  0.00    -0.238 OA
ATOM     10  H2  UNL     1      37.944  59.259  84.330  1.00  0.00     0.165 HD
BRANCH   8  11
HETATM   11  O2  UNL     1      36.069  61.044  84.206  1.00  0.00    -0.294 OA
BRANCH  11  12
HETATM   12  C5  UNL     1      35.337  61.062  83.002  1.00  0.00     0.061 C 
HETATM   13  C6  UNL     1      33.919  61.529  83.245  1.00  0.00     0.046 C 
HETATM   14  C7  UNL     1      35.999  62.107  82.110  1.00  0.00     0.046 C 
HETATM   15  C8  UNL     1      35.303  59.740  82.301  1.00  0.00     0.046 C 
ENDBRANCH  11  12
ENDBRANCH   8  11
ENDBRANCH   4   7
BRANCH   6  16
HETATM   16  C11 UNL     1      36.974  54.358  84.844  1.00  0.00     0.271 C 
BRANCH  16  17
HETATM   17  N3  UNL     1      37.314  53.110  85.450  1.00  0.00    -0.076 N 
HETATM   18  C12 UNL     1      37.700  53.175  86.824  1.00  0.00     0.271 C 
HETATM   19  C13 UNL     1      38.411  52.515  84.695  1.00  0.00     0.271 C 
HETATM   20  C14 UNL     1      36.213  52.143  85.358  1.00  0.00     0.271 C 
ENDBRANCH  16  17
ENDBRANCH   6  16
TORSDOF 5
ENDMDL
