MODEL 1
REMARK VINA RESULT: -6.824002893      0.000      0.000
REMARK  5 active torsions:
REMARK  status: ('A' for Active; 'I' for Inactive)
REMARK    1  A    between atoms: O1_2  and  C2_3 
REMARK    2  A    between atoms: C2_3  and  C3_4 
REMARK    3  A    between atoms: C4_5  and  C5_6 
REMARK    4  A    between atoms: C9_10  and  O2_11 
REMARK    5  A    between atoms: C11_13  and  O3_14 
ROOT
HETATM    1  C5  UNL     1      37.497  60.241  78.296  1.00  0.00     0.089 A 
HETATM    2  C6  UNL     1      37.458  61.342  79.128  1.00  0.00     0.051 A 
HETATM    3  C7  UNL     1      36.778  61.329  80.329  1.00  0.00    -0.019 A 
HETATM    4  C8  UNL     1      36.735  62.435  81.170  1.00  0.00     0.052 A 
HETATM    5  C9  UNL     1      36.054  62.414  82.369  1.00  0.00     0.102 A 
HETATM    6  C11 UNL     1      35.406  61.248  82.715  1.00  0.00     0.102 A 
HETATM    7  C13 UNL     1      35.450  60.148  81.876  1.00  0.00     0.053 A 
HETATM    8  C14 UNL     1      36.129  60.161  80.676  1.00  0.00    -0.007 A 
HETATM    9  C15 UNL     1      36.165  59.058  79.846  1.00  0.00     0.103 A 
HETATM   10  N1  UNL     1      36.849  59.138  78.685  1.00  0.00    -0.353 N 
HETATM   11  C16 UNL     1      36.878  57.975  77.829  1.00  0.00     0.156 C 
ENDROOT
BRANCH   1  12
HETATM   12  C4  UNL     1      38.222  60.315  77.056  1.00  0.00    -0.046 C 
HETATM   13  C3  UNL     1      38.815  60.380  76.002  1.00  0.00    -0.073 C 
BRANCH  13  14
HETATM   14  C2  UNL     1      39.527  60.472  74.720  1.00  0.00     0.261 C 
BRANCH  14  15
HETATM   15  O1  UNL     1      39.728  61.804  74.350  1.00  0.00    -0.384 OA
HETATM   16  C1  UNL     1      39.358  61.991  73.021  1.00  0.00     0.202 C 
ENDBRANCH  14  15
ENDBRANCH  13  14
ENDBRANCH   1  12
BRANCH   5  17
HETATM   17  O2  UNL     1      35.994  63.495  83.224  1.00  0.00    -0.353 OA
HETATM   18  C10 UNL     1      36.728  64.670  83.080  1.00  0.00     0.210 C 
ENDBRANCH   5  17
BRANCH   6  19
HETATM   19  O3  UNL     1      34.714  61.215  83.925  1.00  0.00    -0.353 OA
HETATM   20  C12 UNL     1      33.868  60.133  84.258  1.00  0.00     0.210 C 
ENDBRANCH   6  19
TORSDOF 5
ENDMDL
MODEL 2
REMARK VINA RESULT: -6.595823723      0.945      1.088
REMARK  5 active torsions:
REMARK  status: ('A' for Active; 'I' for Inactive)
REMARK    1  A    between atoms: O1_2  and  C2_3 
REMARK    2  A    between atoms: C2_3  and  C3_4 
REMARK    3  A    between atoms: C4_5  and  C5_6 
REMARK    4  A    between atoms: C9_10  and  O2_11 
REMARK    5  A    between atoms: C11_13  and  O3_14 
ROOT
HETATM    1  C5  UNL     1      37.440  59.987  78.333  1.00  0.00     0.089 A 
HETATM    2  C6  UNL     1      37.466  61.101  79.147  1.00  0.00     0.051 A 
HETATM    3  C7  UNL     1      36.753  61.163  80.327  1.00  0.00    -0.019 A 
HETATM    4  C8  UNL     1      36.775  62.283  81.150  1.00  0.00     0.052 A 
HETATM    5  C9  UNL     1      36.060  62.338  82.328  1.00  0.00     0.102 A 
HETATM    6  C11 UNL     1      35.310  61.234  82.672  1.00  0.00     0.102 A 
HETATM    7  C13 UNL     1      35.288  60.120  81.851  1.00  0.00     0.053 A 
HETATM    8  C14 UNL     1      36.001  60.058  80.672  1.00  0.00    -0.007 A 
HETATM    9  C15 UNL     1      35.972  58.941  79.860  1.00  0.00     0.103 A 
HETATM   10  N1  UNL     1      36.694  58.946  78.719  1.00  0.00    -0.353 N 
HETATM   11  C16 UNL     1      36.654  57.770  77.881  1.00  0.00     0.156 C 
ENDROOT
BRANCH   1  12
HETATM   12  C4  UNL     1      38.205  59.981  77.115  1.00  0.00    -0.046 C 
HETATM   13  C3  UNL     1      38.834  59.964  76.081  1.00  0.00    -0.073 C 
BRANCH  13  14
HETATM   14  C2  UNL     1      39.586  59.949  74.818  1.00  0.00     0.261 C 
BRANCH  14  15
HETATM   15  O1  UNL     1      40.483  58.879  74.780  1.00  0.00    -0.384 OA
HETATM   16  C1  UNL     1      41.371  59.039  73.719  1.00  0.00     0.202 C 
ENDBRANCH  14  15
ENDBRANCH  13  14
ENDBRANCH   1  12
BRANCH   5  17
HETATM   17  O2  UNL     1      36.062  63.434  83.166  1.00  0.00    -0.353 OA
HETATM   18  C10 UNL     1      36.789  64.603  82.950  1.00  0.00     0.210 C 
ENDBRANCH   5  17
BRANCH   6  19
HETATM   19  O3  UNL     1      34.582  61.277  83.860  1.00  0.00    -0.353 OA
HETATM   20  C12 UNL     1      33.847  60.158  84.314  1.00  0.00     0.210 C 
ENDBRANCH   6  19
TORSDOF 5
ENDMDL
MODEL 3
REMARK VINA RESULT: -6.443913106      2.130      2.599
REMARK  5 active torsions:
REMARK  status: ('A' for Active; 'I' for Inactive)
REMARK    1  A    between atoms: O1_2  and  C2_3 
REMARK    2  A    between atoms: C2_3  and  C3_4 
REMARK    3  A    between atoms: C4_5  and  C5_6 
REMARK    4  A    between atoms: C9_10  and  O2_11 
REMARK    5  A    between atoms: C11_13  and  O3_14 
ROOT
HETATM    1  C5  UNL     1      38.521  59.966  76.956  1.00  0.00     0.089 A 
HETATM    2  C6  UNL     1      38.027  60.872  77.872  1.00  0.00     0.051 A 
HETATM    3  C7  UNL     1      38.000  60.603  79.226  1.00  0.00    -0.019 A 
HETATM    4  C8  UNL     1      37.503  61.513  80.153  1.00  0.00     0.052 A 
HETATM    5  C9  UNL     1      37.479  61.238  81.504  1.00  0.00     0.102 A 
HETATM    6  C11 UNL     1      37.969  60.017  81.916  1.00  0.00     0.102 A 
HETATM    7  C13 UNL     1      38.463  59.113  80.991  1.00  0.00     0.053 A 
HETATM    8  C14 UNL     1      38.490  59.382  79.639  1.00  0.00    -0.007 A 
HETATM    9  C15 UNL     1      38.985  58.472  78.725  1.00  0.00     0.103 A 
HETATM   10  N1  UNL     1      38.983  58.798  77.415  1.00  0.00    -0.353 N 
HETATM   11  C16 UNL     1      39.504  57.836  76.472  1.00  0.00     0.156 C 
ENDROOT
BRANCH   1  12
HETATM   12  C4  UNL     1      38.523  60.303  75.557  1.00  0.00    -0.046 C 
HETATM   13  C3  UNL     1      38.544  60.578  74.378  1.00  0.00    -0.073 C 
BRANCH  13  14
HETATM   14  C2  UNL     1      38.571  60.896  72.944  1.00  0.00     0.261 C 
BRANCH  14  15
HETATM   15  O1  UNL     1      37.369  60.543  72.327  1.00  0.00    -0.384 OA
HETATM   16  C1  UNL     1      37.276  59.157  72.222  1.00  0.00     0.202 C 
ENDBRANCH  14  15
ENDBRANCH  13  14
ENDBRANCH   1  12
BRANCH   5  17
HETATM   17  O2  UNL     1      36.993  62.119  82.448  1.00  0.00    -0.353 OA
HETATM   18  C10 UNL     1      35.644  62.325  82.729  1.00  0.00     0.210 C 
ENDBRANCH   5  17
BRANCH   6  19
HETATM   19  O3  UNL     1      37.949  59.727  83.280  1.00  0.00    -0.353 OA
HETATM   20  C12 UNL     1      37.000  58.835  83.829  1.00  0.00     0.210 C 
ENDBRANCH   6  19
TORSDOF 5
ENDMDL
MODEL 4
REMARK VINA RESULT: -6.387125043      1.732      7.427
REMARK  5 active torsions:
REMARK  status: ('A' for Active; 'I' for Inactive)
REMARK    1  A    between atoms: O1_2  and  C2_3 
REMARK    2  A    between atoms: C2_3  and  C3_4 
REMARK    3  A    between atoms: C4_5  and  C5_6 
REMARK    4  A    between atoms: C9_10  and  O2_11 
REMARK    5  A    between atoms: C11_13  and  O3_14 
ROOT
HETATM    1  C5  UNL     1      37.607  60.414  79.823  1.00  0.00     0.089 A 
HETATM    2  C6  UNL     1      37.763  60.936  78.555  1.00  0.00     0.051 A 
HETATM    3  C7  UNL     1      38.357  60.219  77.536  1.00  0.00    -0.019 A 
HETATM    4  C8  UNL     1      38.517  60.740  76.257  1.00  0.00     0.052 A 
HETATM    5  C9  UNL     1      39.112  60.018  75.244  1.00  0.00     0.102 A 
HETATM    6  C11 UNL     1      39.551  58.745  75.540  1.00  0.00     0.102 A 
HETATM    7  C13 UNL     1      39.392  58.229  76.814  1.00  0.00     0.053 A 
HETATM    8  C14 UNL     1      38.798  58.945  77.832  1.00  0.00    -0.007 A 
HETATM    9  C15 UNL     1      38.644  58.420  79.100  1.00  0.00     0.103 A 
HETATM   10  N1  UNL     1      38.053  59.175  80.050  1.00  0.00    -0.353 N 
HETATM   11  C16 UNL     1      37.899  58.611  81.371  1.00  0.00     0.156 C 
ENDROOT
BRANCH   1  12
HETATM   12  C4  UNL     1      36.979  61.210  80.844  1.00  0.00    -0.046 C 
HETATM   13  C3  UNL     1      36.432  61.879  81.692  1.00  0.00    -0.073 C 
BRANCH  13  14
HETATM   14  C2  UNL     1      35.759  62.680  82.724  1.00  0.00     0.261 C 
BRANCH  14  15
HETATM   15  O1  UNL     1      36.638  63.600  83.300  1.00  0.00    -0.384 OA
HETATM   16  C1  UNL     1      37.204  64.403  82.313  1.00  0.00     0.202 C 
ENDBRANCH  14  15
ENDBRANCH  13  14
ENDBRANCH   1  12
BRANCH   5  17
HETATM   17  O2  UNL     1      39.284  60.506  73.965  1.00  0.00    -0.353 OA
HETATM   18  C10 UNL     1      39.933  61.697  73.645  1.00  0.00     0.210 C 
ENDBRANCH   5  17
BRANCH   6  19
HETATM   19  O3  UNL     1      40.155  58.005  74.524  1.00  0.00    -0.353 OA
HETATM   20  C12 UNL     1      41.558  57.837  74.471  1.00  0.00     0.210 C 
ENDBRANCH   6  19
TORSDOF 5
ENDMDL
MODEL 5
REMARK VINA RESULT: -6.383462162      1.616      7.817
REMARK  5 active torsions:
REMARK  status: ('A' for Active; 'I' for Inactive)
REMARK    1  A    between atoms: O1_2  and  C2_3 
REMARK    2  A    between atoms: C2_3  and  C3_4 
REMARK    3  A    between atoms: C4_5  and  C5_6 
REMARK    4  A    between atoms: C9_10  and  O2_11 
REMARK    5  A    between atoms: C11_13  and  O3_14 
ROOT
HETATM    1  C5  UNL     1      37.792  60.443  78.609  1.00  0.00     0.089 A 
HETATM    2  C6  UNL     1      38.111  61.229  77.520  1.00  0.00     0.051 A 
HETATM    3  C7  UNL     1      38.700  60.705  76.387  1.00  0.00    -0.019 A 
HETATM    4  C8  UNL     1      39.023  61.493  75.287  1.00  0.00     0.052 A 
HETATM    5  C9  UNL     1      39.612  60.963  74.158  1.00  0.00     0.102 A 
HETATM    6  C11 UNL     1      39.874  59.609  74.150  1.00  0.00     0.102 A 
HETATM    7  C13 UNL     1      39.552  58.828  75.246  1.00  0.00     0.053 A 
HETATM    8  C14 UNL     1      38.963  59.351  76.378  1.00  0.00    -0.007 A 
HETATM    9  C15 UNL     1      38.646  58.561  77.466  1.00  0.00     0.103 A 
HETATM   10  N1  UNL     1      38.070  59.137  78.543  1.00  0.00    -0.353 N 
HETATM   11  C16 UNL     1      37.744  58.298  79.672  1.00  0.00     0.156 C 
ENDROOT
BRANCH   1  12
HETATM   12  C4  UNL     1      37.179  61.046  79.762  1.00  0.00    -0.046 C 
HETATM   13  C3  UNL     1      36.677  61.569  80.733  1.00  0.00    -0.073 C 
BRANCH  13  14
HETATM   14  C2  UNL     1      36.068  62.216  81.903  1.00  0.00     0.261 C 
BRANCH  14  15
HETATM   15  O1  UNL     1      37.025  62.905  82.652  1.00  0.00    -0.384 OA
HETATM   16  C1  UNL     1      37.436  64.045  81.968  1.00  0.00     0.202 C 
ENDBRANCH  14  15
ENDBRANCH  13  14
ENDBRANCH   1  12
BRANCH   5  17
HETATM   17  O2  UNL     1      39.944  61.717  73.052  1.00  0.00    -0.353 OA
HETATM   18  C10 UNL     1      39.048  62.132  72.069  1.00  0.00     0.210 C 
ENDBRANCH   5  17
BRANCH   6  19
HETATM   19  O3  UNL     1      40.470  59.062  73.014  1.00  0.00    -0.353 OA
HETATM   20  C12 UNL     1      41.804  58.595  73.036  1.00  0.00     0.210 C 
ENDBRANCH   6  19
TORSDOF 5
ENDMDL
