MODEL 1
REMARK VINA RESULT: -6.052873967      0.000      0.000
REMARK  4 active torsions:
REMARK  status: ('A' for Active; 'I' for Inactive)
REMARK    1  A    between atoms: C2_2  and  N1_3 
REMARK    2  A    between atoms: N1_3  and  C5_6 
REMARK    3  A    between atoms: C5_6  and  C6_7 
REMARK       I    between atoms: C6_7  and  N2_9 
REMARK    4  A    between atoms: C9_13  and  C10_14 
ROOT
HETATM    1  C6  UNL     1      38.304  58.621  85.548  1.00  0.00     0.249 C 
HETATM    2  O1  UNL     1      37.604  59.327  86.304  1.00  0.00    -0.271 OA
HETATM    3  N2  UNL     1      38.637  59.164  84.285  1.00  0.00    -0.304 N 
ATOM      4  H2  UNL     1      39.614  59.407  84.125  1.00  0.00     0.171 HD
HETATM    5  C7  UNL     1      37.815  59.377  83.322  1.00  0.00     0.174 A 
HETATM    6  C8  UNL     1      38.165  59.913  82.087  1.00  0.00     0.086 A 
HETATM    7  C9  UNL     1      37.003  59.969  81.371  1.00  0.00     0.044 A 
HETATM    8  N3  UNL     1      36.020  59.485  82.158  1.00  0.00    -0.263 N 
ATOM      9  H3  UNL     1      35.036  59.399  81.903  1.00  0.00     0.194 HD
HETATM   10  O2  UNL     1      36.550  59.148  83.305  1.00  0.00    -0.220 OA
ENDROOT
BRANCH   1  11
HETATM   11  C5  UNL     1      38.750  57.289  85.973  1.00  0.00     0.339 C 
BRANCH  11  12
HETATM   12  N1  UNL     1      38.060  56.183  85.395  1.00  0.00    -0.067 N 
HETATM   13  C3  UNL     1      36.639  56.445  85.322  1.00  0.00     0.272 C 
HETATM   14  C4  UNL     1      38.571  55.894  84.073  1.00  0.00     0.272 C 
BRANCH  12  15
HETATM   15  C2  UNL     1      38.219  54.995  86.251  1.00  0.00     0.232 C 
HETATM   16  C1  UNL     1      38.522  55.368  87.665  1.00  0.00     0.035 C 
ENDBRANCH  12  15
ENDBRANCH  11  12
ENDBRANCH   1  11
BRANCH   7  17
HETATM   17  C10 UNL     1      36.747  60.448  79.991  1.00  0.00    -0.007 C 
HETATM   18  C11 UNL     1      38.013  60.477  79.167  1.00  0.00     0.021 C 
HETATM   19  C12 UNL     1      35.774  59.466  79.354  1.00  0.00     0.021 C 
HETATM   20  C13 UNL     1      36.100  61.801  80.070  1.00  0.00     0.021 C 
ENDBRANCH   7  17
TORSDOF 4
ENDMDL
MODEL 2
REMARK VINA RESULT: -6.021195858      0.105      1.012
REMARK  4 active torsions:
REMARK  status: ('A' for Active; 'I' for Inactive)
REMARK    1  A    between atoms: C2_2  and  N1_3 
REMARK    2  A    between atoms: N1_3  and  C5_6 
REMARK    3  A    between atoms: C5_6  and  C6_7 
REMARK       I    between atoms: C6_7  and  N2_9 
REMARK    4  A    between atoms: C9_13  and  C10_14 
ROOT
HETATM    1  C6  UNL     1      38.320  58.719  85.534  1.00  0.00     0.249 C 
HETATM    2  O1  UNL     1      37.672  59.492  86.271  1.00  0.00    -0.271 OA
HETATM    3  N2  UNL     1      38.647  59.186  84.239  1.00  0.00    -0.304 N 
ATOM      4  H2  UNL     1      39.630  59.375  84.047  1.00  0.00     0.171 HD
HETATM    5  C7  UNL     1      37.813  59.393  83.285  1.00  0.00     0.174 A 
HETATM    6  C8  UNL     1      38.157  59.853  82.019  1.00  0.00     0.086 A 
HETATM    7  C9  UNL     1      36.983  59.931  81.327  1.00  0.00     0.044 A 
HETATM    8  N3  UNL     1      35.997  59.531  82.157  1.00  0.00    -0.263 N 
ATOM      9  H3  UNL     1      35.005  59.478  81.928  1.00  0.00     0.194 HD
HETATM   10  O2  UNL     1      36.538  59.222  83.307  1.00  0.00    -0.220 OA
ENDROOT
BRANCH   1  11
HETATM   11  C5  UNL     1      38.715  57.389  86.012  1.00  0.00     0.339 C 
BRANCH  11  12
HETATM   12  N1  UNL     1      38.029  56.283  85.427  1.00  0.00    -0.067 N 
HETATM   13  C3  UNL     1      36.614  56.561  85.310  1.00  0.00     0.272 C 
HETATM   14  C4  UNL     1      38.575  55.973  84.124  1.00  0.00     0.272 C 
BRANCH  12  15
HETATM   15  C2  UNL     1      38.149  55.104  86.302  1.00  0.00     0.232 C 
HETATM   16  C1  UNL     1      38.435  55.491  87.715  1.00  0.00     0.035 C 
ENDBRANCH  12  15
ENDBRANCH  11  12
ENDBRANCH   1  11
BRANCH   7  17
HETATM   17  C10 UNL     1      36.716  60.356  79.931  1.00  0.00    -0.007 C 
HETATM   18  C11 UNL     1      35.750  59.424  79.239  1.00  0.00     0.021 C 
HETATM   19  C12 UNL     1      36.091  61.742  80.001  1.00  0.00     0.021 C 
HETATM   20  C13 UNL     1      38.027  60.444  79.203  1.00  0.00     0.021 C 
ENDBRANCH   7  17
TORSDOF 4
ENDMDL
MODEL 3
REMARK VINA RESULT: -6.011065866      0.091      1.013
REMARK  4 active torsions:
REMARK  status: ('A' for Active; 'I' for Inactive)
REMARK    1  A    between atoms: C2_2  and  N1_3 
REMARK    2  A    between atoms: N1_3  and  C5_6 
REMARK    3  A    between atoms: C5_6  and  C6_7 
REMARK       I    between atoms: C6_7  and  N2_9 
REMARK    4  A    between atoms: C9_13  and  C10_14 
ROOT
HETATM    1  C6  UNL     1      38.337  58.702  85.516  1.00  0.00     0.249 C 
HETATM    2  O1  UNL     1      37.686  59.457  86.269  1.00  0.00    -0.271 OA
HETATM    3  N2  UNL     1      38.652  59.193  84.227  1.00  0.00    -0.304 N 
ATOM      4  H2  UNL     1      39.632  59.394  84.033  1.00  0.00     0.171 HD
HETATM    5  C7  UNL     1      37.810  59.408  83.282  1.00  0.00     0.174 A 
HETATM    6  C8  UNL     1      38.143  59.891  82.021  1.00  0.00     0.086 A 
HETATM    7  C9  UNL     1      36.964  59.969  81.337  1.00  0.00     0.044 A 
HETATM    8  N3  UNL     1      35.987  59.547  82.166  1.00  0.00    -0.263 N 
ATOM      9  H3  UNL     1      34.994  59.489  81.942  1.00  0.00     0.194 HD
HETATM   10  O2  UNL     1      36.538  59.225  83.308  1.00  0.00    -0.220 OA
ENDROOT
BRANCH   1  11
HETATM   11  C5  UNL     1      38.747  57.368  85.970  1.00  0.00     0.339 C 
BRANCH  11  12
HETATM   12  N1  UNL     1      38.039  56.268  85.402  1.00  0.00    -0.067 N 
HETATM   13  C3  UNL     1      36.621  56.547  85.337  1.00  0.00     0.272 C 
HETATM   14  C4  UNL     1      38.538  55.967  84.078  1.00  0.00     0.272 C 
BRANCH  12  15
HETATM   15  C2  UNL     1      38.189  55.082  86.262  1.00  0.00     0.232 C 
HETATM   16  C1  UNL     1      38.493  55.458  87.675  1.00  0.00     0.035 C 
ENDBRANCH  12  15
ENDBRANCH  11  12
ENDBRANCH   1  11
BRANCH   7  17
HETATM   17  C10 UNL     1      36.685  60.415  79.950  1.00  0.00    -0.007 C 
HETATM   18  C11 UNL     1      36.104  61.808  79.917  1.00  0.00     0.021 C 
HETATM   19  C12 UNL     1      38.016  60.424  79.211  1.00  0.00     0.021 C 
HETATM   20  C13 UNL     1      35.771  59.412  79.304  1.00  0.00     0.021 C 
ENDBRANCH   7  17
TORSDOF 4
ENDMDL
MODEL 4
REMARK VINA RESULT: -5.841695001      0.352      1.467
REMARK  4 active torsions:
REMARK  status: ('A' for Active; 'I' for Inactive)
REMARK    1  A    between atoms: C2_2  and  N1_3 
REMARK    2  A    between atoms: N1_3  and  C5_6 
REMARK    3  A    between atoms: C5_6  and  C6_7 
REMARK       I    between atoms: C6_7  and  N2_9 
REMARK    4  A    between atoms: C9_13  and  C10_14 
ROOT
HETATM    1  C6  UNL     1      38.309  58.601  85.575  1.00  0.00     0.249 C 
HETATM    2  O1  UNL     1      37.597  59.294  86.331  1.00  0.00    -0.271 OA
HETATM    3  N2  UNL     1      38.639  59.153  84.315  1.00  0.00    -0.304 N 
ATOM      4  H2  UNL     1      39.614  59.411  84.161  1.00  0.00     0.171 HD
HETATM    5  C7  UNL     1      37.818  59.359  83.350  1.00  0.00     0.174 A 
HETATM    6  C8  UNL     1      38.165  59.904  82.119  1.00  0.00     0.086 A 
HETATM    7  C9  UNL     1      37.006  59.947  81.399  1.00  0.00     0.044 A 
HETATM    8  N3  UNL     1      36.026  59.446  82.180  1.00  0.00    -0.263 N 
ATOM      9  H3  UNL     1      35.045  59.347  81.921  1.00  0.00     0.194 HD
HETATM   10  O2  UNL     1      36.556  59.111  83.327  1.00  0.00    -0.220 OA
ENDROOT
BRANCH   1  11
HETATM   11  C5  UNL     1      38.773  57.273  85.996  1.00  0.00     0.339 C 
BRANCH  11  12
HETATM   12  N1  UNL     1      38.060  56.161  85.459  1.00  0.00    -0.067 N 
HETATM   13  C3  UNL     1      38.283  54.974  86.256  1.00  0.00     0.272 C 
HETATM   14  C4  UNL     1      36.644  56.444  85.391  1.00  0.00     0.272 C 
BRANCH  12  15
HETATM   15  C2  UNL     1      38.562  55.854  84.108  1.00  0.00     0.232 C 
HETATM   16  C1  UNL     1      37.447  55.665  83.134  1.00  0.00     0.035 C 
ENDBRANCH  12  15
ENDBRANCH  11  12
ENDBRANCH   1  11
BRANCH   7  17
HETATM   17  C10 UNL     1      36.749  60.428  80.019  1.00  0.00    -0.007 C 
HETATM   18  C11 UNL     1      38.012  60.450  79.192  1.00  0.00     0.021 C 
HETATM   19  C12 UNL     1      35.768  59.452  79.385  1.00  0.00     0.021 C 
HETATM   20  C13 UNL     1      36.109  61.785  80.100  1.00  0.00     0.021 C 
ENDBRANCH   7  17
TORSDOF 4
ENDMDL
MODEL 5
REMARK VINA RESULT: -5.814466788      0.354      1.686
REMARK  4 active torsions:
REMARK  status: ('A' for Active; 'I' for Inactive)
REMARK    1  A    between atoms: C2_2  and  N1_3 
REMARK    2  A    between atoms: N1_3  and  C5_6 
REMARK    3  A    between atoms: C5_6  and  C6_7 
REMARK       I    between atoms: C6_7  and  N2_9 
REMARK    4  A    between atoms: C9_13  and  C10_14 
ROOT
HETATM    1  C6  UNL     1      38.307  58.628  85.607  1.00  0.00     0.249 C 
HETATM    2  O1  UNL     1      37.612  59.346  86.357  1.00  0.00    -0.271 OA
HETATM    3  N2  UNL     1      38.633  59.153  84.334  1.00  0.00    -0.304 N 
ATOM      4  H2  UNL     1      39.610  59.392  84.166  1.00  0.00     0.171 HD
HETATM    5  C7  UNL     1      37.806  59.353  83.373  1.00  0.00     0.174 A 
HETATM    6  C8  UNL     1      38.150  59.871  82.129  1.00  0.00     0.086 A 
HETATM    7  C9  UNL     1      36.984  59.918  81.419  1.00  0.00     0.044 A 
HETATM    8  N3  UNL     1      36.005  59.446  82.218  1.00  0.00    -0.263 N 
ATOM      9  H3  UNL     1      35.020  59.357  81.970  1.00  0.00     0.194 HD
HETATM   10  O2  UNL     1      36.540  59.124  83.366  1.00  0.00    -0.220 OA
ENDROOT
BRANCH   1  11
HETATM   11  C5  UNL     1      38.754  57.302  86.048  1.00  0.00     0.339 C 
BRANCH  11  12
HETATM   12  N1  UNL     1      38.065  56.188  85.484  1.00  0.00    -0.067 N 
HETATM   13  C3  UNL     1      38.297  54.991  86.263  1.00  0.00     0.272 C 
HETATM   14  C4  UNL     1      36.645  56.451  85.404  1.00  0.00     0.272 C 
BRANCH  12  15
HETATM   15  C2  UNL     1      38.588  55.912  84.134  1.00  0.00     0.232 C 
HETATM   16  C1  UNL     1      38.457  54.468  83.776  1.00  0.00     0.035 C 
ENDBRANCH  12  15
ENDBRANCH  11  12
ENDBRANCH   1  11
BRANCH   7  17
HETATM   17  C10 UNL     1      36.721  60.377  80.033  1.00  0.00    -0.007 C 
HETATM   18  C11 UNL     1      35.757  59.462  79.316  1.00  0.00     0.021 C 
HETATM   19  C12 UNL     1      36.096  61.761  80.135  1.00  0.00     0.021 C 
HETATM   20  C13 UNL     1      38.035  60.483  79.311  1.00  0.00     0.021 C 
ENDBRANCH   7  17
TORSDOF 4
ENDMDL
