MODEL 1
REMARK VINA RESULT: -5.622102617      0.000      0.000
REMARK  5 active torsions:
REMARK  status: ('A' for Active; 'I' for Inactive)
REMARK    1  A    between atoms: C4_5  and  C5_6 
REMARK    2  A    between atoms: C5_6  and  N1_7 
REMARK    3  A    between atoms: N2_11  and  C9_12 
REMARK    4  A    between atoms: C9_12  and  N3_14 
REMARK    5  A    between atoms: N3_14  and  C10_16 
ROOT
HETATM    1  C1  UNL     1      37.218  62.161  81.144  1.00  0.00     0.014 C 
HETATM    2  C2  UNL     1      36.698  60.950  81.872  1.00  0.00     0.023 C 
HETATM    3  C3  UNL     1      37.798  60.150  82.485  1.00  0.00     0.174 C 
HETATM    4  O1  UNL     1      37.573  58.850  82.757  1.00  0.00    -0.382 OA
HETATM    5  C4  UNL     1      37.217  58.531  84.053  1.00  0.00     0.167 C 
HETATM    6  C8  UNL     1      36.424  59.634  84.719  1.00  0.00     0.159 C 
HETATM    7  N2  UNL     1      35.519  60.276  83.797  1.00  0.00    -0.355 N 
HETATM    8  C13 UNL     1      35.821  61.473  83.021  1.00  0.00     0.131 C 
ENDROOT
BRANCH   7   9
HETATM    9  C9  UNL     1      34.243  59.725  83.596  1.00  0.00     0.170 C 
HETATM   10  S1  UNL     1      33.551  58.869  84.800  1.00  0.00    -0.041 SA
BRANCH   9  11
HETATM   11  N3  UNL     1      33.576  59.918  82.360  1.00  0.00    -0.363 N 
ATOM     12  H3  UNL     1      33.022  60.759  82.190  1.00  0.00     0.162 HD
BRANCH  11  13
HETATM   13  C10 UNL     1      33.702  58.886  81.341  1.00  0.00     0.075 C 
HETATM   14  C11 UNL     1      32.534  57.935  81.385  1.00  0.00     0.032 C 
HETATM   15  C12 UNL     1      33.749  59.594  79.986  1.00  0.00     0.032 C 
ENDBRANCH  11  13
ENDBRANCH   9  11
ENDBRANCH   7   9
BRANCH   5  16
HETATM   16  C5  UNL     1      38.497  58.377  84.852  1.00  0.00     0.304 C 
BRANCH  16  17
HETATM   17  N1  UNL     1      38.675  57.016  85.321  1.00  0.00     0.082 N 
HETATM   18  C6  UNL     1      38.475  57.057  86.772  1.00  0.00     0.309 C 
HETATM   19  C7  UNL     1      37.565  56.244  84.787  1.00  0.00     0.309 C 
ENDBRANCH  16  17
ENDBRANCH   5  16
TORSDOF 5
ENDMDL
MODEL 2
REMARK VINA RESULT: -5.578591129      2.623      3.638
REMARK  5 active torsions:
REMARK  status: ('A' for Active; 'I' for Inactive)
REMARK    1  A    between atoms: C4_5  and  C5_6 
REMARK    2  A    between atoms: C5_6  and  N1_7 
REMARK    3  A    between atoms: N2_11  and  C9_12 
REMARK    4  A    between atoms: C9_12  and  N3_14 
REMARK    5  A    between atoms: N3_14  and  C10_16 
ROOT
HETATM    1  C1  UNL     1      33.682  61.047  83.758  1.00  0.00     0.014 C 
HETATM    2  C2  UNL     1      35.137  60.880  83.408  1.00  0.00     0.023 C 
HETATM    3  C3  UNL     1      35.816  59.888  84.292  1.00  0.00     0.174 C 
HETATM    4  O1  UNL     1      37.154  59.956  84.426  1.00  0.00    -0.382 OA
HETATM    5  C4  UNL     1      37.909  59.109  83.640  1.00  0.00     0.167 C 
HETATM    6  C8  UNL     1      37.255  58.829  82.304  1.00  0.00     0.159 C 
HETATM    7  N2  UNL     1      36.589  59.996  81.778  1.00  0.00    -0.355 N 
HETATM    8  C13 UNL     1      35.182  60.321  81.977  1.00  0.00     0.131 C 
ENDROOT
BRANCH   7   9
HETATM    9  C9  UNL     1      37.327  60.921  81.021  1.00  0.00     0.170 C 
HETATM   10  S1  UNL     1      37.373  62.479  81.499  1.00  0.00    -0.041 SA
BRANCH   9  11
HETATM   11  N3  UNL     1      38.019  60.492  79.861  1.00  0.00    -0.363 N 
ATOM     12  H3  UNL     1      39.006  60.236  79.905  1.00  0.00     0.162 HD
BRANCH  11  13
HETATM   13  C10 UNL     1      37.284  60.428  78.605  1.00  0.00     0.075 C 
HETATM   14  C11 UNL     1      38.133  60.904  77.455  1.00  0.00     0.032 C 
HETATM   15  C12 UNL     1      36.886  58.968  78.391  1.00  0.00     0.032 C 
ENDBRANCH  11  13
ENDBRANCH   9  11
ENDBRANCH   7   9
BRANCH   5  16
HETATM   16  C5  UNL     1      38.001  57.779  84.362  1.00  0.00     0.304 C 
BRANCH  16  17
HETATM   17  N1  UNL     1      38.389  57.948  85.749  1.00  0.00     0.082 N 
HETATM   18  C6  UNL     1      37.995  56.714  86.435  1.00  0.00     0.309 C 
HETATM   19  C7  UNL     1      39.842  57.971  85.774  1.00  0.00     0.309 C 
ENDBRANCH  16  17
ENDBRANCH   5  16
TORSDOF 5
ENDMDL
MODEL 3
REMARK VINA RESULT: -5.473712137      2.160      3.762
REMARK  5 active torsions:
REMARK  status: ('A' for Active; 'I' for Inactive)
REMARK    1  A    between atoms: C4_5  and  C5_6 
REMARK    2  A    between atoms: C5_6  and  N1_7 
REMARK    3  A    between atoms: N2_11  and  C9_12 
REMARK    4  A    between atoms: C9_12  and  N3_14 
REMARK    5  A    between atoms: N3_14  and  C10_16 
ROOT
HETATM    1  C1  UNL     1      32.659  57.750  82.421  1.00  0.00     0.014 C 
HETATM    2  C2  UNL     1      33.922  58.430  82.883  1.00  0.00     0.023 C 
HETATM    3  C3  UNL     1      34.537  57.736  84.051  1.00  0.00     0.174 C 
HETATM    4  O1  UNL     1      35.366  58.434  84.850  1.00  0.00    -0.382 OA
HETATM    5  C4  UNL     1      36.721  58.301  84.622  1.00  0.00     0.167 C 
HETATM    6  C8  UNL     1      37.036  58.060  83.162  1.00  0.00     0.159 C 
HETATM    7  N2  UNL     1      36.169  58.821  82.294  1.00  0.00    -0.355 N 
HETATM    8  C13 UNL     1      34.921  58.333  81.719  1.00  0.00     0.131 C 
ENDROOT
BRANCH   7   9
HETATM    9  C9  UNL     1      36.516  60.142  81.967  1.00  0.00     0.170 C 
HETATM   10  S1  UNL     1      35.590  61.364  82.523  1.00  0.00    -0.041 SA
BRANCH   9  11
HETATM   11  N3  UNL     1      37.658  60.396  81.168  1.00  0.00    -0.363 N 
ATOM     12  H3  UNL     1      38.384  61.040  81.481  1.00  0.00     0.162 HD
BRANCH  11  13
HETATM   13  C10 UNL     1      37.767  59.711  79.886  1.00  0.00     0.075 C 
HETATM   14  C11 UNL     1      37.912  60.696  78.756  1.00  0.00     0.032 C 
HETATM   15  C12 UNL     1      39.003  58.814  79.959  1.00  0.00     0.032 C 
ENDBRANCH  11  13
ENDBRANCH   9  11
ENDBRANCH   7   9
BRANCH   5  16
HETATM   16  C5  UNL     1      37.191  57.069  85.373  1.00  0.00     0.304 C 
BRANCH  16  17
HETATM   17  N1  UNL     1      38.044  57.417  86.492  1.00  0.00     0.082 N 
HETATM   18  C6  UNL     1      38.327  56.162  87.193  1.00  0.00     0.309 C 
HETATM   19  C7  UNL     1      39.311  57.853  85.928  1.00  0.00     0.309 C 
ENDBRANCH  16  17
ENDBRANCH   5  16
TORSDOF 5
ENDMDL
MODEL 4
REMARK VINA RESULT: -5.470769761      2.908      4.231
REMARK  5 active torsions:
REMARK  status: ('A' for Active; 'I' for Inactive)
REMARK    1  A    between atoms: C4_5  and  C5_6 
REMARK    2  A    between atoms: C5_6  and  N1_7 
REMARK    3  A    between atoms: N2_11  and  C9_12 
REMARK    4  A    between atoms: C9_12  and  N3_14 
REMARK    5  A    between atoms: N3_14  and  C10_16 
ROOT
HETATM    1  C1  UNL     1      32.535  58.016  81.203  1.00  0.00     0.014 C 
HETATM    2  C2  UNL     1      33.824  58.777  81.371  1.00  0.00     0.023 C 
HETATM    3  C3  UNL     1      34.542  58.395  82.622  1.00  0.00     0.174 C 
HETATM    4  O1  UNL     1      35.426  59.264  83.146  1.00  0.00    -0.382 OA
HETATM    5  C4  UNL     1      36.759  59.064  82.847  1.00  0.00     0.167 C 
HETATM    6  C8  UNL     1      36.955  58.458  81.474  1.00  0.00     0.159 C 
HETATM    7  N2  UNL     1      36.010  58.983  80.518  1.00  0.00    -0.355 N 
HETATM    8  C13 UNL     1      34.724  58.378  80.190  1.00  0.00     0.131 C 
ENDROOT
BRANCH   7   9
HETATM    9  C9  UNL     1      36.314  60.174  79.839  1.00  0.00     0.170 C 
HETATM   10  S1  UNL     1      36.182  61.593  80.632  1.00  0.00    -0.041 SA
BRANCH   9  11
HETATM   11  N3  UNL     1      36.731  60.130  78.486  1.00  0.00    -0.363 N 
ATOM     12  H3  UNL     1      36.048  60.061  77.730  1.00  0.00     0.162 HD
BRANCH  11  13
HETATM   13  C10 UNL     1      38.158  60.186  78.202  1.00  0.00     0.075 C 
HETATM   14  C11 UNL     1      38.733  58.804  78.037  1.00  0.00     0.032 C 
HETATM   15  C12 UNL     1      38.329  60.982  76.907  1.00  0.00     0.032 C 
ENDBRANCH  11  13
ENDBRANCH   9  11
ENDBRANCH   7   9
BRANCH   5  16
HETATM   16  C5  UNL     1      37.303  58.058  83.843  1.00  0.00     0.304 C 
BRANCH  16  17
HETATM   17  N1  UNL     1      38.252  58.666  84.755  1.00  0.00     0.082 N 
HETATM   18  C6  UNL     1      37.471  59.135  85.903  1.00  0.00     0.309 C 
HETATM   19  C7  UNL     1      39.093  57.591  85.257  1.00  0.00     0.309 C 
ENDBRANCH  16  17
ENDBRANCH   5  16
TORSDOF 5
ENDMDL
MODEL 5
REMARK VINA RESULT: -5.410622760      2.222      3.196
REMARK  5 active torsions:
REMARK  status: ('A' for Active; 'I' for Inactive)
REMARK    1  A    between atoms: C4_5  and  C5_6 
REMARK    2  A    between atoms: C5_6  and  N1_7 
REMARK    3  A    between atoms: N2_11  and  C9_12 
REMARK    4  A    between atoms: C9_12  and  N3_14 
REMARK    5  A    between atoms: N3_14  and  C10_16 
ROOT
HETATM    1  C1  UNL     1      33.732  61.479  83.538  1.00  0.00     0.014 C 
HETATM    2  C2  UNL     1      34.950  60.660  83.200  1.00  0.00     0.023 C 
HETATM    3  C3  UNL     1      35.690  60.227  84.420  1.00  0.00     0.174 C 
HETATM    4  O1  UNL     1      36.992  59.906  84.303  1.00  0.00    -0.382 OA
HETATM    5  C4  UNL     1      37.302  58.566  84.179  1.00  0.00     0.167 C 
HETATM    6  C8  UNL     1      36.222  57.791  83.455  1.00  0.00     0.159 C 
HETATM    7  N2  UNL     1      35.637  58.561  82.383  1.00  0.00    -0.355 N 
HETATM    8  C13 UNL     1      34.444  59.390  82.499  1.00  0.00     0.131 C 
ENDROOT
BRANCH   7   9
HETATM    9  C9  UNL     1      36.247  58.543  81.118  1.00  0.00     0.170 C 
HETATM   10  S1  UNL     1      35.965  57.285  80.120  1.00  0.00    -0.041 SA
BRANCH   9  11
HETATM   11  N3  UNL     1      37.092  59.611  80.726  1.00  0.00    -0.363 N 
ATOM     12  H3  UNL     1      37.966  59.796  81.220  1.00  0.00     0.162 HD
BRANCH  11  13
HETATM   13  C10 UNL     1      36.680  60.437  79.599  1.00  0.00     0.075 C 
HETATM   14  C11 UNL     1      36.211  61.791  80.062  1.00  0.00     0.032 C 
HETATM   15  C12 UNL     1      37.895  60.589  78.684  1.00  0.00     0.032 C 
ENDBRANCH  11  13
ENDBRANCH   9  11
ENDBRANCH   7   9
BRANCH   5  16
HETATM   16  C5  UNL     1      37.385  57.986  85.577  1.00  0.00     0.304 C 
BRANCH  16  17
HETATM   17  N1  UNL     1      38.506  57.077  85.715  1.00  0.00     0.082 N 
HETATM   18  C6  UNL     1      39.701  57.918  85.828  1.00  0.00     0.309 C 
HETATM   19  C7  UNL     1      38.355  56.423  87.004  1.00  0.00     0.309 C 
ENDBRANCH  16  17
ENDBRANCH   5  16
TORSDOF 5
ENDMDL
