MODEL 1
REMARK VINA RESULT: -8.358921266      0.000      0.000
REMARK  9 active torsions:
REMARK  status: ('A' for Active; 'I' for Inactive)
REMARK    1  A    between atoms: C5_7  and  C6_8 
REMARK    2  A    between atoms: C6_8  and  C7_9 
REMARK    3  A    between atoms: C7_9  and  C8_10 
REMARK       I    between atoms: C8_10  and  N2_12 
REMARK    4  A    between atoms: N2_12  and  C9_14 
REMARK    5  A    between atoms: N4_24  and  C15_25 
REMARK    6  A    between atoms: C15_25  and  C16_26 
REMARK    7  A    between atoms: C16_26  and  C17_27 
REMARK    8  A    between atoms: C17_27  and  C18_28 
REMARK    9  A    between atoms: C18_28  and  C19_29 
ROOT
HETATM    1  C9  UNL     1      13.546  18.413  31.120  1.00  0.00     0.200 C 
HETATM    2  C10 UNL     1      13.429  16.904  31.087  1.00  0.00     0.248 C 
HETATM    3  O2  UNL     1      12.600  16.128  30.593  1.00  0.00    -0.271 OA
HETATM    4  N3  UNL     1      14.637  16.928  31.838  1.00  0.00    -0.298 N 
HETATM    5  C11 UNL     1      15.014  18.053  31.063  1.00  0.00     0.132 C 
HETATM    6  C12 UNL     1      15.876  18.969  31.852  1.00  0.00     0.106 C 
HETATM    7  S1  UNL     1      16.855  17.740  32.805  1.00  0.00    -0.103 SA
HETATM    8  C13 UNL     1      15.530  16.471  32.823  1.00  0.00     0.248 A 
HETATM    9  C14 UNL     1      15.186  15.927  34.081  1.00  0.00     0.284 A 
HETATM   10  O3  UNL     1      14.682  15.972  35.231  1.00  0.00    -0.267 OA
HETATM   11  N4  UNL     1      15.905  15.146  33.035  1.00  0.00    -0.304 N 
ENDROOT
BRANCH   1  12
HETATM   12  N2  UNL     1      13.012  19.060  29.965  1.00  0.00    -0.346 N 
HETATM   13  C8  UNL     1      12.741  20.445  30.020  1.00  0.00     0.218 C 
HETATM   14  O1  UNL     1      12.977  21.067  31.081  1.00  0.00    -0.274 OA
ATOM     15  H2  UNL     1      12.828  18.529  29.114  1.00  0.00     0.163 HD
BRANCH  13  16
HETATM   16  C7  UNL     1      12.186  21.200  28.869  1.00  0.00     0.109 C 
BRANCH  16  17
HETATM   17  C6  UNL     1      10.882  20.597  28.391  1.00  0.00     0.068 C 
BRANCH  17  18
HETATM   18  C5  UNL     1       9.816  20.729  29.400  1.00  0.00     0.033 A 
HETATM   19  C3  UNL     1       9.210  19.711  30.072  1.00  0.00     0.029 A 
HETATM   20  N1  UNL     1       8.304  20.276  30.889  1.00  0.00    -0.348 N 
HETATM   21  C4  UNL     1       9.440  18.241  29.984  1.00  0.00     0.070 C 
HETATM   22  C2  UNL     1       8.327  21.606  30.745  1.00  0.00     0.077 A 
ATOM     23  H1  UNL     1       7.690  19.766  31.524  1.00  0.00     0.167 HD
HETATM   24  C1  UNL     1       7.467  22.573  31.480  1.00  0.00     0.089 C 
HETATM   25  N7  UNL     1       9.264  21.878  29.824  1.00  0.00    -0.348 N 
ATOM     26  H7  UNL     1       9.516  22.811  29.496  1.00  0.00     0.167 HD
ENDBRANCH  17  18
ENDBRANCH  16  17
ENDBRANCH  13  16
ENDBRANCH   1  12
BRANCH  11  27
HETATM   27  C15 UNL     1      16.459  13.849  32.797  1.00  0.00     0.130 C 
BRANCH  27  28
HETATM   28  C16 UNL     1      16.740  13.646  31.323  1.00  0.00     0.020 C 
BRANCH  28  29
HETATM   29  C17 UNL     1      17.873  14.468  30.812  1.00  0.00     0.009 C 
BRANCH  29  30
HETATM   30  C18 UNL     1      17.355  15.458  29.800  1.00  0.00     0.072 C 
BRANCH  30  31
HETATM   31  C19 UNL     1      18.479  16.346  29.441  1.00  0.00     0.086 C 
HETATM   32  N5  UNL     1      18.383  17.119  28.428  1.00  0.00    -0.391 N 
ATOM     33  H52 UNL     1      17.540  17.139  27.854  1.00  0.00     0.157 HD
ATOM     34  H51 UNL     1      19.159  17.733  28.180  1.00  0.00     0.157 HD
HETATM   35  N6  UNL     1      19.648  16.318  30.237  1.00  0.00    -0.088 NA
ENDBRANCH  30  31
ENDBRANCH  29  30
ENDBRANCH  28  29
ENDBRANCH  27  28
ENDBRANCH  11  27
TORSDOF 9
ENDMDL
MODEL 2
REMARK VINA RESULT: -8.336815714      2.283      8.399
REMARK  9 active torsions:
REMARK  status: ('A' for Active; 'I' for Inactive)
REMARK    1  A    between atoms: C5_7  and  C6_8 
REMARK    2  A    between atoms: C6_8  and  C7_9 
REMARK    3  A    between atoms: C7_9  and  C8_10 
REMARK       I    between atoms: C8_10  and  N2_12 
REMARK    4  A    between atoms: N2_12  and  C9_14 
REMARK    5  A    between atoms: N4_24  and  C15_25 
REMARK    6  A    between atoms: C15_25  and  C16_26 
REMARK    7  A    between atoms: C16_26  and  C17_27 
REMARK    8  A    between atoms: C17_27  and  C18_28 
REMARK    9  A    between atoms: C18_28  and  C19_29 
ROOT
HETATM    1  C9  UNL     1      16.245  18.189  30.394  1.00  0.00     0.200 C 
HETATM    2  C10 UNL     1      14.953  17.439  30.150  1.00  0.00     0.248 C 
HETATM    3  O2  UNL     1      14.695  16.252  29.908  1.00  0.00    -0.271 OA
HETATM    4  N3  UNL     1      14.337  18.707  30.337  1.00  0.00    -0.298 N 
HETATM    5  C11 UNL     1      15.330  18.967  31.313  1.00  0.00     0.132 C 
HETATM    6  C12 UNL     1      15.646  20.417  31.369  1.00  0.00     0.106 C 
HETATM    7  S1  UNL     1      13.968  21.116  31.095  1.00  0.00    -0.103 SA
HETATM    8  C13 UNL     1      13.378  19.704  30.084  1.00  0.00     0.248 A 
HETATM    9  C14 UNL     1      12.800  20.014  28.832  1.00  0.00     0.284 A 
HETATM   10  O3  UNL     1      12.833  20.407  27.640  1.00  0.00    -0.267 OA
HETATM   11  N4  UNL     1      12.002  19.507  29.985  1.00  0.00    -0.304 N 
ENDROOT
BRANCH   1  12
HETATM   12  N2  UNL     1      17.257  17.408  31.027  1.00  0.00    -0.346 N 
HETATM   13  C8  UNL     1      18.344  16.940  30.256  1.00  0.00     0.218 C 
HETATM   14  O1  UNL     1      18.388  17.224  29.037  1.00  0.00    -0.274 OA
ATOM     15  H2  UNL     1      17.197  17.190  32.022  1.00  0.00     0.163 HD
BRANCH  13  16
HETATM   16  C7  UNL     1      19.442  16.123  30.828  1.00  0.00     0.109 C 
BRANCH  16  17
HETATM   17  C6  UNL     1      19.047  14.665  30.936  1.00  0.00     0.068 C 
BRANCH  17  18
HETATM   18  C5  UNL     1      18.026  14.450  31.977  1.00  0.00     0.033 A 
HETATM   19  C3  UNL     1      16.796  13.894  31.798  1.00  0.00     0.029 A 
HETATM   20  N1  UNL     1      16.198  13.892  33.002  1.00  0.00    -0.348 N 
HETATM   21  C4  UNL     1      16.158  13.367  30.558  1.00  0.00     0.070 C 
HETATM   22  C2  UNL     1      17.012  14.428  33.918  1.00  0.00     0.077 A 
ATOM     23  H1  UNL     1      15.261  13.534  33.190  1.00  0.00     0.167 HD
HETATM   24  C1  UNL     1      16.701  14.598  35.363  1.00  0.00     0.089 C 
HETATM   25  N7  UNL     1      18.140  14.770  33.277  1.00  0.00    -0.348 N 
ATOM     26  H7  UNL     1      18.956  15.206  33.708  1.00  0.00     0.167 HD
ENDBRANCH  17  18
ENDBRANCH  16  17
ENDBRANCH  13  16
ENDBRANCH   1  12
BRANCH  11  27
HETATM   27  C15 UNL     1      10.661  19.165  30.349  1.00  0.00     0.130 C 
BRANCH  27  28
HETATM   28  C16 UNL     1      10.038  20.257  31.191  1.00  0.00     0.020 C 
BRANCH  28  29
HETATM   29  C17 UNL     1       9.148  21.172  30.420  1.00  0.00     0.009 C 
BRANCH  29  30
HETATM   30  C18 UNL     1       8.695  20.480  29.159  1.00  0.00     0.072 C 
BRANCH  30  31
HETATM   31  C19 UNL     1       9.196  21.275  28.020  1.00  0.00     0.086 C 
HETATM   32  N5  UNL     1      10.088  22.170  28.210  1.00  0.00    -0.391 N 
ATOM     33  H52 UNL     1      10.468  22.350  29.139  1.00  0.00     0.157 HD
ATOM     34  H51 UNL     1      10.434  22.719  27.424  1.00  0.00     0.157 HD
HETATM   35  N6  UNL     1       8.667  21.025  26.732  1.00  0.00    -0.088 NA
ENDBRANCH  30  31
ENDBRANCH  29  30
ENDBRANCH  28  29
ENDBRANCH  27  28
ENDBRANCH  11  27
TORSDOF 9
ENDMDL
MODEL 3
REMARK VINA RESULT: -8.331086165      2.258      8.415
REMARK  9 active torsions:
REMARK  status: ('A' for Active; 'I' for Inactive)
REMARK    1  A    between atoms: C5_7  and  C6_8 
REMARK    2  A    between atoms: C6_8  and  C7_9 
REMARK    3  A    between atoms: C7_9  and  C8_10 
REMARK       I    between atoms: C8_10  and  N2_12 
REMARK    4  A    between atoms: N2_12  and  C9_14 
REMARK    5  A    between atoms: N4_24  and  C15_25 
REMARK    6  A    between atoms: C15_25  and  C16_26 
REMARK    7  A    between atoms: C16_26  and  C17_27 
REMARK    8  A    between atoms: C17_27  and  C18_28 
REMARK    9  A    between atoms: C18_28  and  C19_29 
ROOT
HETATM    1  C9  UNL     1      16.010  17.879  30.426  1.00  0.00     0.200 C 
HETATM    2  C10 UNL     1      14.623  17.423  30.025  1.00  0.00     0.248 C 
HETATM    3  O2  UNL     1      14.137  16.314  29.768  1.00  0.00    -0.271 OA
HETATM    4  N3  UNL     1      14.289  18.803  30.111  1.00  0.00    -0.298 N 
HETATM    5  C11 UNL     1      15.185  18.879  31.206  1.00  0.00     0.132 C 
HETATM    6  C12 UNL     1      15.810  20.224  31.282  1.00  0.00     0.106 C 
HETATM    7  S1  UNL     1      14.380  21.264  30.780  1.00  0.00    -0.103 SA
HETATM    8  C13 UNL     1      13.619  19.975  29.720  1.00  0.00     0.248 A 
HETATM    9  C14 UNL     1      13.285  20.351  28.399  1.00  0.00     0.284 A 
HETATM   10  O3  UNL     1      13.555  20.675  27.216  1.00  0.00    -0.267 OA
HETATM   11  N4  UNL     1      12.257  20.083  29.444  1.00  0.00    -0.304 N 
ENDROOT
BRANCH   1  12
HETATM   12  N2  UNL     1      16.733  16.921  31.197  1.00  0.00    -0.346 N 
HETATM   13  C8  UNL     1      17.490  15.934  30.528  1.00  0.00     0.218 C 
HETATM   14  O1  UNL     1      17.502  15.926  29.276  1.00  0.00    -0.274 OA
ATOM     15  H2  UNL     1      16.705  16.950  32.217  1.00  0.00     0.163 HD
BRANCH  13  16
HETATM   16  C7  UNL     1      18.273  14.899  31.247  1.00  0.00     0.109 C 
BRANCH  16  17
HETATM   17  C6  UNL     1      17.472  13.627  31.430  1.00  0.00     0.068 C 
BRANCH  17  18
HETATM   18  C5  UNL     1      16.237  13.864  32.199  1.00  0.00     0.033 A 
HETATM   19  C3  UNL     1      16.151  14.082  33.540  1.00  0.00     0.029 A 
HETATM   20  N1  UNL     1      14.846  14.248  33.818  1.00  0.00    -0.348 N 
HETATM   21  C4  UNL     1      17.229  14.141  34.567  1.00  0.00     0.070 C 
HETATM   22  C2  UNL     1      14.122  14.139  32.698  1.00  0.00     0.077 A 
ATOM     23  H1  UNL     1      14.464  14.431  34.746  1.00  0.00     0.167 HD
HETATM   24  C1  UNL     1      12.643  14.262  32.606  1.00  0.00     0.089 C 
HETATM   25  N7  UNL     1      14.989  13.901  31.702  1.00  0.00    -0.348 N 
ATOM     26  H7  UNL     1      14.739  13.770  30.721  1.00  0.00     0.167 HD
ENDBRANCH  17  18
ENDBRANCH  16  17
ENDBRANCH  13  16
ENDBRANCH   1  12
BRANCH  11  27
HETATM   27  C15 UNL     1      10.839  20.062  29.633  1.00  0.00     0.130 C 
BRANCH  27  28
HETATM   28  C16 UNL     1      10.494  19.956  31.103  1.00  0.00     0.020 C 
BRANCH  28  29
HETATM   29  C17 UNL     1       9.315  20.777  31.501  1.00  0.00     0.009 C 
BRANCH  29  30
HETATM   30  C18 UNL     1       8.814  21.543  30.302  1.00  0.00     0.072 C 
BRANCH  30  31
HETATM   31  C19 UNL     1       7.536  22.174  30.689  1.00  0.00     0.086 C 
HETATM   32  N5  UNL     1       6.777  22.678  29.793  1.00  0.00    -0.391 N 
ATOM     33  H52 UNL     1       7.033  22.655  28.806  1.00  0.00     0.157 HD
ATOM     34  H51 UNL     1       5.895  23.114  30.059  1.00  0.00     0.157 HD
HETATM   35  N6  UNL     1       7.181  22.207  32.058  1.00  0.00    -0.088 NA
ENDBRANCH  30  31
ENDBRANCH  29  30
ENDBRANCH  28  29
ENDBRANCH  27  28
ENDBRANCH  11  27
TORSDOF 9
ENDMDL
MODEL 4
REMARK VINA RESULT: -8.321935099      2.801      8.210
REMARK  9 active torsions:
REMARK  status: ('A' for Active; 'I' for Inactive)
REMARK    1  A    between atoms: C5_7  and  C6_8 
REMARK    2  A    between atoms: C6_8  and  C7_9 
REMARK    3  A    between atoms: C7_9  and  C8_10 
REMARK       I    between atoms: C8_10  and  N2_12 
REMARK    4  A    between atoms: N2_12  and  C9_14 
REMARK    5  A    between atoms: N4_24  and  C15_25 
REMARK    6  A    between atoms: C15_25  and  C16_26 
REMARK    7  A    between atoms: C16_26  and  C17_27 
REMARK    8  A    between atoms: C17_27  and  C18_28 
REMARK    9  A    between atoms: C18_28  and  C19_29 
ROOT
HETATM    1  C9  UNL     1      16.128  17.921  32.453  1.00  0.00     0.200 C 
HETATM    2  C10 UNL     1      16.676  18.401  31.127  1.00  0.00     0.248 C 
HETATM    3  O2  UNL     1      17.659  18.075  30.448  1.00  0.00    -0.271 OA
HETATM    4  N3  UNL     1      15.567  19.292  31.142  1.00  0.00    -0.298 N 
HETATM    5  C11 UNL     1      14.828  18.249  31.753  1.00  0.00     0.132 C 
HETATM    6  C12 UNL     1      13.792  18.801  32.663  1.00  0.00     0.106 C 
HETATM    7  S1  UNL     1      13.280  20.278  31.697  1.00  0.00    -0.103 SA
HETATM    8  C13 UNL     1      14.915  20.513  30.898  1.00  0.00     0.248 A 
HETATM    9  C14 UNL     1      15.486  21.802  30.982  1.00  0.00     0.284 A 
HETATM   10  O3  UNL     1      16.032  22.757  31.588  1.00  0.00    -0.267 OA
HETATM   11  N4  UNL     1      14.957  21.237  29.708  1.00  0.00    -0.304 N 
ENDROOT
BRANCH   1  12
HETATM   12  N2  UNL     1      16.372  16.539  32.714  1.00  0.00    -0.346 N 
HETATM   13  C8  UNL     1      17.548  16.170  33.403  1.00  0.00     0.218 C 
HETATM   14  O1  UNL     1      18.346  17.066  33.764  1.00  0.00    -0.274 OA
ATOM     15  H2  UNL     1      15.706  15.830  32.409  1.00  0.00     0.163 HD
BRANCH  13  16
HETATM   16  C7  UNL     1      17.884  14.760  33.718  1.00  0.00     0.109 C 
BRANCH  16  17
HETATM   17  C6  UNL     1      16.738  13.830  33.378  1.00  0.00     0.068 C 
BRANCH  17  18
HETATM   18  C5  UNL     1      15.697  13.841  34.421  1.00  0.00     0.033 A 
HETATM   19  C3  UNL     1      14.357  13.980  34.223  1.00  0.00     0.029 A 
HETATM   20  N1  UNL     1      13.783  13.934  35.438  1.00  0.00    -0.348 N 
HETATM   21  C4  UNL     1      13.594  14.155  32.955  1.00  0.00     0.070 C 
HETATM   22  C2  UNL     1      14.719  13.773  36.380  1.00  0.00     0.077 A 
ATOM     23  H1  UNL     1      12.781  14.011  35.616  1.00  0.00     0.167 HD
HETATM   24  C1  UNL     1      14.470  13.678  37.843  1.00  0.00     0.089 C 
HETATM   25  N7  UNL     1      15.899  13.716  35.744  1.00  0.00    -0.348 N 
ATOM     26  H7  UNL     1      16.807  13.597  36.194  1.00  0.00     0.167 HD
ENDBRANCH  17  18
ENDBRANCH  16  17
ENDBRANCH  13  16
ENDBRANCH   1  12
BRANCH  11  27
HETATM   27  C15 UNL     1      14.788  21.569  28.327  1.00  0.00     0.130 C 
BRANCH  27  28
HETATM   28  C16 UNL     1      13.519  20.954  27.777  1.00  0.00     0.020 C 
BRANCH  28  29
HETATM   29  C17 UNL     1      12.281  21.680  28.178  1.00  0.00     0.009 C 
BRANCH  29  30
HETATM   30  C18 UNL     1      11.191  20.680  28.474  1.00  0.00     0.072 C 
BRANCH  30  31
HETATM   31  C19 UNL     1       9.910  21.415  28.466  1.00  0.00     0.086 C 
HETATM   32  N5  UNL     1       9.564  22.104  29.484  1.00  0.00    -0.391 N 
ATOM     33  H52 UNL     1      10.157  22.163  30.312  1.00  0.00     0.157 HD
ATOM     34  H51 UNL     1       8.679  22.612  29.479  1.00  0.00     0.157 HD
HETATM   35  N6  UNL     1       9.087  21.334  27.318  1.00  0.00    -0.088 NA
ENDBRANCH  30  31
ENDBRANCH  29  30
ENDBRANCH  28  29
ENDBRANCH  27  28
ENDBRANCH  11  27
TORSDOF 9
ENDMDL
MODEL 5
REMARK VINA RESULT: -8.267046698      2.342      3.782
REMARK  9 active torsions:
REMARK  status: ('A' for Active; 'I' for Inactive)
REMARK    1  A    between atoms: C5_7  and  C6_8 
REMARK    2  A    between atoms: C6_8  and  C7_9 
REMARK    3  A    between atoms: C7_9  and  C8_10 
REMARK       I    between atoms: C8_10  and  N2_12 
REMARK    4  A    between atoms: N2_12  and  C9_14 
REMARK    5  A    between atoms: N4_24  and  C15_25 
REMARK    6  A    between atoms: C15_25  and  C16_26 
REMARK    7  A    between atoms: C16_26  and  C17_27 
REMARK    8  A    between atoms: C17_27  and  C18_28 
REMARK    9  A    between atoms: C18_28  and  C19_29 
ROOT
HETATM    1  C9  UNL     1      15.562  18.284  30.891  1.00  0.00     0.200 C 
HETATM    2  C10 UNL     1      16.503  18.090  32.061  1.00  0.00     0.248 C 
HETATM    3  O2  UNL     1      16.837  18.813  33.009  1.00  0.00    -0.271 OA
HETATM    4  N3  UNL     1      16.724  16.803  31.498  1.00  0.00    -0.298 N 
HETATM    5  C11 UNL     1      15.355  16.805  31.133  1.00  0.00     0.132 C 
HETATM    6  C12 UNL     1      15.142  16.029  29.885  1.00  0.00     0.106 C 
HETATM    7  S1  UNL     1      16.348  14.669  30.150  1.00  0.00    -0.103 SA
HETATM    8  C13 UNL     1      17.498  15.679  31.160  1.00  0.00     0.248 A 
HETATM    9  C14 UNL     1      18.856  15.682  30.769  1.00  0.00     0.284 A 
HETATM   10  O3  UNL     1      19.811  15.979  30.010  1.00  0.00    -0.267 OA
HETATM   11  N4  UNL     1      18.377  15.008  32.009  1.00  0.00    -0.304 N 
ENDROOT
BRANCH   1  12
HETATM   12  N2  UNL     1      14.449  19.131  31.178  1.00  0.00    -0.346 N 
HETATM   13  C8  UNL     1      13.613  19.545  30.118  1.00  0.00     0.218 C 
HETATM   14  O1  UNL     1      13.872  19.159  28.956  1.00  0.00    -0.274 OA
ATOM     15  H2  UNL     1      14.261  19.432  32.135  1.00  0.00     0.163 HD
BRANCH  13  16
HETATM   16  C7  UNL     1      12.435  20.424  30.323  1.00  0.00     0.109 C 
BRANCH  16  17
HETATM   17  C6  UNL     1      11.146  19.630  30.316  1.00  0.00     0.068 C 
BRANCH  17  18
HETATM   18  C5  UNL     1       9.964  20.504  30.420  1.00  0.00     0.033 A 
HETATM   19  C3  UNL     1       9.402  21.225  29.411  1.00  0.00     0.029 A 
HETATM   20  N1  UNL     1       8.353  21.876  29.943  1.00  0.00    -0.348 N 
HETATM   21  C4  UNL     1       9.801  21.332  27.979  1.00  0.00     0.070 C 
HETATM   22  C2  UNL     1       8.247  21.585  31.244  1.00  0.00     0.077 A 
ATOM     23  H1  UNL     1       7.729  22.500  29.430  1.00  0.00     0.167 HD
HETATM   24  C1  UNL     1       7.210  22.115  32.170  1.00  0.00     0.089 C 
HETATM   25  N7  UNL     1       9.246  20.737  31.532  1.00  0.00    -0.348 N 
ATOM     26  H7  UNL     1       9.431  20.333  32.450  1.00  0.00     0.167 HD
ENDBRANCH  17  18
ENDBRANCH  16  17
ENDBRANCH  13  16
ENDBRANCH   1  12
BRANCH  11  27
HETATM   27  C15 UNL     1      18.857  14.246  33.121  1.00  0.00     0.130 C 
BRANCH  27  28
HETATM   28  C16 UNL     1      18.076  14.575  34.375  1.00  0.00     0.020 C 
BRANCH  28  29
HETATM   29  C17 UNL     1      16.771  13.860  34.470  1.00  0.00     0.009 C 
BRANCH  29  30
HETATM   30  C18 UNL     1      15.861  14.609  35.411  1.00  0.00     0.072 C 
BRANCH  30  31
HETATM   31  C19 UNL     1      14.845  15.293  34.585  1.00  0.00     0.086 C 
HETATM   32  N5  UNL     1      14.218  14.644  33.680  1.00  0.00    -0.391 N 
ATOM     33  H52 UNL     1      14.401  13.655  33.512  1.00  0.00     0.157 HD
ATOM     34  H51 UNL     1      13.516  15.116  33.109  1.00  0.00     0.157 HD
HETATM   35  N6  UNL     1      14.591  16.665  34.817  1.00  0.00    -0.088 NA
ENDBRANCH  30  31
ENDBRANCH  29  30
ENDBRANCH  28  29
ENDBRANCH  27  28
ENDBRANCH  11  27
TORSDOF 9
ENDMDL
