MODEL 1
REMARK VINA RESULT: -7.103231006      0.000      0.000
REMARK  13 active torsions:
REMARK  status: ('A' for Active; 'I' for Inactive)
REMARK    1  A    between atoms: C2_2  and  N1_3 
REMARK    2  A    between atoms: N1_3  and  C3_5 
REMARK    3  A    between atoms: C3_5  and  N2_7 
REMARK    4  A    between atoms: N2_7  and  C4_8 
REMARK    5  A    between atoms: N2_7  and  C15_27 
REMARK    6  A    between atoms: C4_8  and  C5_9 
REMARK    7  A    between atoms: C5_9  and  N3_10 
REMARK    8  A    between atoms: N3_10  and  C6_12 
REMARK    9  A    between atoms: C9_19  and  O1_20 
REMARK   10  A    between atoms: C11_22  and  O2_23 
REMARK   11  A    between atoms: C15_27  and  C16_28 
REMARK   12  A    between atoms: C16_28  and  S2_29 
REMARK   13  A    between atoms: S2_29  and  N6_30 
ROOT
HETATM    1  C5  UNL     1      16.579  18.905  31.844  1.00  0.00     0.141 C 
ENDROOT
BRANCH   1   2
HETATM    2  C4  UNL     1      16.497  18.094  30.610  1.00  0.00     0.145 C 
BRANCH   2   3
HETATM    3  N2  UNL     1      16.466  16.660  30.726  1.00  0.00    -0.356 N 
BRANCH   3   4
HETATM    4  C3  UNL     1      15.468  16.105  31.567  1.00  0.00     0.169 C 
HETATM    5  S1  UNL     1      13.946  16.072  30.996  1.00  0.00    -0.041 SA
BRANCH   4   6
HETATM    6  N1  UNL     1      15.729  15.601  32.844  1.00  0.00    -0.367 N 
ATOM      7  H1  UNL     1      16.256  16.176  33.502  1.00  0.00     0.161 HD
BRANCH   6   8
HETATM    8  C2  UNL     1      15.273  14.275  33.274  1.00  0.00     0.117 C 
HETATM    9  C1  UNL     1      16.006  13.775  34.473  1.00  0.00     0.026 C 
ENDBRANCH   6   8
ENDBRANCH   4   6
ENDBRANCH   3   4
BRANCH   3  10
HETATM   10  C15 UNL     1      17.376  15.741  30.076  1.00  0.00     0.142 C 
BRANCH  10  11
HETATM   11  C16 UNL     1      18.800  15.972  30.412  1.00  0.00     0.182 C 
BRANCH  11  12
HETATM   12  S2  UNL     1      19.250  15.126  31.940  1.00  0.00     0.226 S 
HETATM   13  O3  UNL     1      18.750  15.875  33.129  1.00  0.00    -0.206 OA
HETATM   14  O4  UNL     1      20.739  14.958  31.968  1.00  0.00    -0.206 OA
BRANCH  12  15
HETATM   15  N6  UNL     1      18.505  13.552  31.935  1.00  0.00    -0.328 N 
ATOM     16  H62 UNL     1      18.583  12.869  31.182  1.00  0.00     0.168 HD
ATOM     17  H61 UNL     1      17.986  13.439  32.806  1.00  0.00     0.168 HD
ENDBRANCH  12  15
ENDBRANCH  11  12
ENDBRANCH  10  11
ENDBRANCH   3  10
ENDBRANCH   2   3
ENDBRANCH   1   2
BRANCH   1  18
HETATM   18  N3  UNL     1      15.697  20.072  31.671  1.00  0.00    -0.373 N 
ATOM     19  H3  UNL     1      16.106  21.005  31.605  1.00  0.00     0.161 HD
BRANCH  18  20
HETATM   20  C6  UNL     1      14.415  19.934  31.601  1.00  0.00     0.128 A 
HETATM   21  N4  UNL     1      13.616  19.408  32.535  1.00  0.00    -0.285 N 
HETATM   22  N5  UNL     1      12.385  19.461  32.067  1.00  0.00    -0.298 N 
ATOM     23  H4  UNL     1      13.904  19.035  33.439  1.00  0.00     0.188 HD
HETATM   24  C7  UNL     1      12.352  20.008  30.848  1.00  0.00     0.065 A 
ATOM     25  H5  UNL     1      11.563  19.127  32.569  1.00  0.00     0.187 HD
HETATM   26  C8  UNL     1      11.345  20.295  29.940  1.00  0.00     0.071 A 
HETATM   27  C14 UNL     1      13.654  20.323  30.525  1.00  0.00     0.040 A 
HETATM   28  C9  UNL     1      11.628  20.891  28.721  1.00  0.00     0.103 A 
HETATM   29  C11 UNL     1      12.936  21.219  28.371  1.00  0.00     0.102 A 
HETATM   30  C13 UNL     1      13.917  20.925  29.285  1.00  0.00     0.057 A 
BRANCH  28  31
HETATM   31  O1  UNL     1      10.636  21.177  27.819  1.00  0.00    -0.353 OA
HETATM   32  C10 UNL     1       9.269  20.988  28.054  1.00  0.00     0.210 C 
ENDBRANCH  28  31
BRANCH  29  33
HETATM   33  O2  UNL     1      13.201  21.815  27.145  1.00  0.00    -0.353 OA
HETATM   34  C12 UNL     1      14.370  22.546  26.854  1.00  0.00     0.210 C 
ENDBRANCH  29  33
ENDBRANCH  18  20
ENDBRANCH   1  18
TORSDOF 13
ENDMDL
MODEL 2
REMARK VINA RESULT: -7.100246385      1.288      2.352
REMARK  13 active torsions:
REMARK  status: ('A' for Active; 'I' for Inactive)
REMARK    1  A    between atoms: C2_2  and  N1_3 
REMARK    2  A    between atoms: N1_3  and  C3_5 
REMARK    3  A    between atoms: C3_5  and  N2_7 
REMARK    4  A    between atoms: N2_7  and  C4_8 
REMARK    5  A    between atoms: N2_7  and  C15_27 
REMARK    6  A    between atoms: C4_8  and  C5_9 
REMARK    7  A    between atoms: C5_9  and  N3_10 
REMARK    8  A    between atoms: N3_10  and  C6_12 
REMARK    9  A    between atoms: C9_19  and  O1_20 
REMARK   10  A    between atoms: C11_22  and  O2_23 
REMARK   11  A    between atoms: C15_27  and  C16_28 
REMARK   12  A    between atoms: C16_28  and  S2_29 
REMARK   13  A    between atoms: S2_29  and  N6_30 
ROOT
HETATM    1  C5  UNL     1      16.534  19.444  32.480  1.00  0.00     0.141 C 
ENDROOT
BRANCH   1   2
HETATM    2  C4  UNL     1      17.190  18.482  31.567  1.00  0.00     0.145 C 
BRANCH   2   3
HETATM    3  N2  UNL     1      16.714  17.124  31.537  1.00  0.00    -0.356 N 
BRANCH   3   4
HETATM    4  C3  UNL     1      16.237  16.639  30.294  1.00  0.00     0.169 C 
HETATM    5  S1  UNL     1      14.658  16.853  29.966  1.00  0.00    -0.041 SA
BRANCH   4   6
HETATM    6  N1  UNL     1      17.046  15.991  29.356  1.00  0.00    -0.367 N 
ATOM      7  H1  UNL     1      16.768  15.068  29.021  1.00  0.00     0.161 HD
BRANCH   6   8
HETATM    8  C2  UNL     1      18.280  16.589  28.836  1.00  0.00     0.117 C 
HETATM    9  C1  UNL     1      18.061  17.355  27.576  1.00  0.00     0.026 C 
ENDBRANCH   6   8
ENDBRANCH   4   6
ENDBRANCH   3   4
BRANCH   3  10
HETATM   10  C15 UNL     1      16.662  16.224  32.668  1.00  0.00     0.142 C 
BRANCH  10  11
HETATM   11  C16 UNL     1      17.967  16.036  33.344  1.00  0.00     0.182 C 
BRANCH  11  12
HETATM   12  S2  UNL     1      18.994  14.852  32.451  1.00  0.00     0.226 S 
HETATM   13  O3  UNL     1      20.089  15.548  31.716  1.00  0.00    -0.206 OA
HETATM   14  O4  UNL     1      18.115  14.060  31.531  1.00  0.00    -0.206 OA
BRANCH  12  15
HETATM   15  N6  UNL     1      19.717  13.771  33.609  1.00  0.00    -0.328 N 
ATOM     16  H62 UNL     1      19.593  13.828  34.620  1.00  0.00     0.168 HD
ATOM     17  H61 UNL     1      20.276  13.084  33.102  1.00  0.00     0.168 HD
ENDBRANCH  12  15
ENDBRANCH  11  12
ENDBRANCH  10  11
ENDBRANCH   3  10
ENDBRANCH   2   3
ENDBRANCH   1   2
BRANCH   1  18
HETATM   18  N3  UNL     1      15.682  20.325  31.663  1.00  0.00    -0.373 N 
ATOM     19  H3  UNL     1      16.101  21.117  31.175  1.00  0.00     0.161 HD
BRANCH  18  20
HETATM   20  C6  UNL     1      14.413  20.110  31.554  1.00  0.00     0.128 A 
HETATM   21  N4  UNL     1      13.638  19.445  32.417  1.00  0.00    -0.285 N 
HETATM   22  N5  UNL     1      12.413  19.463  31.931  1.00  0.00    -0.298 N 
ATOM     23  H4  UNL     1      13.938  19.006  33.287  1.00  0.00     0.188 HD
HETATM   24  C7  UNL     1      12.360  20.123  30.770  1.00  0.00     0.065 A 
ATOM     25  H5  UNL     1      11.609  19.029  32.383  1.00  0.00     0.187 HD
HETATM   26  C8  UNL     1      11.349  20.430  29.873  1.00  0.00     0.071 A 
HETATM   27  C14 UNL     1      13.643  20.552  30.505  1.00  0.00     0.040 A 
HETATM   28  C9  UNL     1      11.608  21.158  28.723  1.00  0.00     0.103 A 
HETATM   29  C11 UNL     1      12.895  21.603  28.433  1.00  0.00     0.102 A 
HETATM   30  C13 UNL     1      13.881  21.287  29.334  1.00  0.00     0.057 A 
BRANCH  28  31
HETATM   31  O1  UNL     1      10.612  21.465  27.833  1.00  0.00    -0.353 OA
HETATM   32  C10 UNL     1       9.257  21.165  28.021  1.00  0.00     0.210 C 
ENDBRANCH  28  31
BRANCH  29  33
HETATM   33  O2  UNL     1      13.137  22.331  27.275  1.00  0.00    -0.353 OA
HETATM   34  C12 UNL     1      14.399  22.840  26.906  1.00  0.00     0.210 C 
ENDBRANCH  29  33
ENDBRANCH  18  20
ENDBRANCH   1  18
TORSDOF 13
ENDMDL
MODEL 3
REMARK VINA RESULT: -7.025994684      2.082      3.663
REMARK  13 active torsions:
REMARK  status: ('A' for Active; 'I' for Inactive)
REMARK    1  A    between atoms: C2_2  and  N1_3 
REMARK    2  A    between atoms: N1_3  and  C3_5 
REMARK    3  A    between atoms: C3_5  and  N2_7 
REMARK    4  A    between atoms: N2_7  and  C4_8 
REMARK    5  A    between atoms: N2_7  and  C15_27 
REMARK    6  A    between atoms: C4_8  and  C5_9 
REMARK    7  A    between atoms: C5_9  and  N3_10 
REMARK    8  A    between atoms: N3_10  and  C6_12 
REMARK    9  A    between atoms: C9_19  and  O1_20 
REMARK   10  A    between atoms: C11_22  and  O2_23 
REMARK   11  A    between atoms: C15_27  and  C16_28 
REMARK   12  A    between atoms: C16_28  and  S2_29 
REMARK   13  A    between atoms: S2_29  and  N6_30 
ROOT
HETATM    1  C5  UNL     1      13.681  16.830  34.355  1.00  0.00     0.141 C 
ENDROOT
BRANCH   1   2
HETATM    2  C4  UNL     1      14.395  15.776  35.109  1.00  0.00     0.145 C 
BRANCH   2   3
HETATM    3  N2  UNL     1      14.968  14.674  34.381  1.00  0.00    -0.356 N 
BRANCH   3   4
HETATM    4  C3  UNL     1      14.199  14.136  33.319  1.00  0.00     0.169 C 
HETATM    5  S1  UNL     1      12.738  13.526  33.691  1.00  0.00    -0.041 SA
BRANCH   4   6
HETATM    6  N1  UNL     1      14.635  14.102  31.991  1.00  0.00    -0.367 N 
ATOM      7  H1  UNL     1      15.176  13.298  31.672  1.00  0.00     0.161 HD
BRANCH   6   8
HETATM    8  C2  UNL     1      14.342  15.179  31.040  1.00  0.00     0.117 C 
HETATM    9  C1  UNL     1      15.295  15.208  29.892  1.00  0.00     0.026 C 
ENDBRANCH   6   8
ENDBRANCH   4   6
ENDBRANCH   3   4
BRANCH   3  10
HETATM   10  C15 UNL     1      16.249  14.058  34.655  1.00  0.00     0.142 C 
BRANCH  10  11
HETATM   11  C16 UNL     1      17.388  15.004  34.623  1.00  0.00     0.182 C 
BRANCH  11  12
HETATM   12  S2  UNL     1      18.378  14.775  33.134  1.00  0.00     0.226 S 
HETATM   13  O3  UNL     1      18.769  16.090  32.548  1.00  0.00    -0.206 OA
HETATM   14  O4  UNL     1      17.595  13.940  32.166  1.00  0.00    -0.206 OA
BRANCH  12  15
HETATM   15  N6  UNL     1      19.832  13.919  33.569  1.00  0.00    -0.328 N 
ATOM     16  H62 UNL     1      20.755  14.342  33.660  1.00  0.00     0.168 HD
ATOM     17  H61 UNL     1      19.595  12.938  33.712  1.00  0.00     0.168 HD
ENDBRANCH  12  15
ENDBRANCH  11  12
ENDBRANCH  10  11
ENDBRANCH   3  10
ENDBRANCH   2   3
ENDBRANCH   1   2
BRANCH   1  18
HETATM   18  N3  UNL     1      14.619  17.948  34.155  1.00  0.00    -0.373 N 
ATOM     19  H3  UNL     1      14.864  18.545  34.946  1.00  0.00     0.161 HD
BRANCH  18  20
HETATM   20  C6  UNL     1      15.135  18.185  32.995  1.00  0.00     0.128 A 
HETATM   21  N4  UNL     1      16.355  17.836  32.576  1.00  0.00    -0.285 N 
HETATM   22  N5  UNL     1      16.477  18.264  31.336  1.00  0.00    -0.298 N 
ATOM     23  H4  UNL     1      17.060  17.333  33.115  1.00  0.00     0.188 HD
HETATM   24  C7  UNL     1      15.368  18.887  30.926  1.00  0.00     0.065 A 
ATOM     25  H5  UNL     1      17.310  18.137  30.763  1.00  0.00     0.187 HD
HETATM   26  C8  UNL     1      14.979  19.500  29.745  1.00  0.00     0.071 A 
HETATM   27  C14 UNL     1      14.484  18.849  31.982  1.00  0.00     0.040 A 
HETATM   28  C9  UNL     1      13.723  20.070  29.613  1.00  0.00     0.103 A 
HETATM   29  C11 UNL     1      12.811  20.043  30.666  1.00  0.00     0.102 A 
HETATM   30  C13 UNL     1      13.218  19.432  31.826  1.00  0.00     0.057 A 
BRANCH  28  31
HETATM   31  O1  UNL     1      13.333  20.677  28.448  1.00  0.00    -0.353 OA
HETATM   32  C10 UNL     1      14.178  20.927  27.360  1.00  0.00     0.210 C 
ENDBRANCH  28  31
BRANCH  29  33
HETATM   33  O2  UNL     1      11.557  20.619  30.516  1.00  0.00    -0.353 OA
HETATM   34  C12 UNL     1      10.384  20.141  31.135  1.00  0.00     0.210 C 
ENDBRANCH  29  33
ENDBRANCH  18  20
ENDBRANCH   1  18
TORSDOF 13
ENDMDL
MODEL 4
REMARK VINA RESULT: -7.023636675      2.142      3.505
REMARK  13 active torsions:
REMARK  status: ('A' for Active; 'I' for Inactive)
REMARK    1  A    between atoms: C2_2  and  N1_3 
REMARK    2  A    between atoms: N1_3  and  C3_5 
REMARK    3  A    between atoms: C3_5  and  N2_7 
REMARK    4  A    between atoms: N2_7  and  C4_8 
REMARK    5  A    between atoms: N2_7  and  C15_27 
REMARK    6  A    between atoms: C4_8  and  C5_9 
REMARK    7  A    between atoms: C5_9  and  N3_10 
REMARK    8  A    between atoms: N3_10  and  C6_12 
REMARK    9  A    between atoms: C9_19  and  O1_20 
REMARK   10  A    between atoms: C11_22  and  O2_23 
REMARK   11  A    between atoms: C15_27  and  C16_28 
REMARK   12  A    between atoms: C16_28  and  S2_29 
REMARK   13  A    between atoms: S2_29  and  N6_30 
ROOT
HETATM    1  C5  UNL     1      16.662  19.337  32.681  1.00  0.00     0.141 C 
ENDROOT
BRANCH   1   2
HETATM    2  C4  UNL     1      17.806  18.603  32.097  1.00  0.00     0.145 C 
BRANCH   2   3
HETATM    3  N2  UNL     1      17.626  17.223  31.728  1.00  0.00    -0.356 N 
BRANCH   3   4
HETATM    4  C3  UNL     1      18.545  16.683  30.794  1.00  0.00     0.169 C 
HETATM    5  S1  UNL     1      19.400  15.379  31.258  1.00  0.00    -0.041 SA
BRANCH   4   6
HETATM    6  N1  UNL     1      18.751  17.215  29.518  1.00  0.00    -0.367 N 
ATOM      7  H1  UNL     1      19.490  17.906  29.386  1.00  0.00     0.161 HD
BRANCH   6   8
HETATM    8  C2  UNL     1      17.943  16.815  28.361  1.00  0.00     0.117 C 
HETATM    9  C1  UNL     1      18.333  17.532  27.112  1.00  0.00     0.026 C 
ENDBRANCH   6   8
ENDBRANCH   4   6
ENDBRANCH   3   4
BRANCH   3  10
HETATM   10  C15 UNL     1      16.577  16.351  32.212  1.00  0.00     0.142 C 
BRANCH  10  11
HETATM   11  C16 UNL     1      15.660  15.873  31.152  1.00  0.00     0.182 C 
BRANCH  11  12
HETATM   12  S2  UNL     1      13.944  15.933  31.704  1.00  0.00     0.226 S 
HETATM   13  O3  UNL     1      13.095  16.664  30.720  1.00  0.00    -0.206 OA
HETATM   14  O4  UNL     1      13.905  16.569  33.062  1.00  0.00    -0.206 OA
BRANCH  12  15
HETATM   15  N6  UNL     1      13.351  14.301  31.830  1.00  0.00    -0.328 N 
ATOM     16  H62 UNL     1      13.627  13.529  31.223  1.00  0.00     0.168 HD
ATOM     17  H61 UNL     1      12.689  14.258  32.605  1.00  0.00     0.168 HD
ENDBRANCH  12  15
ENDBRANCH  11  12
ENDBRANCH  10  11
ENDBRANCH   3  10
ENDBRANCH   2   3
ENDBRANCH   1   2
BRANCH   1  18
HETATM   18  N3  UNL     1      15.888  19.915  31.569  1.00  0.00    -0.373 N 
ATOM     19  H3  UNL     1      16.378  20.395  30.813  1.00  0.00     0.161 HD
BRANCH  18  20
HETATM   20  C6  UNL     1      14.601  19.826  31.536  1.00  0.00     0.128 A 
HETATM   21  N4  UNL     1      13.807  19.342  32.497  1.00  0.00    -0.285 N 
HETATM   22  N5  UNL     1      12.567  19.438  32.062  1.00  0.00    -0.298 N 
ATOM     23  H4  UNL     1      14.106  18.969  33.398  1.00  0.00     0.188 HD
HETATM   24  C7  UNL     1      12.522  19.972  30.838  1.00  0.00     0.065 A 
ATOM     25  H5  UNL     1      11.747  19.143  32.591  1.00  0.00     0.187 HD
HETATM   26  C8  UNL     1      11.502  20.288  29.954  1.00  0.00     0.071 A 
HETATM   27  C14 UNL     1      13.825  20.233  30.476  1.00  0.00     0.040 A 
HETATM   28  C9  UNL     1      11.774  20.858  28.721  1.00  0.00     0.103 A 
HETATM   29  C11 UNL     1      13.083  21.131  28.331  1.00  0.00     0.102 A 
HETATM   30  C13 UNL     1      14.077  20.809  29.222  1.00  0.00     0.057 A 
BRANCH  28  31
HETATM   31  O1  UNL     1      10.769  21.172  27.843  1.00  0.00    -0.353 OA
HETATM   32  C10 UNL     1       9.404  20.989  28.097  1.00  0.00     0.210 C 
ENDBRANCH  28  31
BRANCH  29  33
HETATM   33  O2  UNL     1      13.337  21.702  27.092  1.00  0.00    -0.353 OA
HETATM   34  C12 UNL     1      14.489  22.453  26.784  1.00  0.00     0.210 C 
ENDBRANCH  29  33
ENDBRANCH  18  20
ENDBRANCH   1  18
TORSDOF 13
ENDMDL
MODEL 5
REMARK VINA RESULT: -7.023392421      2.028      2.904
REMARK  13 active torsions:
REMARK  status: ('A' for Active; 'I' for Inactive)
REMARK    1  A    between atoms: C2_2  and  N1_3 
REMARK    2  A    between atoms: N1_3  and  C3_5 
REMARK    3  A    between atoms: C3_5  and  N2_7 
REMARK    4  A    between atoms: N2_7  and  C4_8 
REMARK    5  A    between atoms: N2_7  and  C15_27 
REMARK    6  A    between atoms: C4_8  and  C5_9 
REMARK    7  A    between atoms: C5_9  and  N3_10 
REMARK    8  A    between atoms: N3_10  and  C6_12 
REMARK    9  A    between atoms: C9_19  and  O1_20 
REMARK   10  A    between atoms: C11_22  and  O2_23 
REMARK   11  A    between atoms: C15_27  and  C16_28 
REMARK   12  A    between atoms: C16_28  and  S2_29 
REMARK   13  A    between atoms: S2_29  and  N6_30 
ROOT
HETATM    1  C5  UNL     1      16.789  18.236  31.197  1.00  0.00     0.141 C 
ENDROOT
BRANCH   1   2
HETATM    2  C4  UNL     1      17.183  17.466  32.397  1.00  0.00     0.145 C 
BRANCH   2   3
HETATM    3  N2  UNL     1      17.173  16.028  32.330  1.00  0.00    -0.356 N 
BRANCH   3   4
HETATM    4  C3  UNL     1      17.812  15.332  33.386  1.00  0.00     0.169 C 
HETATM    5  S1  UNL     1      19.034  14.334  32.989  1.00  0.00    -0.041 SA
BRANCH   4   6
HETATM    6  N1  UNL     1      17.442  15.456  34.728  1.00  0.00    -0.367 N 
ATOM      7  H1  UNL     1      18.101  15.881  35.382  1.00  0.00     0.161 HD
BRANCH   6   8
HETATM    8  C2  UNL     1      16.142  15.000  35.230  1.00  0.00     0.117 C 
HETATM    9  C1  UNL     1      16.038  13.513  35.289  1.00  0.00     0.026 C 
ENDBRANCH   6   8
ENDBRANCH   4   6
ENDBRANCH   3   4
BRANCH   3  10
HETATM   10  C15 UNL     1      16.586  15.238  31.269  1.00  0.00     0.142 C 
BRANCH  10  11
HETATM   11  C16 UNL     1      15.406  14.450  31.693  1.00  0.00     0.182 C 
BRANCH  11  12
HETATM   12  S2  UNL     1      13.889  15.409  31.516  1.00  0.00     0.226 S 
HETATM   13  O3  UNL     1      13.901  16.193  30.248  1.00  0.00    -0.206 OA
HETATM   14  O4  UNL     1      13.742  16.291  32.720  1.00  0.00    -0.206 OA
BRANCH  12  15
HETATM   15  N6  UNL     1      12.545  14.303  31.460  1.00  0.00    -0.328 N 
ATOM     16  H62 UNL     1      12.400  13.524  32.103  1.00  0.00     0.168 HD
ATOM     17  H61 UNL     1      11.940  14.571  30.683  1.00  0.00     0.168 HD
ENDBRANCH  12  15
ENDBRANCH  11  12
ENDBRANCH  10  11
ENDBRANCH   3  10
ENDBRANCH   2   3
ENDBRANCH   1   2
BRANCH   1  18
HETATM   18  N3  UNL     1      16.047  19.424  31.653  1.00  0.00    -0.373 N 
ATOM     19  H3  UNL     1      16.562  20.246  31.968  1.00  0.00     0.161 HD
BRANCH  18  20
HETATM   20  C6  UNL     1      14.756  19.441  31.659  1.00  0.00     0.128 A 
HETATM   21  N4  UNL     1      13.957  19.130  32.685  1.00  0.00    -0.285 N 
HETATM   22  N5  UNL     1      12.716  19.284  32.271  1.00  0.00    -0.298 N 
ATOM     23  H4  UNL     1      14.253  18.829  33.613  1.00  0.00     0.188 HD
HETATM   24  C7  UNL     1      12.675  19.690  30.998  1.00  0.00     0.065 A 
ATOM     25  H5  UNL     1      11.892  19.116  32.848  1.00  0.00     0.187 HD
HETATM   26  C8  UNL     1      11.657  19.997  30.110  1.00  0.00     0.071 A 
HETATM   27  C14 UNL     1      13.983  19.799  30.580  1.00  0.00     0.040 A 
HETATM   28  C9  UNL     1      11.935  20.409  28.816  1.00  0.00     0.103 A 
HETATM   29  C11 UNL     1      13.248  20.528  28.370  1.00  0.00     0.102 A 
HETATM   30  C13 UNL     1      14.241  20.218  29.266  1.00  0.00     0.057 A 
BRANCH  28  31
HETATM   31  O1  UNL     1      10.931  20.714  27.933  1.00  0.00    -0.353 OA
HETATM   32  C10 UNL     1       9.784  21.450  28.255  1.00  0.00     0.210 C 
ENDBRANCH  28  31
BRANCH  29  33
HETATM   33  O2  UNL     1      13.508  20.943  27.070  1.00  0.00    -0.353 OA
HETATM   34  C12 UNL     1      14.753  21.434  26.627  1.00  0.00     0.210 C 
ENDBRANCH  29  33
ENDBRANCH  18  20
ENDBRANCH   1  18
TORSDOF 13
ENDMDL
