MODEL 1
REMARK VINA RESULT: -7.800334015      0.000      0.000
REMARK  11 active torsions:
REMARK  status: ('A' for Active; 'I' for Inactive)
REMARK    1  A    between atoms: N1_2  and  C3_4 
REMARK    2  A    between atoms: C3_4  and  C4_5 
REMARK    3  A    between atoms: C4_5  and  O1_6 
REMARK    4  A    between atoms: O1_6  and  C5_7 
REMARK    5  A    between atoms: C5_7  and  C6_8 
REMARK    6  A    between atoms: C6_8  and  O2_9 
REMARK    7  A    between atoms: O2_9  and  C7_10 
REMARK    8  A    between atoms: C7_10  and  C8_11 
REMARK    9  A    between atoms: C8_11  and  N2_12 
REMARK   10  A    between atoms: N2_12  and  C9_14 
REMARK   11  A    between atoms: C14_21  and  N4_22 
REMARK       I    between atoms: N4_22  and  C15_24 
ROOT
HETATM    1  C9  UNL     1      14.590  16.421  31.098  1.00  0.00     0.054 A 
HETATM    2  C10 UNL     1      14.233  15.833  32.346  1.00  0.00    -0.001 A 
HETATM    3  C11 UNL     1      13.755  16.555  33.363  1.00  0.00     0.056 A 
HETATM    4  N3  UNL     1      13.604  17.859  33.229  1.00  0.00    -0.354 N 
ATOM      5  H3  UNL     1      13.239  18.402  34.011  1.00  0.00     0.166 HD
HETATM    6  C12 UNL     1      13.923  18.491  32.078  1.00  0.00     0.050 A 
HETATM    7  C13 UNL     1      13.760  19.870  31.988  1.00  0.00     0.079 A 
HETATM    8  C14 UNL     1      14.094  20.533  30.830  1.00  0.00     0.109 A 
HETATM    9  N7  UNL     1      14.579  19.879  29.767  1.00  0.00    -0.351 N 
ATOM     10  H7  UNL     1      14.822  20.383  28.914  1.00  0.00     0.166 HD
HETATM   11  C16 UNL     1      14.742  18.519  29.844  1.00  0.00     0.105 A 
HETATM   12  C17 UNL     1      14.420  17.812  30.987  1.00  0.00     0.033 A 
HETATM   13  C18 UNL     1      13.392  15.925  34.646  1.00  0.00     0.115 C 
HETATM   14  N8  UNL     1      13.899  14.656  34.920  1.00  0.00    -0.392 N 
HETATM   15  C19 UNL     1      14.399  14.454  36.252  1.00  0.00     0.148 C 
HETATM   16  C20 UNL     1      14.679  13.989  33.948  1.00  0.00     0.126 C 
HETATM   17  C21 UNL     1      14.444  14.380  32.528  1.00  0.00     0.063 C 
ENDROOT
BRANCH   1  18
HETATM   18  N2  UNL     1      14.991  15.725  30.185  1.00  0.00    -0.366 N 
ATOM     19  H2  UNL     1      14.139  15.368  29.752  1.00  0.00     0.165 HD
BRANCH  18  20
HETATM   20  C8  UNL     1      15.979  15.185  29.455  1.00  0.00     0.087 C 
BRANCH  20  21
HETATM   21  C7  UNL     1      17.133  16.017  28.933  1.00  0.00     0.212 C 
BRANCH  21  22
HETATM   22  O2  UNL     1      18.155  16.323  29.722  1.00  0.00    -0.384 OA
BRANCH  22  23
HETATM   23  C6  UNL     1      18.194  17.454  30.423  1.00  0.00     0.194 C 
BRANCH  23  24
HETATM   24  C5  UNL     1      19.238  17.480  31.521  1.00  0.00     0.193 C 
BRANCH  24  25
HETATM   25  O1  UNL     1      18.781  17.381  32.789  1.00  0.00    -0.387 OA
BRANCH  25  26
HETATM   26  C4  UNL     1      17.737  16.549  33.056  1.00  0.00     0.198 C 
BRANCH  26  27
HETATM   27  C3  UNL     1      18.055  15.541  34.168  1.00  0.00     0.297 C 
BRANCH  27  28
HETATM   28  N1  UNL     1      18.492  14.290  33.630  1.00  0.00     0.082 N 
HETATM   29  C1  UNL     1      18.019  14.010  32.306  1.00  0.00     0.309 C 
HETATM   30  C2  UNL     1      19.912  14.077  33.776  1.00  0.00     0.309 C 
ENDBRANCH  27  28
ENDBRANCH  26  27
ENDBRANCH  25  26
ENDBRANCH  24  25
ENDBRANCH  23  24
ENDBRANCH  22  23
ENDBRANCH  21  22
ENDBRANCH  20  21
ENDBRANCH  18  20
ENDBRANCH   1  18
BRANCH   8  31
HETATM   31  N4  UNL     1      13.948  21.810  30.731  1.00  0.00    -0.317 N 
HETATM   32  C15 UNL     1      15.092  22.608  30.488  1.00  0.00     0.187 C 
HETATM   33  N5  UNL     1      15.330  22.996  29.285  1.00  0.00    -0.373 N 
HETATM   34  N6  UNL     1      16.004  23.010  31.499  1.00  0.00    -0.064 NA
ATOM     35  H52 UNL     1      14.676  22.708  28.558  1.00  0.00     0.158 HD
ATOM     36  H51 UNL     1      16.155  23.572  29.110  1.00  0.00     0.158 HD
ATOM     37  H4  UNL     1      13.027  22.237  30.826  1.00  0.00     0.170 HD
ENDBRANCH   8  31
TORSDOF 11
ENDMDL
MODEL 2
REMARK VINA RESULT: -7.746277080      1.275      2.049
REMARK  11 active torsions:
REMARK  status: ('A' for Active; 'I' for Inactive)
REMARK    1  A    between atoms: N1_2  and  C3_4 
REMARK    2  A    between atoms: C3_4  and  C4_5 
REMARK    3  A    between atoms: C4_5  and  O1_6 
REMARK    4  A    between atoms: O1_6  and  C5_7 
REMARK    5  A    between atoms: C5_7  and  C6_8 
REMARK    6  A    between atoms: C6_8  and  O2_9 
REMARK    7  A    between atoms: O2_9  and  C7_10 
REMARK    8  A    between atoms: C7_10  and  C8_11 
REMARK    9  A    between atoms: C8_11  and  N2_12 
REMARK   10  A    between atoms: N2_12  and  C9_14 
REMARK   11  A    between atoms: C14_21  and  N4_22 
REMARK       I    between atoms: N4_22  and  C15_24 
ROOT
HETATM    1  C9  UNL     1      14.403  16.429  31.099  1.00  0.00     0.054 A 
HETATM    2  C10 UNL     1      14.084  15.854  32.363  1.00  0.00    -0.001 A 
HETATM    3  C11 UNL     1      13.677  16.593  33.400  1.00  0.00     0.056 A 
HETATM    4  N3  UNL     1      13.563  17.901  33.268  1.00  0.00    -0.354 N 
ATOM      5  H3  UNL     1      13.252  18.456  34.065  1.00  0.00     0.166 HD
HETATM    6  C12 UNL     1      13.849  18.521  32.103  1.00  0.00     0.050 A 
HETATM    7  C13 UNL     1      13.728  19.905  32.016  1.00  0.00     0.079 A 
HETATM    8  C14 UNL     1      14.030  20.554  30.842  1.00  0.00     0.109 A 
HETATM    9  N7  UNL     1      14.444  19.883  29.760  1.00  0.00    -0.351 N 
ATOM     10  H7  UNL     1      14.664  20.378  28.895  1.00  0.00     0.166 HD
HETATM   11  C16 UNL     1      14.566  18.519  29.834  1.00  0.00     0.105 A 
HETATM   12  C17 UNL     1      14.273  17.824  30.992  1.00  0.00     0.033 A 
HETATM   13  C18 UNL     1      13.353  15.977  34.699  1.00  0.00     0.115 C 
HETATM   14  N8  UNL     1      13.830  14.692  34.953  1.00  0.00    -0.392 N 
HETATM   15  C19 UNL     1      14.383  14.476  36.261  1.00  0.00     0.148 C 
HETATM   16  C20 UNL     1      14.542  13.999  33.949  1.00  0.00     0.126 C 
HETATM   17  C21 UNL     1      14.255  14.396  32.540  1.00  0.00     0.063 C 
ENDROOT
BRANCH   1  18
HETATM   18  N2  UNL     1      14.739  15.719  30.170  1.00  0.00    -0.366 N 
ATOM     19  H2  UNL     1      13.872  15.552  29.659  1.00  0.00     0.165 HD
BRANCH  18  20
HETATM   20  C8  UNL     1      15.664  15.042  29.474  1.00  0.00     0.087 C 
BRANCH  20  21
HETATM   21  C7  UNL     1      17.088  14.891  29.972  1.00  0.00     0.212 C 
BRANCH  21  22
HETATM   22  O2  UNL     1      17.351  14.154  31.044  1.00  0.00    -0.384 OA
BRANCH  22  23
HETATM   23  C6  UNL     1      18.457  14.326  31.766  1.00  0.00     0.194 C 
BRANCH  23  24
HETATM   24  C5  UNL     1      19.588  15.019  31.031  1.00  0.00     0.193 C 
BRANCH  24  25
HETATM   25  O1  UNL     1      19.965  16.224  31.509  1.00  0.00    -0.387 OA
BRANCH  25  26
HETATM   26  C4  UNL     1      19.477  17.354  30.927  1.00  0.00     0.198 C 
BRANCH  26  27
HETATM   27  C3  UNL     1      19.174  18.460  31.945  1.00  0.00     0.297 C 
BRANCH  27  28
HETATM   28  N1  UNL     1      17.775  18.534  32.236  1.00  0.00     0.082 N 
HETATM   29  C1  UNL     1      17.285  17.491  33.090  1.00  0.00     0.309 C 
HETATM   30  C2  UNL     1      17.354  19.849  32.656  1.00  0.00     0.309 C 
ENDBRANCH  27  28
ENDBRANCH  26  27
ENDBRANCH  25  26
ENDBRANCH  24  25
ENDBRANCH  23  24
ENDBRANCH  22  23
ENDBRANCH  21  22
ENDBRANCH  20  21
ENDBRANCH  18  20
ENDBRANCH   1  18
BRANCH   8  31
HETATM   31  N4  UNL     1      13.922  21.836  30.747  1.00  0.00    -0.317 N 
HETATM   32  C15 UNL     1      15.087  22.600  30.495  1.00  0.00     0.187 C 
HETATM   33  N5  UNL     1      15.326  22.983  29.290  1.00  0.00    -0.373 N 
HETATM   34  N6  UNL     1      16.019  22.972  31.499  1.00  0.00    -0.064 NA
ATOM     35  H52 UNL     1      14.657  22.715  28.569  1.00  0.00     0.158 HD
ATOM     36  H51 UNL     1      16.166  23.533  29.109  1.00  0.00     0.158 HD
ATOM     37  H4  UNL     1      13.014  22.290  30.850  1.00  0.00     0.170 HD
ENDBRANCH   8  31
TORSDOF 11
ENDMDL
MODEL 3
REMARK VINA RESULT: -7.449192600      2.311      6.058
REMARK  11 active torsions:
REMARK  status: ('A' for Active; 'I' for Inactive)
REMARK    1  A    between atoms: N1_2  and  C3_4 
REMARK    2  A    between atoms: C3_4  and  C4_5 
REMARK    3  A    between atoms: C4_5  and  O1_6 
REMARK    4  A    between atoms: O1_6  and  C5_7 
REMARK    5  A    between atoms: C5_7  and  C6_8 
REMARK    6  A    between atoms: C6_8  and  O2_9 
REMARK    7  A    between atoms: O2_9  and  C7_10 
REMARK    8  A    between atoms: C7_10  and  C8_11 
REMARK    9  A    between atoms: C8_11  and  N2_12 
REMARK   10  A    between atoms: N2_12  and  C9_14 
REMARK   11  A    between atoms: C14_21  and  N4_22 
REMARK       I    between atoms: N4_22  and  C15_24 
ROOT
HETATM    1  C9  UNL     1      14.468  18.422  32.152  1.00  0.00     0.054 A 
HETATM    2  C10 UNL     1      13.794  18.943  31.011  1.00  0.00    -0.001 A 
HETATM    3  C11 UNL     1      14.364  18.982  29.803  1.00  0.00     0.056 A 
HETATM    4  N3  UNL     1      15.592  18.530  29.642  1.00  0.00    -0.354 N 
ATOM      5  H3  UNL     1      16.019  18.564  28.716  1.00  0.00     0.166 HD
HETATM    6  C12 UNL     1      16.299  18.023  30.675  1.00  0.00     0.050 A 
HETATM    7  C13 UNL     1      17.598  17.571  30.460  1.00  0.00     0.079 A 
HETATM    8  C14 UNL     1      18.337  17.066  31.504  1.00  0.00     0.109 A 
HETATM    9  N7  UNL     1      17.836  16.994  32.743  1.00  0.00    -0.351 N 
ATOM     10  H7  UNL     1      18.396  16.617  33.509  1.00  0.00     0.166 HD
HETATM   11  C16 UNL     1      16.557  17.435  32.967  1.00  0.00     0.105 A 
HETATM   12  C17 UNL     1      15.777  17.950  31.949  1.00  0.00     0.033 A 
HETATM   13  C18 UNL     1      13.647  19.526  28.635  1.00  0.00     0.115 C 
HETATM   14  N8  UNL     1      12.536  20.337  28.866  1.00  0.00    -0.392 N 
HETATM   15  C19 UNL     1      12.445  21.521  28.058  1.00  0.00     0.148 C 
HETATM   16  C20 UNL     1      12.094  20.557  30.190  1.00  0.00     0.126 C 
HETATM   17  C21 UNL     1      12.435  19.500  31.186  1.00  0.00     0.063 C 
ENDROOT
BRANCH   1  18
HETATM   18  N2  UNL     1      13.904  18.374  33.229  1.00  0.00    -0.366 N 
ATOM     19  H2  UNL     1      13.800  19.353  33.498  1.00  0.00     0.165 HD
BRANCH  18  20
HETATM   20  C8  UNL     1      13.349  17.696  34.244  1.00  0.00     0.087 C 
BRANCH  20  21
HETATM   21  C7  UNL     1      13.621  16.221  34.464  1.00  0.00     0.212 C 
BRANCH  21  22
HETATM   22  O2  UNL     1      14.484  15.827  35.393  1.00  0.00    -0.384 OA
BRANCH  22  23
HETATM   23  C6  UNL     1      14.948  14.580  35.443  1.00  0.00     0.194 C 
BRANCH  23  24
HETATM   24  C5  UNL     1      16.435  14.450  35.177  1.00  0.00     0.193 C 
BRANCH  24  25
HETATM   25  O1  UNL     1      16.799  14.233  33.895  1.00  0.00    -0.387 OA
BRANCH  25  26
HETATM   26  C4  UNL     1      15.889  13.720  33.022  1.00  0.00     0.198 C 
BRANCH  26  27
HETATM   27  C3  UNL     1      16.398  13.709  31.575  1.00  0.00     0.297 C 
BRANCH  27  28
HETATM   28  N1  UNL     1      15.674  14.634  30.759  1.00  0.00     0.082 N 
HETATM   29  C1  UNL     1      15.843  14.447  29.347  1.00  0.00     0.309 C 
HETATM   30  C2  UNL     1      14.290  14.767  31.147  1.00  0.00     0.309 C 
ENDBRANCH  27  28
ENDBRANCH  26  27
ENDBRANCH  25  26
ENDBRANCH  24  25
ENDBRANCH  23  24
ENDBRANCH  22  23
ENDBRANCH  21  22
ENDBRANCH  20  21
ENDBRANCH  18  20
ENDBRANCH   1  18
BRANCH   8  31
HETATM   31  N4  UNL     1      19.541  16.643  31.320  1.00  0.00    -0.317 N 
HETATM   32  C15 UNL     1      19.824  15.275  31.553  1.00  0.00     0.187 C 
HETATM   33  N5  UNL     1      19.870  14.474  30.548  1.00  0.00    -0.373 N 
HETATM   34  N6  UNL     1      20.060  14.726  32.840  1.00  0.00    -0.064 NA
ATOM     35  H52 UNL     1      19.700  14.868  29.622  1.00  0.00     0.158 HD
ATOM     36  H51 UNL     1      20.074  13.488  30.716  1.00  0.00     0.158 HD
ATOM     37  H4  UNL     1      20.275  17.281  31.012  1.00  0.00     0.170 HD
ENDBRANCH   8  31
TORSDOF 11
ENDMDL
MODEL 4
REMARK VINA RESULT: -7.384905704      1.538      3.086
REMARK  11 active torsions:
REMARK  status: ('A' for Active; 'I' for Inactive)
REMARK    1  A    between atoms: N1_2  and  C3_4 
REMARK    2  A    between atoms: C3_4  and  C4_5 
REMARK    3  A    between atoms: C4_5  and  O1_6 
REMARK    4  A    between atoms: O1_6  and  C5_7 
REMARK    5  A    between atoms: C5_7  and  C6_8 
REMARK    6  A    between atoms: C6_8  and  O2_9 
REMARK    7  A    between atoms: O2_9  and  C7_10 
REMARK    8  A    between atoms: C7_10  and  C8_11 
REMARK    9  A    between atoms: C8_11  and  N2_12 
REMARK   10  A    between atoms: N2_12  and  C9_14 
REMARK   11  A    between atoms: C14_21  and  N4_22 
REMARK       I    between atoms: N4_22  and  C15_24 
ROOT
HETATM    1  C9  UNL     1      16.175  15.836  34.097  1.00  0.00     0.054 A 
HETATM    2  C10 UNL     1      15.262  14.980  34.779  1.00  0.00    -0.001 A 
HETATM    3  C11 UNL     1      13.951  15.227  34.824  1.00  0.00     0.056 A 
HETATM    4  N3  UNL     1      13.464  16.298  34.225  1.00  0.00    -0.354 N 
ATOM      5  H3  UNL     1      12.461  16.479  34.265  1.00  0.00     0.166 HD
HETATM    6  C12 UNL     1      14.264  17.160  33.561  1.00  0.00     0.050 A 
HETATM    7  C13 UNL     1      13.707  18.284  32.958  1.00  0.00     0.079 A 
HETATM    8  C14 UNL     1      14.509  19.181  32.291  1.00  0.00     0.109 A 
HETATM    9  N7  UNL     1      15.833  19.001  32.202  1.00  0.00    -0.351 N 
ATOM     10  H7  UNL     1      16.415  19.675  31.704  1.00  0.00     0.166 HD
HETATM   11  C16 UNL     1      16.392  17.897  32.792  1.00  0.00     0.105 A 
HETATM   12  C17 UNL     1      15.626  16.969  33.472  1.00  0.00     0.033 A 
HETATM   13  C18 UNL     1      13.025  14.327  35.535  1.00  0.00     0.115 C 
HETATM   14  N8  UNL     1      13.560  13.439  36.467  1.00  0.00    -0.392 N 
HETATM   15  C19 UNL     1      12.840  13.321  37.705  1.00  0.00     0.148 C 
HETATM   16  C20 UNL     1      14.959  13.380  36.654  1.00  0.00     0.126 C 
HETATM   17  C21 UNL     1      15.800  13.803  35.497  1.00  0.00     0.063 C 
ENDROOT
BRANCH   1  18
HETATM   18  N2  UNL     1      17.358  15.559  34.052  1.00  0.00    -0.366 N 
ATOM     19  H2  UNL     1      17.793  16.222  34.694  1.00  0.00     0.165 HD
BRANCH  18  20
HETATM   20  C8  UNL     1      18.386  14.829  33.591  1.00  0.00     0.087 C 
BRANCH  20  21
HETATM   21  C7  UNL     1      19.105  15.185  32.306  1.00  0.00     0.212 C 
BRANCH  21  22
HETATM   22  O2  UNL     1      19.562  16.416  32.108  1.00  0.00    -0.384 OA
BRANCH  22  23
HETATM   23  C6  UNL     1      19.406  17.050  30.948  1.00  0.00     0.194 C 
BRANCH  23  24
HETATM   24  C5  UNL     1      18.919  16.173  29.811  1.00  0.00     0.193 C 
BRANCH  24  25
HETATM   25  O1  UNL     1      17.939  16.686  29.034  1.00  0.00    -0.387 OA
BRANCH  25  26
HETATM   26  C4  UNL     1      16.639  16.489  29.386  1.00  0.00     0.198 C 
BRANCH  26  27
HETATM   27  C3  UNL     1      16.246  15.007  29.392  1.00  0.00     0.297 C 
BRANCH  27  28
HETATM   28  N1  UNL     1      15.795  14.591  30.685  1.00  0.00     0.082 N 
HETATM   29  C1  UNL     1      14.391  14.768  30.915  1.00  0.00     0.309 C 
HETATM   30  C2  UNL     1      16.264  13.276  31.051  1.00  0.00     0.309 C 
ENDBRANCH  27  28
ENDBRANCH  26  27
ENDBRANCH  25  26
ENDBRANCH  24  25
ENDBRANCH  23  24
ENDBRANCH  22  23
ENDBRANCH  21  22
ENDBRANCH  20  21
ENDBRANCH  18  20
ENDBRANCH   1  18
BRANCH   8  31
HETATM   31  N4  UNL     1      14.008  20.226  31.726  1.00  0.00    -0.317 N 
HETATM   32  C15 UNL     1      14.827  20.990  30.861  1.00  0.00     0.187 C 
HETATM   33  N5  UNL     1      14.723  20.809  29.592  1.00  0.00    -0.373 N 
HETATM   34  N6  UNL     1      15.768  21.953  31.311  1.00  0.00    -0.064 NA
ATOM     35  H52 UNL     1      14.047  20.117  29.268  1.00  0.00     0.158 HD
ATOM     36  H51 UNL     1      15.314  21.360  28.968  1.00  0.00     0.158 HD
ATOM     37  H4  UNL     1      13.039  20.496  31.899  1.00  0.00     0.170 HD
ENDBRANCH   8  31
TORSDOF 11
ENDMDL
MODEL 5
REMARK VINA RESULT: -7.341314680      1.969      3.054
REMARK  11 active torsions:
REMARK  status: ('A' for Active; 'I' for Inactive)
REMARK    1  A    between atoms: N1_2  and  C3_4 
REMARK    2  A    between atoms: C3_4  and  C4_5 
REMARK    3  A    between atoms: C4_5  and  O1_6 
REMARK    4  A    between atoms: O1_6  and  C5_7 
REMARK    5  A    between atoms: C5_7  and  C6_8 
REMARK    6  A    between atoms: C6_8  and  O2_9 
REMARK    7  A    between atoms: O2_9  and  C7_10 
REMARK    8  A    between atoms: C7_10  and  C8_11 
REMARK    9  A    between atoms: C8_11  and  N2_12 
REMARK   10  A    between atoms: N2_12  and  C9_14 
REMARK   11  A    between atoms: C14_21  and  N4_22 
REMARK       I    between atoms: N4_22  and  C15_24 
ROOT
HETATM    1  C9  UNL     1      15.023  16.039  30.742  1.00  0.00     0.054 A 
HETATM    2  C10 UNL     1      14.994  15.357  31.993  1.00  0.00    -0.001 A 
HETATM    3  C11 UNL     1      14.279  15.801  33.030  1.00  0.00     0.056 A 
HETATM    4  N3  UNL     1      13.570  16.908  32.913  1.00  0.00    -0.354 N 
ATOM      5  H3  UNL     1      13.027  17.238  33.710  1.00  0.00     0.166 HD
HETATM    6  C12 UNL     1      13.548  17.613  31.761  1.00  0.00     0.050 A 
HETATM    7  C13 UNL     1      12.798  18.783  31.689  1.00  0.00     0.079 A 
HETATM    8  C14 UNL     1      12.776  19.522  30.529  1.00  0.00     0.109 A 
HETATM    9  N7  UNL     1      13.467  19.142  29.447  1.00  0.00    -0.351 N 
ATOM     10  H7  UNL     1      13.442  19.700  28.593  1.00  0.00     0.166 HD
HETATM   11  C16 UNL     1      14.209  17.990  29.506  1.00  0.00     0.105 A 
HETATM   12  C17 UNL     1      14.260  17.216  30.650  1.00  0.00     0.033 A 
HETATM   13  C18 UNL     1      14.263  15.078  34.315  1.00  0.00     0.115 C 
HETATM   14  N8  UNL     1      15.280  14.158  34.562  1.00  0.00    -0.392 N 
HETATM   15  C19 UNL     1      15.856  14.198  35.878  1.00  0.00     0.148 C 
HETATM   16  C20 UNL     1      16.245  13.896  33.564  1.00  0.00     0.126 C 
HETATM   17  C21 UNL     1      15.823  14.142  32.155  1.00  0.00     0.063 C 
ENDROOT
BRANCH   1  18
HETATM   18  N2  UNL     1      15.662  15.585  29.811  1.00  0.00    -0.366 N 
ATOM     19  H2  UNL     1      14.981  15.034  29.288  1.00  0.00     0.165 HD
BRANCH  18  20
HETATM   20  C8  UNL     1      16.802  15.438  29.120  1.00  0.00     0.087 C 
BRANCH  20  21
HETATM   21  C7  UNL     1      17.767  16.589  28.914  1.00  0.00     0.212 C 
BRANCH  21  22
HETATM   22  O2  UNL     1      18.966  16.573  29.483  1.00  0.00    -0.384 OA
BRANCH  22  23
HETATM   23  C6  UNL     1      19.375  15.560  30.243  1.00  0.00     0.194 C 
BRANCH  23  24
HETATM   24  C5  UNL     1      19.206  15.782  31.734  1.00  0.00     0.193 C 
BRANCH  24  25
HETATM   25  O1  UNL     1      19.215  17.065  32.155  1.00  0.00    -0.387 OA
BRANCH  25  26
HETATM   26  C4  UNL     1      18.116  17.567  32.784  1.00  0.00     0.198 C 
BRANCH  26  27
HETATM   27  C3  UNL     1      17.280  18.479  31.876  1.00  0.00     0.297 C 
BRANCH  27  28
HETATM   28  N1  UNL     1      16.937  19.700  32.538  1.00  0.00     0.082 N 
HETATM   29  C1  UNL     1      18.039  20.375  33.159  1.00  0.00     0.309 C 
HETATM   30  C2  UNL     1      16.128  20.575  31.723  1.00  0.00     0.309 C 
ENDBRANCH  27  28
ENDBRANCH  26  27
ENDBRANCH  25  26
ENDBRANCH  24  25
ENDBRANCH  23  24
ENDBRANCH  22  23
ENDBRANCH  21  22
ENDBRANCH  20  21
ENDBRANCH  18  20
ENDBRANCH   1  18
BRANCH   8  31
HETATM   31  N4  UNL     1      12.085  20.607  30.447  1.00  0.00    -0.317 N 
HETATM   32  C15 UNL     1      10.991  20.650  29.549  1.00  0.00     0.187 C 
HETATM   33  N5  UNL     1       9.805  20.464  30.012  1.00  0.00    -0.373 N 
HETATM   34  N6  UNL     1      11.122  20.887  28.156  1.00  0.00    -0.064 NA
ATOM     35  H52 UNL     1       9.711  20.294  31.013  1.00  0.00     0.158 HD
ATOM     36  H51 UNL     1       9.017  20.495  29.365  1.00  0.00     0.158 HD
ATOM     37  H4  UNL     1      12.322  21.419  31.018  1.00  0.00     0.170 HD
ENDBRANCH   8  31
TORSDOF 11
ENDMDL
