MODEL 1
REMARK VINA RESULT: -8.028069637      0.000      0.000
REMARK  12 active torsions:
REMARK  status: ('A' for Active; 'I' for Inactive)
REMARK    1  A    between atoms: C2_4  and  N2_5 
REMARK    2  A    between atoms: C2_4  and  C14_26 
REMARK    3  A    between atoms: N2_5  and  C3_7 
REMARK    4  A    between atoms: C3_7  and  C4_8 
REMARK    5  A    between atoms: C4_8  and  C5_9 
REMARK    6  A    between atoms: C5_9  and  N3_10 
REMARK       I    between atoms: C6_12  and  N5_14 
REMARK    7  A    between atoms: N5_14  and  C7_16 
REMARK    8  A    between atoms: C7_16  and  C8_17 
REMARK    9  A    between atoms: N6_20  and  O1_21 
REMARK   10  A    between atoms: C16_28  and  O2_29 
REMARK   11  A    between atoms: C18_31  and  O3_32 
REMARK   12  A    between atoms: C19_34  and  O4_35 
ROOT
HETATM    1  C3  UNL     1      14.158  18.360  32.847  1.00  0.00     0.123 C 
ENDROOT
BRANCH   1   2
HETATM    2  N2  UNL     1      15.374  17.761  33.255  1.00  0.00    -0.376 N 
ATOM      3  H2  UNL     1      15.347  16.967  33.895  1.00  0.00     0.161 HD
BRANCH   2   4
HETATM    4  C2  UNL     1      16.636  18.240  32.795  1.00  0.00     0.107 C 
HETATM    5  N1  UNL     1      16.931  19.466  32.938  1.00  0.00    -0.380 N 
HETATM    6  C1  UNL     1      18.131  20.142  32.552  1.00  0.00     0.147 C 
ATOM      7  H1  UNL     1      16.220  20.044  33.387  1.00  0.00     0.160 HD
BRANCH   4   8
HETATM    8  C14 UNL     1      17.577  17.310  32.136  1.00  0.00     0.013 A 
HETATM    9  C15 UNL     1      17.723  17.309  30.761  1.00  0.00     0.055 A 
HETATM   10  C16 UNL     1      18.618  16.464  30.112  1.00  0.00     0.105 A 
HETATM   11  C18 UNL     1      19.395  15.588  30.850  1.00  0.00     0.133 A 
HETATM   12  C19 UNL     1      19.260  15.577  32.221  1.00  0.00     0.105 A 
HETATM   13  C21 UNL     1      18.355  16.436  32.858  1.00  0.00     0.055 A 
BRANCH  10  14
HETATM   14  O2  UNL     1      18.759  16.469  28.730  1.00  0.00    -0.353 OA
HETATM   15  C17 UNL     1      17.910  17.296  27.950  1.00  0.00     0.210 C 
ENDBRANCH  10  14
BRANCH  11  16
HETATM   16  O3  UNL     1      20.278  14.756  30.176  1.00  0.00    -0.356 OA
ATOM     17  H3  UNL     1      21.195  14.773  30.423  1.00  0.00     0.218 HD
ENDBRANCH  11  16
BRANCH  12  18
HETATM   18  O4  UNL     1      20.037  14.702  32.956  1.00  0.00    -0.353 OA
HETATM   19  C20 UNL     1      19.427  13.808  33.865  1.00  0.00     0.210 C 
ENDBRANCH  12  18
ENDBRANCH   4   8
ENDBRANCH   2   4
ENDBRANCH   1   2
BRANCH   1  20
HETATM   20  C4  UNL     1      13.648  17.987  31.486  1.00  0.00     0.039 C 
BRANCH  20  21
HETATM   21  C5  UNL     1      13.578  16.447  31.475  1.00  0.00     0.123 C 
BRANCH  21  22
HETATM   22  N3  UNL     1      14.371  15.932  30.397  1.00  0.00    -0.365 N 
HETATM   23  C6  UNL     1      14.976  14.800  30.403  1.00  0.00     0.184 C 
HETATM   24  N4  UNL     1      15.730  14.432  29.242  1.00  0.00    -0.064 NA
HETATM   25  N5  UNL     1      14.908  13.925  31.527  1.00  0.00    -0.360 N 
ATOM     26  H5  UNL     1      14.133  13.268  31.597  1.00  0.00     0.162 HD
ATOM     27  H3  UNL     1      14.461  16.510  29.562  1.00  0.00     0.162 HD
BRANCH  25  28
HETATM   28  C7  UNL     1      15.909  13.947  32.567  1.00  0.00     0.161 C 
BRANCH  28  29
HETATM   29  C8  UNL     1      15.256  13.889  33.888  1.00  0.00    -0.037 A 
HETATM   30  C9  UNL     1      15.996  13.749  35.043  1.00  0.00     0.028 A 
HETATM   31  C10 UNL     1      15.341  13.694  36.267  1.00  0.00     0.123 A 
HETATM   32  N6  UNL     1      14.005  13.771  36.382  1.00  0.00    -0.241 N 
HETATM   33  C11 UNL     1      13.263  13.908  35.272  1.00  0.00     0.036 A 
HETATM   34  C12 UNL     1      11.761  13.997  35.359  1.00  0.00     0.071 C 
HETATM   35  C13 UNL     1      13.883  13.965  34.049  1.00  0.00     0.036 A 
BRANCH  32  36
HETATM   36  O1  UNL     1      13.364  13.715  37.615  1.00  0.00    -0.283 OA
ATOM     37  H1  UNL     1      12.750  13.024  37.834  1.00  0.00     0.245 HD
ENDBRANCH  32  36
ENDBRANCH  28  29
ENDBRANCH  25  28
ENDBRANCH  21  22
ENDBRANCH  20  21
ENDBRANCH   1  20
TORSDOF 12
ENDMDL
MODEL 2
REMARK VINA RESULT: -7.947948806      3.786      5.705
REMARK  12 active torsions:
REMARK  status: ('A' for Active; 'I' for Inactive)
REMARK    1  A    between atoms: C2_4  and  N2_5 
REMARK    2  A    between atoms: C2_4  and  C14_26 
REMARK    3  A    between atoms: N2_5  and  C3_7 
REMARK    4  A    between atoms: C3_7  and  C4_8 
REMARK    5  A    between atoms: C4_8  and  C5_9 
REMARK    6  A    between atoms: C5_9  and  N3_10 
REMARK       I    between atoms: C6_12  and  N5_14 
REMARK    7  A    between atoms: N5_14  and  C7_16 
REMARK    8  A    between atoms: C7_16  and  C8_17 
REMARK    9  A    between atoms: N6_20  and  O1_21 
REMARK   10  A    between atoms: C16_28  and  O2_29 
REMARK   11  A    between atoms: C18_31  and  O3_32 
REMARK   12  A    between atoms: C19_34  and  O4_35 
ROOT
HETATM    1  C3  UNL     1      15.294  15.455  30.637  1.00  0.00     0.123 C 
ENDROOT
BRANCH   1   2
HETATM    2  N2  UNL     1      14.687  16.511  29.916  1.00  0.00    -0.376 N 
ATOM      3  H2  UNL     1      14.148  16.295  29.077  1.00  0.00     0.161 HD
BRANCH   2   4
HETATM    4  C2  UNL     1      14.808  17.869  30.333  1.00  0.00     0.107 C 
HETATM    5  N1  UNL     1      15.629  18.171  31.252  1.00  0.00    -0.380 N 
HETATM    6  C1  UNL     1      15.903  19.459  31.811  1.00  0.00     0.147 C 
ATOM      7  H1  UNL     1      16.162  17.395  31.644  1.00  0.00     0.160 HD
BRANCH   4   8
HETATM    8  C14 UNL     1      13.963  18.907  29.707  1.00  0.00     0.013 A 
HETATM    9  C15 UNL     1      14.313  19.467  28.492  1.00  0.00     0.055 A 
HETATM   10  C16 UNL     1      13.527  20.428  27.865  1.00  0.00     0.105 A 
HETATM   11  C18 UNL     1      12.351  20.850  28.461  1.00  0.00     0.133 A 
HETATM   12  C19 UNL     1      11.989  20.301  29.671  1.00  0.00     0.105 A 
HETATM   13  C21 UNL     1      12.792  19.335  30.288  1.00  0.00     0.055 A 
BRANCH  10  14
HETATM   14  O2  UNL     1      13.887  20.985  26.644  1.00  0.00    -0.353 OA
HETATM   15  C17 UNL     1      15.031  21.820  26.574  1.00  0.00     0.210 C 
ENDBRANCH  10  14
BRANCH  11  16
HETATM   16  O3  UNL     1      11.587  21.811  27.813  1.00  0.00    -0.356 OA
ATOM     17  H3  UNL     1      11.811  22.726  27.933  1.00  0.00     0.218 HD
ENDBRANCH  11  16
BRANCH  12  18
HETATM   18  O4  UNL     1      10.815  20.725  30.265  1.00  0.00    -0.353 OA
HETATM   19  C20 UNL     1      10.305  20.040  31.392  1.00  0.00     0.210 C 
ENDBRANCH  12  18
ENDBRANCH   4   8
ENDBRANCH   2   4
ENDBRANCH   1   2
BRANCH   1  20
HETATM   20  C4  UNL     1      16.555  14.883  30.057  1.00  0.00     0.039 C 
BRANCH  20  21
HETATM   21  C5  UNL     1      17.216  14.085  31.198  1.00  0.00     0.123 C 
BRANCH  21  22
HETATM   22  N3  UNL     1      18.615  14.392  31.258  1.00  0.00    -0.365 N 
HETATM   23  C6  UNL     1      19.310  14.458  32.336  1.00  0.00     0.184 C 
HETATM   24  N4  UNL     1      20.702  14.776  32.223  1.00  0.00    -0.064 NA
HETATM   25  N5  UNL     1      18.724  14.223  33.614  1.00  0.00    -0.360 N 
ATOM     26  H5  UNL     1      18.665  13.268  33.966  1.00  0.00     0.162 HD
ATOM     27  H3  UNL     1      19.095  14.571  30.376  1.00  0.00     0.162 HD
BRANCH  25  28
HETATM   28  C7  UNL     1      18.210  15.303  34.423  1.00  0.00     0.161 C 
BRANCH  28  29
HETATM   29  C8  UNL     1      16.757  15.140  34.609  1.00  0.00    -0.037 A 
HETATM   30  C9  UNL     1      16.230  13.972  35.117  1.00  0.00     0.028 A 
HETATM   31  C10 UNL     1      14.854  13.857  35.273  1.00  0.00     0.123 A 
HETATM   32  N6  UNL     1      14.001  14.842  34.948  1.00  0.00    -0.241 N 
HETATM   33  C11 UNL     1      14.489  15.990  34.452  1.00  0.00     0.036 A 
HETATM   34  C12 UNL     1      13.564  17.118  34.075  1.00  0.00     0.071 C 
HETATM   35  C13 UNL     1      15.845  16.131  34.288  1.00  0.00     0.036 A 
BRANCH  32  36
HETATM   36  O1  UNL     1      12.625  14.713  35.110  1.00  0.00    -0.283 OA
ATOM     37  H1  UNL     1      12.030  14.686  34.371  1.00  0.00     0.245 HD
ENDBRANCH  32  36
ENDBRANCH  28  29
ENDBRANCH  25  28
ENDBRANCH  21  22
ENDBRANCH  20  21
ENDBRANCH   1  20
TORSDOF 12
ENDMDL
MODEL 3
REMARK VINA RESULT: -7.943783814      3.301      5.012
REMARK  12 active torsions:
REMARK  status: ('A' for Active; 'I' for Inactive)
REMARK    1  A    between atoms: C2_4  and  N2_5 
REMARK    2  A    between atoms: C2_4  and  C14_26 
REMARK    3  A    between atoms: N2_5  and  C3_7 
REMARK    4  A    between atoms: C3_7  and  C4_8 
REMARK    5  A    between atoms: C4_8  and  C5_9 
REMARK    6  A    between atoms: C5_9  and  N3_10 
REMARK       I    between atoms: C6_12  and  N5_14 
REMARK    7  A    between atoms: N5_14  and  C7_16 
REMARK    8  A    between atoms: C7_16  and  C8_17 
REMARK    9  A    between atoms: N6_20  and  O1_21 
REMARK   10  A    between atoms: C16_28  and  O2_29 
REMARK   11  A    between atoms: C18_31  and  O3_32 
REMARK   12  A    between atoms: C19_34  and  O4_35 
ROOT
HETATM    1  C3  UNL     1      15.949  15.733  29.846  1.00  0.00     0.123 C 
ENDROOT
BRANCH   1   2
HETATM    2  N2  UNL     1      14.885  16.662  29.761  1.00  0.00    -0.376 N 
ATOM      3  H2  UNL     1      14.375  16.756  28.883  1.00  0.00     0.161 HD
BRANCH   2   4
HETATM    4  C2  UNL     1      14.509  17.473  30.873  1.00  0.00     0.107 C 
HETATM    5  N1  UNL     1      13.981  16.932  31.892  1.00  0.00    -0.380 N 
HETATM    6  C1  UNL     1      13.537  17.557  33.100  1.00  0.00     0.147 C 
ATOM      7  H1  UNL     1      13.856  15.921  31.843  1.00  0.00     0.160 HD
BRANCH   4   8
HETATM    8  C14 UNL     1      14.717  18.935  30.818  1.00  0.00     0.013 A 
HETATM    9  C15 UNL     1      13.835  19.749  30.132  1.00  0.00     0.055 A 
HETATM   10  C16 UNL     1      13.989  21.131  30.081  1.00  0.00     0.105 A 
HETATM   11  C18 UNL     1      15.054  21.728  30.733  1.00  0.00     0.133 A 
HETATM   12  C19 UNL     1      15.941  20.930  31.420  1.00  0.00     0.105 A 
HETATM   13  C21 UNL     1      15.771  19.541  31.461  1.00  0.00     0.055 A 
BRANCH  10  14
HETATM   14  O2  UNL     1      13.098  21.942  29.390  1.00  0.00    -0.353 OA
HETATM   15  C17 UNL     1      12.960  21.782  27.987  1.00  0.00     0.210 C 
ENDBRANCH  10  14
BRANCH  11  16
HETATM   16  O3  UNL     1      15.183  23.109  30.665  1.00  0.00    -0.356 OA
ATOM     17  H3  UNL     1      15.725  23.481  29.979  1.00  0.00     0.218 HD
ENDBRANCH  11  16
BRANCH  12  18
HETATM   18  O4  UNL     1      17.004  21.529  32.070  1.00  0.00    -0.353 OA
HETATM   19  C20 UNL     1      18.013  20.732  32.658  1.00  0.00     0.210 C 
ENDBRANCH  12  18
ENDBRANCH   4   8
ENDBRANCH   2   4
ENDBRANCH   1   2
BRANCH   1  20
HETATM   20  C4  UNL     1      17.339  16.298  29.828  1.00  0.00     0.039 C 
BRANCH  20  21
HETATM   21  C5  UNL     1      17.765  16.406  31.305  1.00  0.00     0.123 C 
BRANCH  21  22
HETATM   22  N3  UNL     1      19.136  16.012  31.446  1.00  0.00    -0.365 N 
HETATM   23  C6  UNL     1      19.541  14.953  32.048  1.00  0.00     0.184 C 
HETATM   24  N4  UNL     1      20.951  14.703  32.100  1.00  0.00    -0.064 NA
HETATM   25  N5  UNL     1      18.624  14.045  32.654  1.00  0.00    -0.360 N 
ATOM     26  H5  UNL     1      18.212  13.305  32.087  1.00  0.00     0.162 HD
ATOM     27  H3  UNL     1      19.845  16.620  31.035  1.00  0.00     0.162 HD
BRANCH  25  28
HETATM   28  C7  UNL     1      18.264  14.147  34.048  1.00  0.00     0.161 C 
BRANCH  28  29
HETATM   29  C8  UNL     1      16.802  14.024  34.196  1.00  0.00    -0.037 A 
HETATM   30  C9  UNL     1      15.978  13.952  33.093  1.00  0.00     0.028 A 
HETATM   31  C10 UNL     1      14.605  13.841  33.276  1.00  0.00     0.123 A 
HETATM   32  N6  UNL     1      14.034  13.800  34.492  1.00  0.00    -0.241 N 
HETATM   33  C11 UNL     1      14.815  13.867  35.581  1.00  0.00     0.036 A 
HETATM   34  C12 UNL     1      14.213  13.825  36.962  1.00  0.00     0.071 C 
HETATM   35  C13 UNL     1      16.175  13.977  35.430  1.00  0.00     0.036 A 
BRANCH  32  36
HETATM   36  O1  UNL     1      12.658  13.687  34.659  1.00  0.00    -0.283 OA
ATOM     37  H1  UNL     1      12.233  12.849  34.798  1.00  0.00     0.245 HD
ENDBRANCH  32  36
ENDBRANCH  28  29
ENDBRANCH  25  28
ENDBRANCH  21  22
ENDBRANCH  20  21
ENDBRANCH   1  20
TORSDOF 12
ENDMDL
MODEL 4
REMARK VINA RESULT: -7.928119239      3.295      5.408
REMARK  12 active torsions:
REMARK  status: ('A' for Active; 'I' for Inactive)
REMARK    1  A    between atoms: C2_4  and  N2_5 
REMARK    2  A    between atoms: C2_4  and  C14_26 
REMARK    3  A    between atoms: N2_5  and  C3_7 
REMARK    4  A    between atoms: C3_7  and  C4_8 
REMARK    5  A    between atoms: C4_8  and  C5_9 
REMARK    6  A    between atoms: C5_9  and  N3_10 
REMARK       I    between atoms: C6_12  and  N5_14 
REMARK    7  A    between atoms: N5_14  and  C7_16 
REMARK    8  A    between atoms: C7_16  and  C8_17 
REMARK    9  A    between atoms: N6_20  and  O1_21 
REMARK   10  A    between atoms: C16_28  and  O2_29 
REMARK   11  A    between atoms: C18_31  and  O3_32 
REMARK   12  A    between atoms: C19_34  and  O4_35 
ROOT
HETATM    1  C3  UNL     1      15.937  15.809  29.868  1.00  0.00     0.123 C 
ENDROOT
BRANCH   1   2
HETATM    2  N2  UNL     1      14.831  16.689  29.812  1.00  0.00    -0.376 N 
ATOM      3  H2  UNL     1      14.287  16.750  28.951  1.00  0.00     0.161 HD
BRANCH   2   4
HETATM    4  C2  UNL     1      14.457  17.495  30.928  1.00  0.00     0.107 C 
HETATM    5  N1  UNL     1      13.956  16.946  31.957  1.00  0.00    -0.380 N 
HETATM    6  C1  UNL     1      13.520  17.565  33.171  1.00  0.00     0.147 C 
ATOM      7  H1  UNL     1      13.850  15.932  31.912  1.00  0.00     0.160 HD
BRANCH   4   8
HETATM    8  C14 UNL     1      14.636  18.960  30.867  1.00  0.00     0.013 A 
HETATM    9  C15 UNL     1      15.715  19.568  31.483  1.00  0.00     0.055 A 
HETATM   10  C16 UNL     1      15.924  20.942  31.424  1.00  0.00     0.105 A 
HETATM   11  C18 UNL     1      15.034  21.744  30.731  1.00  0.00     0.133 A 
HETATM   12  C19 UNL     1      13.955  21.153  30.112  1.00  0.00     0.105 A 
HETATM   13  C21 UNL     1      13.759  19.768  30.182  1.00  0.00     0.055 A 
BRANCH  10  14
HETATM   14  O2  UNL     1      17.011  21.544  32.045  1.00  0.00    -0.353 OA
HETATM   15  C17 UNL     1      17.975  20.732  32.696  1.00  0.00     0.210 C 
ENDBRANCH  10  14
BRANCH  11  16
HETATM   16  O3  UNL     1      15.268  23.112  30.689  1.00  0.00    -0.356 OA
ATOM     17  H3  UNL     1      16.140  23.416  30.465  1.00  0.00     0.218 HD
ENDBRANCH  11  16
BRANCH  12  18
HETATM   18  O4  UNL     1      13.067  21.956  29.421  1.00  0.00    -0.353 OA
HETATM   19  C20 UNL     1      12.832  21.729  28.046  1.00  0.00     0.210 C 
ENDBRANCH  12  18
ENDBRANCH   4   8
ENDBRANCH   2   4
ENDBRANCH   1   2
BRANCH   1  20
HETATM   20  C4  UNL     1      17.298  16.441  29.900  1.00  0.00     0.039 C 
BRANCH  20  21
HETATM   21  C5  UNL     1      17.728  16.434  31.380  1.00  0.00     0.123 C 
BRANCH  21  22
HETATM   22  N3  UNL     1      19.101  16.035  31.486  1.00  0.00    -0.365 N 
HETATM   23  C6  UNL     1      19.513  14.950  32.034  1.00  0.00     0.184 C 
HETATM   24  N4  UNL     1      20.923  14.698  32.057  1.00  0.00    -0.064 NA
HETATM   25  N5  UNL     1      18.604  14.013  32.607  1.00  0.00    -0.360 N 
ATOM     26  H5  UNL     1      18.185  13.300  32.012  1.00  0.00     0.162 HD
ATOM     27  H3  UNL     1      19.804  16.662  31.095  1.00  0.00     0.162 HD
BRANCH  25  28
HETATM   28  C7  UNL     1      18.260  14.050  34.009  1.00  0.00     0.161 C 
BRANCH  28  29
HETATM   29  C8  UNL     1      16.794  13.998  34.164  1.00  0.00    -0.037 A 
HETATM   30  C9  UNL     1      15.963  13.931  33.067  1.00  0.00     0.028 A 
HETATM   31  C10 UNL     1      14.587  13.888  33.257  1.00  0.00     0.123 A 
HETATM   32  N6  UNL     1      14.020  13.909  34.475  1.00  0.00    -0.241 N 
HETATM   33  C11 UNL     1      14.808  13.972  35.559  1.00  0.00     0.036 A 
HETATM   34  C12 UNL     1      14.211  13.998  36.943  1.00  0.00     0.071 C 
HETATM   35  C13 UNL     1      16.171  14.016  35.401  1.00  0.00     0.036 A 
BRANCH  32  36
HETATM   36  O1  UNL     1      12.641  13.864  34.650  1.00  0.00    -0.283 OA
ATOM     37  H1  UNL     1      12.213  14.265  35.397  1.00  0.00     0.245 HD
ENDBRANCH  32  36
ENDBRANCH  28  29
ENDBRANCH  25  28
ENDBRANCH  21  22
ENDBRANCH  20  21
ENDBRANCH   1  20
TORSDOF 12
ENDMDL
MODEL 5
REMARK VINA RESULT: -7.913962037      3.804      5.971
REMARK  12 active torsions:
REMARK  status: ('A' for Active; 'I' for Inactive)
REMARK    1  A    between atoms: C2_4  and  N2_5 
REMARK    2  A    between atoms: C2_4  and  C14_26 
REMARK    3  A    between atoms: N2_5  and  C3_7 
REMARK    4  A    between atoms: C3_7  and  C4_8 
REMARK    5  A    between atoms: C4_8  and  C5_9 
REMARK    6  A    between atoms: C5_9  and  N3_10 
REMARK       I    between atoms: C6_12  and  N5_14 
REMARK    7  A    between atoms: N5_14  and  C7_16 
REMARK    8  A    between atoms: C7_16  and  C8_17 
REMARK    9  A    between atoms: N6_20  and  O1_21 
REMARK   10  A    between atoms: C16_28  and  O2_29 
REMARK   11  A    between atoms: C18_31  and  O3_32 
REMARK   12  A    between atoms: C19_34  and  O4_35 
ROOT
HETATM    1  C3  UNL     1      15.301  15.464  30.619  1.00  0.00     0.123 C 
ENDROOT
BRANCH   1   2
HETATM    2  N2  UNL     1      14.671  16.500  29.889  1.00  0.00    -0.376 N 
ATOM      3  H2  UNL     1      14.126  16.265  29.060  1.00  0.00     0.161 HD
BRANCH   2   4
HETATM    4  C2  UNL     1      14.780  17.866  30.284  1.00  0.00     0.107 C 
HETATM    5  N1  UNL     1      15.577  18.187  31.218  1.00  0.00    -0.380 N 
HETATM    6  C1  UNL     1      15.835  19.486  31.760  1.00  0.00     0.147 C 
ATOM      7  H1  UNL     1      16.103  17.419  31.636  1.00  0.00     0.160 HD
BRANCH   4   8
HETATM    8  C14 UNL     1      13.947  18.890  29.620  1.00  0.00     0.013 A 
HETATM    9  C15 UNL     1      12.767  19.324  30.195  1.00  0.00     0.055 A 
HETATM   10  C16 UNL     1      11.972  20.303  29.608  1.00  0.00     0.105 A 
HETATM   11  C18 UNL     1      12.359  20.873  28.407  1.00  0.00     0.133 A 
HETATM   12  C19 UNL     1      13.532  20.451  27.822  1.00  0.00     0.105 A 
HETATM   13  C21 UNL     1      14.320  19.464  28.427  1.00  0.00     0.055 A 
BRANCH  10  14
HETATM   14  O2  UNL     1      10.788  20.734  30.193  1.00  0.00    -0.353 OA
HETATM   15  C17 UNL     1      10.276  20.036  31.317  1.00  0.00     0.210 C 
ENDBRANCH  10  14
BRANCH  11  16
HETATM   16  O3  UNL     1      11.547  21.848  27.844  1.00  0.00    -0.356 OA
ATOM     17  H3  UNL     1      10.867  21.577  27.237  1.00  0.00     0.218 HD
ENDBRANCH  11  16
BRANCH  12  18
HETATM   18  O4  UNL     1      13.916  21.022  26.623  1.00  0.00    -0.353 OA
HETATM   19  C20 UNL     1      15.055  21.858  26.571  1.00  0.00     0.210 C 
ENDBRANCH  12  18
ENDBRANCH   4   8
ENDBRANCH   2   4
ENDBRANCH   1   2
BRANCH   1  20
HETATM   20  C4  UNL     1      16.569  14.908  30.039  1.00  0.00     0.039 C 
BRANCH  20  21
HETATM   21  C5  UNL     1      17.235  14.111  31.178  1.00  0.00     0.123 C 
BRANCH  21  22
HETATM   22  N3  UNL     1      18.634  14.421  31.234  1.00  0.00    -0.365 N 
HETATM   23  C6  UNL     1      19.332  14.486  32.309  1.00  0.00     0.184 C 
HETATM   24  N4  UNL     1      20.723  14.809  32.193  1.00  0.00    -0.064 NA
HETATM   25  N5  UNL     1      18.751  14.247  33.589  1.00  0.00    -0.360 N 
ATOM     26  H5  UNL     1      18.697  13.291  33.939  1.00  0.00     0.162 HD
ATOM     27  H3  UNL     1      19.111  14.604  30.351  1.00  0.00     0.162 HD
BRANCH  25  28
HETATM   28  C7  UNL     1      18.238  15.324  34.403  1.00  0.00     0.161 C 
BRANCH  28  29
HETATM   29  C8  UNL     1      16.787  15.149  34.604  1.00  0.00    -0.037 A 
HETATM   30  C9  UNL     1      16.276  13.978  35.121  1.00  0.00     0.028 A 
HETATM   31  C10 UNL     1      14.902  13.852  35.291  1.00  0.00     0.123 A 
HETATM   32  N6  UNL     1      14.037  14.829  34.971  1.00  0.00    -0.241 N 
HETATM   33  C11 UNL     1      14.511  15.979  34.467  1.00  0.00     0.036 A 
HETATM   34  C12 UNL     1      13.573  17.098  34.095  1.00  0.00     0.071 C 
HETATM   35  C13 UNL     1      15.864  16.131  34.288  1.00  0.00     0.036 A 
BRANCH  32  36
HETATM   36  O1  UNL     1      12.665  14.689  35.148  1.00  0.00    -0.283 OA
ATOM     37  H1  UNL     1      12.266  14.674  36.010  1.00  0.00     0.245 HD
ENDBRANCH  32  36
ENDBRANCH  28  29
ENDBRANCH  25  28
ENDBRANCH  21  22
ENDBRANCH  20  21
ENDBRANCH   1  20
TORSDOF 12
ENDMDL
