MODEL 1
REMARK VINA RESULT: -7.706258877      0.000      0.000
REMARK  18 active torsions:
REMARK  status: ('A' for Active; 'I' for Inactive)
REMARK    1  A    between atoms: C2_3  and  O1_4 
REMARK    2  A    between atoms: C3_6  and  C4_7 
REMARK    3  A    between atoms: C4_7  and  N2_8 
REMARK       I    between atoms: N2_8  and  C5_10 
REMARK    4  A    between atoms: C5_10  and  C6_12 
REMARK    5  A    between atoms: C6_12  and  C7_13 
REMARK    6  A    between atoms: C7_13  and  N3_14 
REMARK    7  A    between atoms: C7_13  and  C8_18 
REMARK    8  A    between atoms: C8_18  and  C9_19 
REMARK    9  A    between atoms: C9_19  and  C10_20 
REMARK   10  A    between atoms: C10_20  and  C11_21 
REMARK   11  A    between atoms: C11_21  and  N4_22 
REMARK   12  A    between atoms: C15_29  and  O3_30 
REMARK   13  A    between atoms: C21_38  and  O4_39 
REMARK   14  A    between atoms: C22_41  and  C23_42 
REMARK   15  A    between atoms: C23_42  and  C24_43 
REMARK   16  A    between atoms: C24_43  and  C25_44 
REMARK   17  A    between atoms: C25_44  and  C26_45 
REMARK   18  A    between atoms: C26_45  and  N6_46 
ROOT
HETATM    1  C1  UNL     1      15.078  13.941  31.057  1.00  0.00     0.152 C 
HETATM    2  N1  UNL     1      15.417  14.594  32.358  1.00  0.00    -0.354 N 
HETATM    3  C2  UNL     1      14.465  15.496  32.852  1.00  0.00     0.146 C 
HETATM    4  C3  UNL     1      14.426  16.725  33.591  1.00  0.00     0.007 C 
HETATM    5  C12 UNL     1      15.319  17.844  33.486  1.00  0.00    -0.009 C 
HETATM    6  C13 UNL     1      16.530  17.809  32.623  1.00  0.00     0.013 C 
HETATM    7  C14 UNL     1      17.307  19.143  32.677  1.00  0.00     0.040 C 
HETATM    8  C15 UNL     1      18.717  19.006  32.274  1.00  0.00     0.124 C 
HETATM    9  C16 UNL     1      19.177  18.045  31.300  1.00  0.00     0.034 C 
HETATM   10  C17 UNL     1      18.414  17.710  30.088  1.00  0.00     0.034 C 
HETATM   11  C18 UNL     1      17.419  16.678  30.671  1.00  0.00     0.087 C 
HETATM   12  C19 UNL     1      16.322  17.551  31.198  1.00  0.00     0.034 C 
HETATM   13  N5  UNL     1      18.175  15.891  31.589  1.00  0.00    -0.359 N 
HETATM   14  C20 UNL     1      19.436  16.637  31.814  1.00  0.00     0.132 C 
HETATM   15  C21 UNL     1      17.873  14.650  32.165  1.00  0.00     0.137 C 
HETATM   16  C22 UNL     1      16.676  14.169  32.886  1.00  0.00     0.160 C 
ENDROOT
BRANCH   4  17
HETATM   17  C4  UNL     1      12.993  17.298  33.722  1.00  0.00     0.165 C 
BRANCH  17  18
HETATM   18  N2  UNL     1      12.813  18.553  33.125  1.00  0.00    -0.357 N 
HETATM   19  C5  UNL     1      12.563  18.682  31.743  1.00  0.00     0.219 C 
HETATM   20  O2  UNL     1      12.503  17.631  31.052  1.00  0.00    -0.274 OA
ATOM     21  H2  UNL     1      12.864  19.392  33.703  1.00  0.00     0.162 HD
BRANCH  19  22
HETATM   22  C6  UNL     1      12.366  19.991  31.071  1.00  0.00     0.135 C 
BRANCH  22  23
HETATM   23  C7  UNL     1      12.189  19.786  29.582  1.00  0.00     0.192 C 
BRANCH  23  24
HETATM   24  N3  UNL     1      10.797  19.856  29.196  1.00  0.00    -0.075 N 
ATOM     25  H33 UNL     1      10.325  20.640  29.647  1.00  0.00     0.274 HD
ATOM     26  H32 UNL     1      10.694  20.147  28.224  1.00  0.00     0.274 HD
ATOM     27  H31 UNL     1      10.313  18.977  29.376  1.00  0.00     0.274 HD
ENDBRANCH  23  24
BRANCH  23  28
HETATM   28  C8  UNL     1      12.970  20.778  28.785  1.00  0.00     0.033 C 
BRANCH  28  29
HETATM   29  C9  UNL     1      14.441  20.571  29.021  1.00  0.00     0.004 C 
BRANCH  29  30
HETATM   30  C10 UNL     1      15.159  21.805  29.462  1.00  0.00     0.027 C 
BRANCH  30  31
HETATM   31  C11 UNL     1      15.449  21.844  30.936  1.00  0.00     0.229 C 
BRANCH  31  32
HETATM   32  N4  UNL     1      16.794  22.239  31.246  1.00  0.00    -0.079 N 
ATOM     33  H43 UNL     1      17.424  22.005  30.480  1.00  0.00     0.274 HD
ATOM     34  H42 UNL     1      16.883  23.255  31.235  1.00  0.00     0.274 HD
ATOM     35  H41 UNL     1      17.140  21.856  32.126  1.00  0.00     0.274 HD
ENDBRANCH  31  32
ENDBRANCH  30  31
ENDBRANCH  29  30
ENDBRANCH  28  29
ENDBRANCH  23  28
ENDBRANCH  22  23
ENDBRANCH  19  22
ENDBRANCH  17  18
ENDBRANCH   4  17
BRANCH   3  36
HETATM   36  O1  UNL     1      13.258  15.086  32.543  1.00  0.00    -0.346 OA
ATOM     37  H1  UNL     1      12.611  15.611  33.001  1.00  0.00     0.219 HD
ENDBRANCH   3  36
BRANCH  16  38
HETATM   38  C23 UNL     1      16.801  14.313  34.391  1.00  0.00     0.034 C 
BRANCH  38  39
HETATM   39  C24 UNL     1      16.034  13.232  35.110  1.00  0.00     0.004 C 
BRANCH  39  40
HETATM   40  C25 UNL     1      15.401  13.775  36.365  1.00  0.00     0.027 C 
BRANCH  40  41
HETATM   41  C26 UNL     1      13.920  13.994  36.227  1.00  0.00     0.229 C 
BRANCH  41  42
HETATM   42  N6  UNL     1      13.359  13.229  35.124  1.00  0.00    -0.079 N 
ATOM     43  H63 UNL     1      12.897  12.381  35.457  1.00  0.00     0.274 HD
ATOM     44  H62 UNL     1      12.551  13.701  34.717  1.00  0.00     0.274 HD
ATOM     45  H61 UNL     1      14.059  13.015  34.415  1.00  0.00     0.274 HD
ENDBRANCH  41  42
ENDBRANCH  40  41
ENDBRANCH  39  40
ENDBRANCH  38  39
ENDBRANCH  16  38
BRANCH  15  46
HETATM   46  O4  UNL     1      18.814  13.759  32.050  1.00  0.00    -0.348 OA
ATOM     47  H4  UNL     1      19.166  13.448  32.875  1.00  0.00     0.219 HD
ENDBRANCH  15  46
BRANCH   8  48
HETATM   48  O3  UNL     1      19.144  20.296  31.862  1.00  0.00    -0.395 OA
ATOM     49  H3  UNL     1      20.094  20.287  31.893  1.00  0.00     0.210 HD
ENDBRANCH   8  48
TORSDOF 18
ENDMDL
MODEL 2
REMARK VINA RESULT: -7.670823158      2.537      5.330
REMARK  18 active torsions:
REMARK  status: ('A' for Active; 'I' for Inactive)
REMARK    1  A    between atoms: C2_3  and  O1_4 
REMARK    2  A    between atoms: C3_6  and  C4_7 
REMARK    3  A    between atoms: C4_7  and  N2_8 
REMARK       I    between atoms: N2_8  and  C5_10 
REMARK    4  A    between atoms: C5_10  and  C6_12 
REMARK    5  A    between atoms: C6_12  and  C7_13 
REMARK    6  A    between atoms: C7_13  and  N3_14 
REMARK    7  A    between atoms: C7_13  and  C8_18 
REMARK    8  A    between atoms: C8_18  and  C9_19 
REMARK    9  A    between atoms: C9_19  and  C10_20 
REMARK   10  A    between atoms: C10_20  and  C11_21 
REMARK   11  A    between atoms: C11_21  and  N4_22 
REMARK   12  A    between atoms: C15_29  and  O3_30 
REMARK   13  A    between atoms: C21_38  and  O4_39 
REMARK   14  A    between atoms: C22_41  and  C23_42 
REMARK   15  A    between atoms: C23_42  and  C24_43 
REMARK   16  A    between atoms: C24_43  and  C25_44 
REMARK   17  A    between atoms: C25_44  and  C26_45 
REMARK   18  A    between atoms: C26_45  and  N6_46 
ROOT
HETATM    1  C1  UNL     1      17.120  19.357  33.135  1.00  0.00     0.152 C 
HETATM    2  N1  UNL     1      16.832  18.399  32.025  1.00  0.00    -0.354 N 
HETATM    3  C2  UNL     1      15.786  18.761  31.166  1.00  0.00     0.146 C 
HETATM    4  C3  UNL     1      14.748  18.128  30.405  1.00  0.00     0.007 C 
HETATM    5  C12 UNL     1      13.946  16.999  30.779  1.00  0.00    -0.009 C 
HETATM    6  C13 UNL     1      14.192  16.238  32.033  1.00  0.00     0.013 C 
HETATM    7  C14 UNL     1      13.180  15.083  32.207  1.00  0.00     0.040 C 
HETATM    8  C15 UNL     1      13.660  14.028  33.115  1.00  0.00     0.124 C 
HETATM    9  C16 UNL     1      14.532  14.278  34.238  1.00  0.00     0.034 C 
HETATM   10  C17 UNL     1      14.410  15.470  35.091  1.00  0.00     0.034 C 
HETATM   11  C18 UNL     1      15.182  16.500  34.231  1.00  0.00     0.087 C 
HETATM   12  C19 UNL     1      14.127  16.988  33.289  1.00  0.00     0.034 C 
HETATM   13  N5  UNL     1      16.305  15.795  33.704  1.00  0.00    -0.359 N 
HETATM   14  C20 UNL     1      16.020  14.358  33.931  1.00  0.00     0.132 C 
HETATM   15  C21 UNL     1      17.479  16.289  33.121  1.00  0.00     0.137 C 
HETATM   16  C22 UNL     1      17.698  17.261  32.029  1.00  0.00     0.160 C 
ENDROOT
BRANCH   4  17
HETATM   17  C4  UNL     1      13.806  19.147  29.717  1.00  0.00     0.165 C 
BRANCH  17  18
HETATM   18  N2  UNL     1      12.482  19.116  30.178  1.00  0.00    -0.357 N 
HETATM   19  C5  UNL     1      12.049  19.950  31.230  1.00  0.00     0.219 C 
HETATM   20  O2  UNL     1      12.888  20.732  31.749  1.00  0.00    -0.274 OA
ATOM     21  H2  UNL     1      11.818  18.476  29.743  1.00  0.00     0.162 HD
BRANCH  19  22
HETATM   22  C6  UNL     1      10.657  19.949  31.748  1.00  0.00     0.135 C 
BRANCH  22  23
HETATM   23  C7  UNL     1       9.729  20.581  30.734  1.00  0.00     0.192 C 
BRANCH  23  24
HETATM   24  N3  UNL     1      10.452  21.400  29.788  1.00  0.00    -0.075 N 
ATOM     25  H33 UNL     1      11.396  21.603  30.115  1.00  0.00     0.274 HD
ATOM     26  H32 UNL     1      10.686  20.877  28.944  1.00  0.00     0.274 HD
ATOM     27  H31 UNL     1       9.944  22.256  29.566  1.00  0.00     0.274 HD
ENDBRANCH  23  24
BRANCH  23  28
HETATM   28  C8  UNL     1       8.934  19.558  29.991  1.00  0.00     0.033 C 
BRANCH  28  29
HETATM   29  C9  UNL     1       8.313  20.186  28.774  1.00  0.00     0.004 C 
BRANCH  29  30
HETATM   30  C10 UNL     1       6.819  20.156  28.778  1.00  0.00     0.027 C 
BRANCH  30  31
HETATM   31  C11 UNL     1       6.193  21.226  29.628  1.00  0.00     0.229 C 
BRANCH  31  32
HETATM   32  N4  UNL     1       6.845  22.500  29.521  1.00  0.00    -0.079 N 
ATOM     33  H43 UNL     1       7.829  22.424  29.776  1.00  0.00     0.274 HD
ATOM     34  H42 UNL     1       6.944  22.773  28.543  1.00  0.00     0.274 HD
ATOM     35  H41 UNL     1       6.390  23.239  30.058  1.00  0.00     0.274 HD
ENDBRANCH  31  32
ENDBRANCH  30  31
ENDBRANCH  29  30
ENDBRANCH  28  29
ENDBRANCH  23  28
ENDBRANCH  22  23
ENDBRANCH  19  22
ENDBRANCH  17  18
ENDBRANCH   4  17
BRANCH   3  36
HETATM   36  O1  UNL     1      15.758  20.065  31.020  1.00  0.00    -0.346 OA
ATOM     37  H1  UNL     1      15.629  20.482  31.864  1.00  0.00     0.219 HD
ENDBRANCH   3  36
BRANCH  16  38
HETATM   38  C23 UNL     1      17.858  16.595  30.676  1.00  0.00     0.034 C 
BRANCH  38  39
HETATM   39  C24 UNL     1      17.323  15.185  30.693  1.00  0.00     0.004 C 
BRANCH  39  40
HETATM   40  C25 UNL     1      16.380  14.961  29.540  1.00  0.00     0.027 C 
BRANCH  40  41
HETATM   41  C26 UNL     1      15.512  13.746  29.720  1.00  0.00     0.229 C 
BRANCH  41  42
HETATM   42  N6  UNL     1      15.999  12.886  30.788  1.00  0.00    -0.079 N 
ATOM     43  H63 UNL     1      16.128  11.927  30.463  1.00  0.00     0.274 HD
ATOM     44  H62 UNL     1      16.966  13.105  31.029  1.00  0.00     0.274 HD
ATOM     45  H61 UNL     1      15.395  12.921  31.609  1.00  0.00     0.274 HD
ENDBRANCH  41  42
ENDBRANCH  40  41
ENDBRANCH  39  40
ENDBRANCH  38  39
ENDBRANCH  16  38
BRANCH  15  46
HETATM   46  O4  UNL     1      18.577  15.805  33.625  1.00  0.00    -0.348 OA
ATOM     47  H4  UNL     1      18.941  16.317  34.337  1.00  0.00     0.219 HD
ENDBRANCH  15  46
BRANCH   8  48
HETATM   48  O3  UNL     1      12.506  13.352  33.591  1.00  0.00    -0.395 OA
ATOM     49  H3  UNL     1      12.373  12.609  33.015  1.00  0.00     0.210 HD
ENDBRANCH   8  48
TORSDOF 18
ENDMDL
MODEL 3
REMARK VINA RESULT: -7.619928563      2.355      2.842
REMARK  18 active torsions:
REMARK  status: ('A' for Active; 'I' for Inactive)
REMARK    1  A    between atoms: C2_3  and  O1_4 
REMARK    2  A    between atoms: C3_6  and  C4_7 
REMARK    3  A    between atoms: C4_7  and  N2_8 
REMARK       I    between atoms: N2_8  and  C5_10 
REMARK    4  A    between atoms: C5_10  and  C6_12 
REMARK    5  A    between atoms: C6_12  and  C7_13 
REMARK    6  A    between atoms: C7_13  and  N3_14 
REMARK    7  A    between atoms: C7_13  and  C8_18 
REMARK    8  A    between atoms: C8_18  and  C9_19 
REMARK    9  A    between atoms: C9_19  and  C10_20 
REMARK   10  A    between atoms: C10_20  and  C11_21 
REMARK   11  A    between atoms: C11_21  and  N4_22 
REMARK   12  A    between atoms: C15_29  and  O3_30 
REMARK   13  A    between atoms: C21_38  and  O4_39 
REMARK   14  A    between atoms: C22_41  and  C23_42 
REMARK   15  A    between atoms: C23_42  and  C24_43 
REMARK   16  A    between atoms: C24_43  and  C25_44 
REMARK   17  A    between atoms: C25_44  and  C26_45 
REMARK   18  A    between atoms: C26_45  and  N6_46 
ROOT
HETATM    1  C1  UNL     1      14.881  14.473  30.653  1.00  0.00     0.152 C 
HETATM    2  N1  UNL     1      14.541  15.422  31.756  1.00  0.00    -0.354 N 
HETATM    3  C2  UNL     1      13.594  16.406  31.442  1.00  0.00     0.146 C 
HETATM    4  C3  UNL     1      13.316  17.776  31.763  1.00  0.00     0.007 C 
HETATM    5  C12 UNL     1      14.254  18.846  31.945  1.00  0.00    -0.009 C 
HETATM    6  C13 UNL     1      15.724  18.618  31.927  1.00  0.00     0.013 C 
HETATM    7  C14 UNL     1      16.508  19.934  32.128  1.00  0.00     0.040 C 
HETATM    8  C15 UNL     1      17.881  19.719  32.614  1.00  0.00     0.124 C 
HETATM    9  C16 UNL     1      18.671  18.558  32.281  1.00  0.00     0.034 C 
HETATM   10  C17 UNL     1      18.650  17.934  30.949  1.00  0.00     0.034 C 
HETATM   11  C18 UNL     1      17.378  17.062  31.079  1.00  0.00     0.087 C 
HETATM   12  C19 UNL     1      16.290  18.023  30.716  1.00  0.00     0.034 C 
HETATM   13  N5  UNL     1      17.413  16.526  32.399  1.00  0.00    -0.359 N 
HETATM   14  C20 UNL     1      18.433  17.317  33.127  1.00  0.00     0.132 C 
HETATM   15  C21 UNL     1      16.696  15.456  32.952  1.00  0.00     0.137 C 
HETATM   16  C22 UNL     1      15.250  15.149  32.967  1.00  0.00     0.160 C 
ENDROOT
BRANCH   4  17
HETATM   17  C4  UNL     1      12.124  18.348  30.957  1.00  0.00     0.165 C 
BRANCH  17  18
HETATM   18  N2  UNL     1      12.489  19.047  29.798  1.00  0.00    -0.357 N 
HETATM   19  C5  UNL     1      11.966  20.326  29.514  1.00  0.00     0.219 C 
HETATM   20  O2  UNL     1      11.156  20.830  30.336  1.00  0.00    -0.274 OA
ATOM     21  H2  UNL     1      13.148  18.622  29.146  1.00  0.00     0.162 HD
BRANCH  19  22
HETATM   22  C6  UNL     1      12.326  21.101  28.300  1.00  0.00     0.135 C 
BRANCH  22  23
HETATM   23  C7  UNL     1      13.503  22.006  28.595  1.00  0.00     0.192 C 
BRANCH  23  24
HETATM   24  N3  UNL     1      13.891  21.938  29.986  1.00  0.00    -0.075 N 
ATOM     25  H33 UNL     1      13.403  22.638  30.544  1.00  0.00     0.274 HD
ATOM     26  H32 UNL     1      13.527  21.096  30.434  1.00  0.00     0.274 HD
ATOM     27  H31 UNL     1      14.902  22.011  30.097  1.00  0.00     0.274 HD
ENDBRANCH  23  24
BRANCH  23  28
HETATM   28  C8  UNL     1      14.684  21.684  27.739  1.00  0.00     0.033 C 
BRANCH  28  29
HETATM   29  C9  UNL     1      15.185  22.938  27.077  1.00  0.00     0.004 C 
BRANCH  29  30
HETATM   30  C10 UNL     1      14.127  23.695  26.343  1.00  0.00     0.027 C 
BRANCH  30  31
HETATM   31  C11 UNL     1      14.655  24.843  25.530  1.00  0.00     0.229 C 
BRANCH  31  32
HETATM   32  N4  UNL     1      13.698  25.894  25.330  1.00  0.00    -0.079 N 
ATOM     33  H43 UNL     1      13.040  25.935  26.108  1.00  0.00     0.274 HD
ATOM     34  H42 UNL     1      14.139  26.808  25.431  1.00  0.00     0.274 HD
ATOM     35  H41 UNL     1      13.200  25.829  24.441  1.00  0.00     0.274 HD
ENDBRANCH  31  32
ENDBRANCH  30  31
ENDBRANCH  29  30
ENDBRANCH  28  29
ENDBRANCH  23  28
ENDBRANCH  22  23
ENDBRANCH  19  22
ENDBRANCH  17  18
ENDBRANCH   4  17
BRANCH   3  36
HETATM   36  O1  UNL     1      12.706  15.921  30.607  1.00  0.00    -0.346 OA
ATOM     37  H1  UNL     1      11.830  16.067  30.946  1.00  0.00     0.219 HD
ENDBRANCH   3  36
BRANCH  16  38
HETATM   38  C23 UNL     1      14.559  15.652  34.221  1.00  0.00     0.034 C 
BRANCH  38  39
HETATM   39  C24 UNL     1      13.844  14.533  34.937  1.00  0.00     0.004 C 
BRANCH  39  40
HETATM   40  C25 UNL     1      12.441  14.377  34.412  1.00  0.00     0.027 C 
BRANCH  40  41
HETATM   41  C26 UNL     1      12.255  13.127  33.598  1.00  0.00     0.229 C 
BRANCH  41  42
HETATM   42  N6  UNL     1      11.676  13.410  32.294  1.00  0.00    -0.079 N 
ATOM     43  H63 UNL     1      11.050  12.662  31.995  1.00  0.00     0.274 HD
ATOM     44  H62 UNL     1      11.001  14.173  32.345  1.00  0.00     0.274 HD
ATOM     45  H61 UNL     1      12.393  13.596  31.592  1.00  0.00     0.274 HD
ENDBRANCH  41  42
ENDBRANCH  40  41
ENDBRANCH  39  40
ENDBRANCH  38  39
ENDBRANCH  16  38
BRANCH  15  46
HETATM   46  O4  UNL     1      17.430  14.573  33.563  1.00  0.00    -0.348 OA
ATOM     47  H4  UNL     1      17.534  13.754  33.093  1.00  0.00     0.219 HD
ENDBRANCH  15  46
BRANCH   8  48
HETATM   48  O3  UNL     1      18.620  20.877  32.254  1.00  0.00    -0.395 OA
ATOM     49  H3  UNL     1      18.645  20.896  31.305  1.00  0.00     0.210 HD
ENDBRANCH   8  48
TORSDOF 18
ENDMDL
MODEL 4
REMARK VINA RESULT: -7.534698026      2.909      5.178
REMARK  18 active torsions:
REMARK  status: ('A' for Active; 'I' for Inactive)
REMARK    1  A    between atoms: C2_3  and  O1_4 
REMARK    2  A    between atoms: C3_6  and  C4_7 
REMARK    3  A    between atoms: C4_7  and  N2_8 
REMARK       I    between atoms: N2_8  and  C5_10 
REMARK    4  A    between atoms: C5_10  and  C6_12 
REMARK    5  A    between atoms: C6_12  and  C7_13 
REMARK    6  A    between atoms: C7_13  and  N3_14 
REMARK    7  A    between atoms: C7_13  and  C8_18 
REMARK    8  A    between atoms: C8_18  and  C9_19 
REMARK    9  A    between atoms: C9_19  and  C10_20 
REMARK   10  A    between atoms: C10_20  and  C11_21 
REMARK   11  A    between atoms: C11_21  and  N4_22 
REMARK   12  A    between atoms: C15_29  and  O3_30 
REMARK   13  A    between atoms: C21_38  and  O4_39 
REMARK   14  A    between atoms: C22_41  and  C23_42 
REMARK   15  A    between atoms: C23_42  and  C24_43 
REMARK   16  A    between atoms: C24_43  and  C25_44 
REMARK   17  A    between atoms: C25_44  and  C26_45 
REMARK   18  A    between atoms: C26_45  and  N6_46 
ROOT
HETATM    1  C1  UNL     1      17.279  19.228  33.266  1.00  0.00     0.152 C 
HETATM    2  N1  UNL     1      16.850  18.325  32.155  1.00  0.00    -0.354 N 
HETATM    3  C2  UNL     1      15.688  18.708  31.473  1.00  0.00     0.146 C 
HETATM    4  C3  UNL     1      14.562  18.093  30.832  1.00  0.00     0.007 C 
HETATM    5  C12 UNL     1      13.839  16.927  31.252  1.00  0.00    -0.009 C 
HETATM    6  C13 UNL     1      14.272  16.106  32.414  1.00  0.00     0.013 C 
HETATM    7  C14 UNL     1      13.313  14.920  32.664  1.00  0.00     0.040 C 
HETATM    8  C15 UNL     1      13.934  13.829  33.434  1.00  0.00     0.124 C 
HETATM    9  C16 UNL     1      14.952  14.039  34.435  1.00  0.00     0.034 C 
HETATM   10  C17 UNL     1      14.935  15.181  35.363  1.00  0.00     0.034 C 
HETATM   11  C18 UNL     1      15.561  16.272  34.461  1.00  0.00     0.087 C 
HETATM   12  C19 UNL     1      14.375  16.785  33.706  1.00  0.00     0.034 C 
HETATM   13  N5  UNL     1      16.607  15.623  33.743  1.00  0.00    -0.359 N 
HETATM   14  C20 UNL     1      16.380  14.170  33.926  1.00  0.00     0.132 C 
HETATM   15  C21 UNL     1      17.679  16.175  33.028  1.00  0.00     0.137 C 
HETATM   16  C22 UNL     1      17.726  17.209  31.973  1.00  0.00     0.160 C 
ENDROOT
BRANCH   4  17
HETATM   17  C4  UNL     1      13.516  19.125  30.343  1.00  0.00     0.165 C 
BRANCH  17  18
HETATM   18  N2  UNL     1      13.792  19.678  29.085  1.00  0.00    -0.357 N 
HETATM   19  C5  UNL     1      13.209  20.896  28.673  1.00  0.00     0.219 C 
HETATM   20  O2  UNL     1      12.429  21.478  29.471  1.00  0.00    -0.274 OA
ATOM     21  H2  UNL     1      14.428  19.191  28.455  1.00  0.00     0.162 HD
BRANCH  19  22
HETATM   22  C6  UNL     1      13.474  21.517  27.350  1.00  0.00     0.135 C 
BRANCH  22  23
HETATM   23  C7  UNL     1      14.289  22.779  27.528  1.00  0.00     0.192 C 
BRANCH  23  24
HETATM   24  N3  UNL     1      15.067  22.745  28.746  1.00  0.00    -0.075 N 
ATOM     25  H33 UNL     1      14.507  22.428  29.537  1.00  0.00     0.274 HD
ATOM     26  H32 UNL     1      15.755  21.992  28.727  1.00  0.00     0.274 HD
ATOM     27  H31 UNL     1      15.506  23.645  28.936  1.00  0.00     0.274 HD
ENDBRANCH  23  24
BRANCH  23  28
HETATM   28  C8  UNL     1      15.201  23.023  26.369  1.00  0.00     0.033 C 
BRANCH  28  29
HETATM   29  C9  UNL     1      15.062  24.448  25.908  1.00  0.00     0.004 C 
BRANCH  29  30
HETATM   30  C10 UNL     1      13.652  24.854  25.627  1.00  0.00     0.027 C 
BRANCH  30  31
HETATM   31  C11 UNL     1      13.526  26.220  25.012  1.00  0.00     0.229 C 
BRANCH  31  32
HETATM   32  N4  UNL     1      14.346  26.404  23.849  1.00  0.00    -0.079 N 
ATOM     33  H43 UNL     1      14.958  25.601  23.708  1.00  0.00     0.274 HD
ATOM     34  H42 UNL     1      13.785  26.341  22.999  1.00  0.00     0.274 HD
ATOM     35  H41 UNL     1      14.886  27.270  23.862  1.00  0.00     0.274 HD
ENDBRANCH  31  32
ENDBRANCH  30  31
ENDBRANCH  29  30
ENDBRANCH  28  29
ENDBRANCH  23  28
ENDBRANCH  22  23
ENDBRANCH  19  22
ENDBRANCH  17  18
ENDBRANCH   4  17
BRANCH   3  36
HETATM   36  O1  UNL     1      15.619  20.016  31.407  1.00  0.00    -0.346 OA
ATOM     37  H1  UNL     1      15.385  20.284  30.526  1.00  0.00     0.219 HD
ENDBRANCH   3  36
BRANCH  16  38
HETATM   38  C23 UNL     1      17.702  16.620  30.575  1.00  0.00     0.034 C 
BRANCH  38  39
HETATM   39  C24 UNL     1      17.206  15.196  30.589  1.00  0.00     0.004 C 
BRANCH  39  40
HETATM   40  C25 UNL     1      16.105  15.007  29.578  1.00  0.00     0.027 C 
BRANCH  40  41
HETATM   41  C26 UNL     1      15.384  13.698  29.734  1.00  0.00     0.229 C 
BRANCH  41  42
HETATM   42  N6  UNL     1      15.963  12.882  30.791  1.00  0.00    -0.079 N 
ATOM     43  H63 UNL     1      16.974  12.796  30.682  1.00  0.00     0.274 HD
ATOM     44  H62 UNL     1      15.941  13.367  31.688  1.00  0.00     0.274 HD
ATOM     45  H61 UNL     1      15.518  11.967  30.852  1.00  0.00     0.274 HD
ENDBRANCH  41  42
ENDBRANCH  40  41
ENDBRANCH  39  40
ENDBRANCH  38  39
ENDBRANCH  16  38
BRANCH  15  46
HETATM   46  O4  UNL     1      18.845  15.690  33.345  1.00  0.00    -0.348 OA
ATOM     47  H4  UNL     1      18.947  14.763  33.166  1.00  0.00     0.219 HD
ENDBRANCH  15  46
BRANCH   8  48
HETATM   48  O3  UNL     1      12.869  13.102  34.030  1.00  0.00    -0.395 OA
ATOM     49  H3  UNL     1      12.636  12.416  33.415  1.00  0.00     0.210 HD
ENDBRANCH   8  48
TORSDOF 18
ENDMDL
MODEL 5
REMARK VINA RESULT: -7.533378983      1.810      6.841
REMARK  18 active torsions:
REMARK  status: ('A' for Active; 'I' for Inactive)
REMARK    1  A    between atoms: C2_3  and  O1_4 
REMARK    2  A    between atoms: C3_6  and  C4_7 
REMARK    3  A    between atoms: C4_7  and  N2_8 
REMARK       I    between atoms: N2_8  and  C5_10 
REMARK    4  A    between atoms: C5_10  and  C6_12 
REMARK    5  A    between atoms: C6_12  and  C7_13 
REMARK    6  A    between atoms: C7_13  and  N3_14 
REMARK    7  A    between atoms: C7_13  and  C8_18 
REMARK    8  A    between atoms: C8_18  and  C9_19 
REMARK    9  A    between atoms: C9_19  and  C10_20 
REMARK   10  A    between atoms: C10_20  and  C11_21 
REMARK   11  A    between atoms: C11_21  and  N4_22 
REMARK   12  A    between atoms: C15_29  and  O3_30 
REMARK   13  A    between atoms: C21_38  and  O4_39 
REMARK   14  A    between atoms: C22_41  and  C23_42 
REMARK   15  A    between atoms: C23_42  and  C24_43 
REMARK   16  A    between atoms: C24_43  and  C25_44 
REMARK   17  A    between atoms: C25_44  and  C26_45 
REMARK   18  A    between atoms: C26_45  and  N6_46 
ROOT
HETATM    1  C1  UNL     1      12.670  19.263  32.163  1.00  0.00     0.152 C 
HETATM    2  N1  UNL     1      13.528  18.945  30.982  1.00  0.00    -0.354 N 
HETATM    3  C2  UNL     1      13.751  17.583  30.740  1.00  0.00     0.146 C 
HETATM    4  C3  UNL     1      14.794  16.732  30.245  1.00  0.00     0.007 C 
HETATM    5  C12 UNL     1      16.205  16.842  30.482  1.00  0.00    -0.009 C 
HETATM    6  C13 UNL     1      16.794  17.989  31.224  1.00  0.00     0.013 C 
HETATM    7  C14 UNL     1      18.328  17.856  31.354  1.00  0.00     0.040 C 
HETATM    8  C15 UNL     1      18.999  19.142  31.610  1.00  0.00     0.124 C 
HETATM    9  C16 UNL     1      18.393  20.223  32.351  1.00  0.00     0.034 C 
HETATM   10  C17 UNL     1      17.552  20.003  33.538  1.00  0.00     0.034 C 
HETATM   11  C18 UNL     1      16.200  19.679  32.857  1.00  0.00     0.087 C 
HETATM   12  C19 UNL     1      16.318  18.211  32.589  1.00  0.00     0.034 C 
HETATM   13  N5  UNL     1      16.103  20.576  31.752  1.00  0.00    -0.359 N 
HETATM   14  C20 UNL     1      17.462  21.137  31.568  1.00  0.00     0.132 C 
HETATM   15  C21 UNL     1      14.986  20.932  30.984  1.00  0.00     0.137 C 
HETATM   16  C22 UNL     1      13.975  20.112  30.286  1.00  0.00     0.160 C 
ENDROOT
BRANCH   4  17
HETATM   17  C4  UNL     1      14.433  15.229  30.337  1.00  0.00     0.165 C 
BRANCH  17  18
HETATM   18  N2  UNL     1      15.018  14.557  31.419  1.00  0.00    -0.357 N 
HETATM   19  C5  UNL     1      14.318  14.358  32.628  1.00  0.00     0.219 C 
HETATM   20  O2  UNL     1      13.143  14.803  32.711  1.00  0.00    -0.274 OA
ATOM     21  H2  UNL     1      15.970  14.203  31.330  1.00  0.00     0.162 HD
BRANCH  19  22
HETATM   22  C6  UNL     1      14.899  13.652  33.797  1.00  0.00     0.135 C 
BRANCH  22  23
HETATM   23  C7  UNL     1      15.476  14.656  34.772  1.00  0.00     0.192 C 
BRANCH  23  24
HETATM   24  N3  UNL     1      14.701  14.721  35.990  1.00  0.00    -0.075 N 
ATOM     25  H33 UNL     1      13.712  14.549  35.812  1.00  0.00     0.274 HD
ATOM     26  H32 UNL     1      14.893  13.925  36.598  1.00  0.00     0.274 HD
ATOM     27  H31 UNL     1      14.843  15.605  36.478  1.00  0.00     0.274 HD
ENDBRANCH  23  24
BRANCH  23  28
HETATM   28  C8  UNL     1      16.899  14.351  35.110  1.00  0.00     0.033 C 
BRANCH  28  29
HETATM   29  C9  UNL     1      17.812  15.127  34.202  1.00  0.00     0.004 C 
BRANCH  29  30
HETATM   30  C10 UNL     1      18.759  14.271  33.426  1.00  0.00     0.027 C 
BRANCH  30  31
HETATM   31  C11 UNL     1      18.476  14.237  31.951  1.00  0.00     0.229 C 
BRANCH  31  32
HETATM   32  N4  UNL     1      19.633  14.486  31.139  1.00  0.00    -0.079 N 
ATOM     33  H43 UNL     1      20.468  14.574  31.717  1.00  0.00     0.274 HD
ATOM     34  H42 UNL     1      19.885  13.654  30.604  1.00  0.00     0.274 HD
ATOM     35  H41 UNL     1      19.535  15.294  30.523  1.00  0.00     0.274 HD
ENDBRANCH  31  32
ENDBRANCH  30  31
ENDBRANCH  29  30
ENDBRANCH  28  29
ENDBRANCH  23  28
ENDBRANCH  22  23
ENDBRANCH  19  22
ENDBRANCH  17  18
ENDBRANCH   4  17
BRANCH   3  36
HETATM   36  O1  UNL     1      12.684  16.892  31.064  1.00  0.00    -0.346 OA
ATOM     37  H1  UNL     1      12.261  16.563  30.279  1.00  0.00     0.219 HD
ENDBRANCH   3  36
BRANCH  16  38
HETATM   38  C23 UNL     1      14.320  19.873  28.827  1.00  0.00     0.034 C 
BRANCH  38  39
HETATM   39  C24 UNL     1      13.238  20.398  27.917  1.00  0.00     0.004 C 
BRANCH  39  40
HETATM   40  C25 UNL     1      13.363  21.889  27.748  1.00  0.00     0.027 C 
BRANCH  40  41
HETATM   41  C26 UNL     1      14.676  22.303  27.142  1.00  0.00     0.229 C 
BRANCH  41  42
HETATM   42  N6  UNL     1      15.408  23.217  28.007  1.00  0.00    -0.079 N 
ATOM     43  H63 UNL     1      14.809  23.973  28.339  1.00  0.00     0.274 HD
ATOM     44  H62 UNL     1      15.630  22.782  28.903  1.00  0.00     0.274 HD
ATOM     45  H61 UNL     1      16.245  23.580  27.553  1.00  0.00     0.274 HD
ENDBRANCH  41  42
ENDBRANCH  40  41
ENDBRANCH  39  40
ENDBRANCH  38  39
ENDBRANCH  16  38
BRANCH  15  46
HETATM   46  O4  UNL     1      14.805  22.215  30.858  1.00  0.00    -0.348 OA
ATOM     47  H4  UNL     1      14.781  22.522  29.960  1.00  0.00     0.219 HD
ENDBRANCH  15  46
BRANCH   8  48
HETATM   48  O3  UNL     1      20.245  18.832  32.216  1.00  0.00    -0.395 OA
ATOM     49  H3  UNL     1      20.761  19.628  32.191  1.00  0.00     0.210 HD
ENDBRANCH   8  48
TORSDOF 18
ENDMDL
