MODEL 1
REMARK VINA RESULT: -7.553760343      0.000      0.000
REMARK  16 active torsions:
REMARK  status: ('A' for Active; 'I' for Inactive)
REMARK    1  A    between atoms: S1_2  and  C2_3 
REMARK    2  A    between atoms: C3_4  and  O1_5 
REMARK    3  A    between atoms: C4_7  and  C5_8 
REMARK    4  A    between atoms: C5_8  and  N1_9 
REMARK    5  A    between atoms: N1_9  and  C8_12 
REMARK    6  A    between atoms: C8_12  and  C9_13 
REMARK    7  A    between atoms: C9_13  and  C10_14 
REMARK    8  A    between atoms: C10_14  and  C11_15 
REMARK    9  A    between atoms: C11_15  and  N2_16 
REMARK   10  A    between atoms: N2_16  and  C12_17 
REMARK   11  A    between atoms: C12_17  and  C13_18 
REMARK   12  A    between atoms: C18_25  and  C19_26 
REMARK   13  A    between atoms: C19_26  and  O4_27 
REMARK   14  A    between atoms: C20_29  and  O5_30 
REMARK   15  A    between atoms: O5_30  and  C21_31 
REMARK   16  A    between atoms: C22_34  and  O7_35 
ROOT
HETATM    1  C2  UNL     1      17.584  15.596  33.482  1.00  0.00     0.107 C 
HETATM    2  C3  UNL     1      16.381  16.208  32.873  1.00  0.00     0.140 C 
HETATM    3  C4  UNL     1      16.778  17.201  31.748  1.00  0.00     0.050 C 
HETATM    4  C18 UNL     1      17.452  16.337  30.735  1.00  0.00     0.050 C 
HETATM    5  C20 UNL     1      17.699  14.925  31.141  1.00  0.00     0.169 C 
HETATM    6  C22 UNL     1      18.179  14.627  32.509  1.00  0.00     0.164 C 
ENDROOT
BRANCH   3   7
HETATM    7  C5  UNL     1      15.510  17.851  31.366  1.00  0.00     0.244 C 
BRANCH   7   8
HETATM    8  N1  UNL     1      15.436  19.195  30.977  1.00  0.00    -0.074 N 
HETATM    9  C6  UNL     1      15.347  19.424  29.559  1.00  0.00     0.272 C 
HETATM   10  C7  UNL     1      16.513  20.035  31.468  1.00  0.00     0.272 C 
BRANCH   8  11
HETATM   11  C8  UNL     1      14.204  19.839  31.518  1.00  0.00     0.236 C 
BRANCH  11  12
HETATM   12  C9  UNL     1      13.229  18.863  32.067  1.00  0.00     0.029 C 
BRANCH  12  13
HETATM   13  C10 UNL     1      12.048  18.738  31.188  1.00  0.00     0.029 C 
BRANCH  13  14
HETATM   14  C11 UNL     1      11.185  19.888  30.909  1.00  0.00     0.238 C 
BRANCH  14  15
HETATM   15  N2  UNL     1      10.643  20.105  29.630  1.00  0.00    -0.058 N 
HETATM   16  C14 UNL     1       9.662  21.211  29.761  1.00  0.00     0.238 C 
HETATM   17  C15 UNL     1       8.478  20.552  30.452  1.00  0.00     0.029 C 
HETATM   18  C16 UNL     1       8.516  19.120  30.006  1.00  0.00     0.029 C 
HETATM   19  C17 UNL     1       9.744  19.044  29.184  1.00  0.00     0.238 C 
BRANCH  15  20
HETATM   20  C12 UNL     1      11.557  20.384  28.567  1.00  0.00     0.349 C 
BRANCH  20  21
HETATM   21  C13 UNL     1      12.052  21.736  28.408  1.00  0.00     0.199 C 
HETATM   22  O2  UNL     1      13.088  22.098  29.043  1.00  0.00    -0.647 OA
HETATM   23  O3  UNL     1      11.468  22.675  27.602  1.00  0.00    -0.647 OA
ENDBRANCH  20  21
ENDBRANCH  15  20
ENDBRANCH  14  15
ENDBRANCH  13  14
ENDBRANCH  12  13
ENDBRANCH  11  12
ENDBRANCH   8  11
ENDBRANCH   7   8
ENDBRANCH   3   7
BRANCH   2  24
HETATM   24  O1  UNL     1      15.688  16.875  33.875  1.00  0.00    -0.394 OA
ATOM     25  H1  UNL     1      15.593  17.782  33.609  1.00  0.00     0.210 HD
ENDBRANCH   2  24
BRANCH   4  26
HETATM   26  C19 UNL     1      18.764  16.890  30.220  1.00  0.00     0.172 C 
BRANCH  26  27
HETATM   27  O4  UNL     1      19.682  15.895  29.919  1.00  0.00    -0.400 OA
ATOM     28  H4  UNL     1      20.501  15.999  30.387  1.00  0.00     0.209 HD
ENDBRANCH  26  27
ENDBRANCH   4  26
BRANCH   1  29
HETATM   29  S1  UNL     1      17.114  14.811  35.044  1.00  0.00    -0.163 SA
HETATM   30  C1  UNL     1      15.951  13.471  34.818  1.00  0.00     0.090 C 
ENDBRANCH   1  29
BRANCH   5  31
HETATM   31  O5  UNL     1      16.618  14.077  30.743  1.00  0.00    -0.298 OA
BRANCH  31  32
HETATM   32  C21 UNL     1      15.514  14.478  30.051  1.00  0.00     0.373 C 
HETATM   33  N3  UNL     1      14.214  14.589  30.627  1.00  0.00    -0.032 NA
HETATM   34  O6  UNL     1      15.645  14.767  28.829  1.00  0.00    -0.242 OA
ENDBRANCH  31  32
ENDBRANCH   5  31
BRANCH   6  35
HETATM   35  O7  UNL     1      19.575  14.605  32.568  1.00  0.00    -0.392 OA
ATOM     36  H7  UNL     1      19.911  13.761  32.847  1.00  0.00     0.210 HD
ENDBRANCH   6  35
TORSDOF 16
ENDMDL
MODEL 2
REMARK VINA RESULT: -7.503304158      2.111      2.874
REMARK  16 active torsions:
REMARK  status: ('A' for Active; 'I' for Inactive)
REMARK    1  A    between atoms: S1_2  and  C2_3 
REMARK    2  A    between atoms: C3_4  and  O1_5 
REMARK    3  A    between atoms: C4_7  and  C5_8 
REMARK    4  A    between atoms: C5_8  and  N1_9 
REMARK    5  A    between atoms: N1_9  and  C8_12 
REMARK    6  A    between atoms: C8_12  and  C9_13 
REMARK    7  A    between atoms: C9_13  and  C10_14 
REMARK    8  A    between atoms: C10_14  and  C11_15 
REMARK    9  A    between atoms: C11_15  and  N2_16 
REMARK   10  A    between atoms: N2_16  and  C12_17 
REMARK   11  A    between atoms: C12_17  and  C13_18 
REMARK   12  A    between atoms: C18_25  and  C19_26 
REMARK   13  A    between atoms: C19_26  and  O4_27 
REMARK   14  A    between atoms: C20_29  and  O5_30 
REMARK   15  A    between atoms: O5_30  and  C21_31 
REMARK   16  A    between atoms: C22_34  and  O7_35 
ROOT
HETATM    1  C2  UNL     1      16.138  15.711  33.778  1.00  0.00     0.107 C 
HETATM    2  C3  UNL     1      15.566  16.207  32.505  1.00  0.00     0.140 C 
HETATM    3  C4  UNL     1      16.002  17.673  32.240  1.00  0.00     0.050 C 
HETATM    4  C18 UNL     1      17.485  17.583  32.106  1.00  0.00     0.050 C 
HETATM    5  C20 UNL     1      18.091  16.259  32.424  1.00  0.00     0.169 C 
HETATM    6  C22 UNL     1      17.607  15.493  33.595  1.00  0.00     0.164 C 
ENDROOT
BRANCH   3   7
HETATM    7  C5  UNL     1      15.225  18.079  31.054  1.00  0.00     0.244 C 
BRANCH   7   8
HETATM    8  N1  UNL     1      14.605  19.331  30.947  1.00  0.00    -0.074 N 
HETATM    9  C6  UNL     1      15.481  20.466  31.061  1.00  0.00     0.272 C 
HETATM   10  C7  UNL     1      13.511  19.554  31.876  1.00  0.00     0.272 C 
BRANCH   8  11
HETATM   11  C8  UNL     1      13.975  19.502  29.605  1.00  0.00     0.236 C 
BRANCH  11  12
HETATM   12  C9  UNL     1      13.225  20.775  29.471  1.00  0.00     0.029 C 
BRANCH  12  13
HETATM   13  C10 UNL     1      12.180  20.671  28.431  1.00  0.00     0.029 C 
BRANCH  13  14
HETATM   14  C11 UNL     1      10.803  21.097  28.695  1.00  0.00     0.238 C 
BRANCH  14  15
HETATM   15  N2  UNL     1       9.784  20.165  28.955  1.00  0.00    -0.058 N 
HETATM   16  C14 UNL     1       8.600  20.936  29.408  1.00  0.00     0.238 C 
HETATM   17  C15 UNL     1       8.966  21.343  30.827  1.00  0.00     0.029 C 
HETATM   18  C16 UNL     1       9.861  20.248  31.326  1.00  0.00     0.029 C 
HETATM   19  C17 UNL     1      10.013  19.360  30.153  1.00  0.00     0.238 C 
BRANCH  15  20
HETATM   20  C12 UNL     1       9.416  19.280  27.894  1.00  0.00     0.349 C 
BRANCH  20  21
HETATM   21  C13 UNL     1       8.286  19.628  27.056  1.00  0.00     0.199 C 
HETATM   22  O2  UNL     1       7.197  18.993  27.186  1.00  0.00    -0.647 OA
HETATM   23  O3  UNL     1       8.310  20.618  26.112  1.00  0.00    -0.647 OA
ENDBRANCH  20  21
ENDBRANCH  15  20
ENDBRANCH  14  15
ENDBRANCH  13  14
ENDBRANCH  12  13
ENDBRANCH  11  12
ENDBRANCH   8  11
ENDBRANCH   7   8
ENDBRANCH   3   7
BRANCH   2  24
HETATM   24  O1  UNL     1      14.183  16.131  32.601  1.00  0.00    -0.394 OA
ATOM     25  H1  UNL     1      13.882  15.481  31.977  1.00  0.00     0.210 HD
ENDBRANCH   2  24
BRANCH   4  26
HETATM   26  C19 UNL     1      18.246  18.625  32.897  1.00  0.00     0.172 C 
BRANCH  26  27
HETATM   27  O4  UNL     1      19.555  18.775  32.464  1.00  0.00    -0.400 OA
ATOM     28  H4  UNL     1      20.046  19.393  32.991  1.00  0.00     0.209 HD
ENDBRANCH  26  27
ENDBRANCH   4  26
BRANCH   1  29
HETATM   29  S1  UNL     1      15.266  14.200  34.262  1.00  0.00    -0.163 SA
HETATM   30  C1  UNL     1      15.709  13.647  35.905  1.00  0.00     0.090 C 
ENDBRANCH   1  29
BRANCH   5  31
HETATM   31  O5  UNL     1      18.209  15.450  31.251  1.00  0.00    -0.298 OA
BRANCH  31  32
HETATM   32  C21 UNL     1      19.118  15.636  30.253  1.00  0.00     0.373 C 
HETATM   33  N3  UNL     1      18.926  16.534  29.161  1.00  0.00    -0.032 NA
HETATM   34  O6  UNL     1      20.194  14.976  30.291  1.00  0.00    -0.242 OA
ENDBRANCH  31  32
ENDBRANCH   5  31
BRANCH   6  35
HETATM   35  O7  UNL     1      18.337  15.802  34.746  1.00  0.00    -0.392 OA
ATOM     36  H7  UNL     1      18.260  15.129  35.413  1.00  0.00     0.210 HD
ENDBRANCH   6  35
TORSDOF 16
ENDMDL
MODEL 3
REMARK VINA RESULT: -7.485010869      1.769      2.218
REMARK  16 active torsions:
REMARK  status: ('A' for Active; 'I' for Inactive)
REMARK    1  A    between atoms: S1_2  and  C2_3 
REMARK    2  A    between atoms: C3_4  and  O1_5 
REMARK    3  A    between atoms: C4_7  and  C5_8 
REMARK    4  A    between atoms: C5_8  and  N1_9 
REMARK    5  A    between atoms: N1_9  and  C8_12 
REMARK    6  A    between atoms: C8_12  and  C9_13 
REMARK    7  A    between atoms: C9_13  and  C10_14 
REMARK    8  A    between atoms: C10_14  and  C11_15 
REMARK    9  A    between atoms: C11_15  and  N2_16 
REMARK   10  A    between atoms: N2_16  and  C12_17 
REMARK   11  A    between atoms: C12_17  and  C13_18 
REMARK   12  A    between atoms: C18_25  and  C19_26 
REMARK   13  A    between atoms: C19_26  and  O4_27 
REMARK   14  A    between atoms: C20_29  and  O5_30 
REMARK   15  A    between atoms: O5_30  and  C21_31 
REMARK   16  A    between atoms: C22_34  and  O7_35 
ROOT
HETATM    1  C2  UNL     1      16.191  15.535  33.869  1.00  0.00     0.107 C 
HETATM    2  C3  UNL     1      15.474  15.951  32.642  1.00  0.00     0.140 C 
HETATM    3  C4  UNL     1      15.710  17.457  32.350  1.00  0.00     0.050 C 
HETATM    4  C18 UNL     1      17.181  17.545  32.110  1.00  0.00     0.050 C 
HETATM    5  C20 UNL     1      17.962  16.306  32.381  1.00  0.00     0.169 C 
HETATM    6  C22 UNL     1      17.659  15.494  33.581  1.00  0.00     0.164 C 
ENDROOT
BRANCH   3   7
HETATM    7  C5  UNL     1      14.808  17.760  31.223  1.00  0.00     0.244 C 
BRANCH   7   8
HETATM    8  N1  UNL     1      14.471  19.069  30.853  1.00  0.00    -0.074 N 
HETATM    9  C6  UNL     1      15.074  19.541  29.635  1.00  0.00     0.272 C 
HETATM   10  C7  UNL     1      14.731  20.077  31.865  1.00  0.00     0.272 C 
BRANCH   8  11
HETATM   11  C8  UNL     1      13.007  19.190  30.595  1.00  0.00     0.236 C 
BRANCH  11  12
HETATM   12  C9  UNL     1      12.281  19.904  31.675  1.00  0.00     0.029 C 
BRANCH  12  13
HETATM   13  C10 UNL     1      10.821  19.724  31.546  1.00  0.00     0.029 C 
BRANCH  13  14
HETATM   14  C11 UNL     1      10.038  20.525  30.603  1.00  0.00     0.238 C 
BRANCH  14  15
HETATM   15  N2  UNL     1       9.724  20.048  29.319  1.00  0.00    -0.058 N 
HETATM   16  C14 UNL     1       8.353  20.521  29.007  1.00  0.00     0.238 C 
HETATM   17  C15 UNL     1       7.468  19.622  29.857  1.00  0.00     0.029 C 
HETATM   18  C16 UNL     1       8.220  18.329  29.968  1.00  0.00     0.029 C 
HETATM   19  C17 UNL     1       9.493  18.606  29.267  1.00  0.00     0.238 C 
BRANCH  15  20
HETATM   20  C12 UNL     1      10.615  20.389  28.254  1.00  0.00     0.349 C 
BRANCH  20  21
HETATM   21  C13 UNL     1      11.246  21.694  28.263  1.00  0.00     0.199 C 
HETATM   22  O2  UNL     1      10.608  22.697  27.823  1.00  0.00    -0.647 OA
HETATM   23  O3  UNL     1      12.512  21.927  28.727  1.00  0.00    -0.647 OA
ENDBRANCH  20  21
ENDBRANCH  15  20
ENDBRANCH  14  15
ENDBRANCH  13  14
ENDBRANCH  12  13
ENDBRANCH  11  12
ENDBRANCH   8  11
ENDBRANCH   7   8
ENDBRANCH   3   7
BRANCH   2  24
HETATM   24  O1  UNL     1      14.120  15.710  32.836  1.00  0.00    -0.394 OA
ATOM     25  H1  UNL     1      13.801  16.337  33.475  1.00  0.00     0.210 HD
ENDBRANCH   2  24
BRANCH   4  26
HETATM   26  C19 UNL     1      17.865  18.676  32.848  1.00  0.00     0.172 C 
BRANCH  26  27
HETATM   27  O4  UNL     1      19.224  18.743  32.581  1.00  0.00    -0.400 OA
ATOM     28  H4  UNL     1      19.696  19.269  33.215  1.00  0.00     0.209 HD
ENDBRANCH  26  27
ENDBRANCH   4  26
BRANCH   1  29
HETATM   29  S1  UNL     1      15.544  13.933  34.410  1.00  0.00    -0.163 SA
HETATM   30  C1  UNL     1      15.435  13.801  36.191  1.00  0.00     0.090 C 
ENDBRANCH   1  29
BRANCH   5  31
HETATM   31  O5  UNL     1      18.093  15.510  31.200  1.00  0.00    -0.298 OA
BRANCH  31  32
HETATM   32  C21 UNL     1      19.128  15.574  30.316  1.00  0.00     0.373 C 
HETATM   33  N3  UNL     1      20.267  14.716  30.364  1.00  0.00    -0.032 NA
HETATM   34  O6  UNL     1      19.081  16.442  29.400  1.00  0.00    -0.242 OA
ENDBRANCH  31  32
ENDBRANCH   5  31
BRANCH   6  35
HETATM   35  O7  UNL     1      18.426  15.895  34.678  1.00  0.00    -0.392 OA
ATOM     36  H7  UNL     1      18.915  15.175  35.059  1.00  0.00     0.210 HD
ENDBRANCH   6  35
TORSDOF 16
ENDMDL
MODEL 4
REMARK VINA RESULT: -7.398987860      2.680      7.839
REMARK  16 active torsions:
REMARK  status: ('A' for Active; 'I' for Inactive)
REMARK    1  A    between atoms: S1_2  and  C2_3 
REMARK    2  A    between atoms: C3_4  and  O1_5 
REMARK    3  A    between atoms: C4_7  and  C5_8 
REMARK    4  A    between atoms: C5_8  and  N1_9 
REMARK    5  A    between atoms: N1_9  and  C8_12 
REMARK    6  A    between atoms: C8_12  and  C9_13 
REMARK    7  A    between atoms: C9_13  and  C10_14 
REMARK    8  A    between atoms: C10_14  and  C11_15 
REMARK    9  A    between atoms: C11_15  and  N2_16 
REMARK   10  A    between atoms: N2_16  and  C12_17 
REMARK   11  A    between atoms: C12_17  and  C13_18 
REMARK   12  A    between atoms: C18_25  and  C19_26 
REMARK   13  A    between atoms: C19_26  and  O4_27 
REMARK   14  A    between atoms: C20_29  and  O5_30 
REMARK   15  A    between atoms: O5_30  and  C21_31 
REMARK   16  A    between atoms: C22_34  and  O7_35 
ROOT
HETATM    1  C2  UNL     1      15.740  20.386  31.730  1.00  0.00     0.107 C 
HETATM    2  C3  UNL     1      15.537  19.105  31.015  1.00  0.00     0.140 C 
HETATM    3  C4  UNL     1      14.069  18.621  31.160  1.00  0.00     0.050 C 
HETATM    4  C18 UNL     1      13.275  19.688  30.483  1.00  0.00     0.050 C 
HETATM    5  C20 UNL     1      14.034  20.900  30.065  1.00  0.00     0.169 C 
HETATM    6  C22 UNL     1      15.053  21.478  30.970  1.00  0.00     0.164 C 
ENDROOT
BRANCH   3   7
HETATM    7  C5  UNL     1      14.065  17.273  30.560  1.00  0.00     0.244 C 
BRANCH   7   8
HETATM    8  N1  UNL     1      13.572  16.147  31.232  1.00  0.00    -0.074 N 
HETATM    9  C6  UNL     1      12.230  15.760  30.887  1.00  0.00     0.272 C 
HETATM   10  C7  UNL     1      13.622  16.227  32.680  1.00  0.00     0.272 C 
BRANCH   8  11
HETATM   11  C8  UNL     1      14.384  14.937  30.911  1.00  0.00     0.236 C 
BRANCH  11  12
HETATM   12  C9  UNL     1      15.498  15.215  29.971  1.00  0.00     0.029 C 
BRANCH  12  13
HETATM   13  C10 UNL     1      16.746  14.560  30.413  1.00  0.00     0.029 C 
BRANCH  13  14
HETATM   14  C11 UNL     1      16.939  14.162  31.810  1.00  0.00     0.238 C 
BRANCH  14  15
HETATM   15  N2  UNL     1      17.757  14.905  32.678  1.00  0.00    -0.058 N 
HETATM   16  C14 UNL     1      18.341  13.945  33.647  1.00  0.00     0.238 C 
HETATM   17  C15 UNL     1      17.176  13.628  34.573  1.00  0.00     0.029 C 
HETATM   18  C16 UNL     1      16.335  14.869  34.578  1.00  0.00     0.029 C 
HETATM   19  C17 UNL     1      17.014  15.754  33.606  1.00  0.00     0.238 C 
BRANCH  15  20
HETATM   20  C12 UNL     1      18.792  15.698  32.090  1.00  0.00     0.349 C 
BRANCH  20  21
HETATM   21  C13 UNL     1      20.017  15.046  31.672  1.00  0.00     0.199 C 
HETATM   22  O2  UNL     1      20.187  14.768  30.447  1.00  0.00    -0.647 OA
HETATM   23  O3  UNL     1      21.030  14.704  32.525  1.00  0.00    -0.647 OA
ENDBRANCH  20  21
ENDBRANCH  15  20
ENDBRANCH  14  15
ENDBRANCH  13  14
ENDBRANCH  12  13
ENDBRANCH  11  12
ENDBRANCH   8  11
ENDBRANCH   7   8
ENDBRANCH   3   7
BRANCH   2  24
HETATM   24  O1  UNL     1      16.403  18.169  31.563  1.00  0.00    -0.394 OA
ATOM     25  H1  UNL     1      17.066  17.969  30.913  1.00  0.00     0.210 HD
ENDBRANCH   2  24
BRANCH   4  26
HETATM   26  C19 UNL     1      12.072  20.162  31.270  1.00  0.00     0.172 C 
BRANCH  26  27
HETATM   27  O4  UNL     1      11.971  19.551  32.511  1.00  0.00    -0.400 OA
ATOM     28  H4  UNL     1      11.974  20.175  33.227  1.00  0.00     0.209 HD
ENDBRANCH  26  27
ENDBRANCH   4  26
BRANCH   1  29
HETATM   29  S1  UNL     1      17.517  20.679  31.913  1.00  0.00    -0.163 SA
HETATM   30  C1  UNL     1      18.152  20.100  33.483  1.00  0.00     0.090 C 
ENDBRANCH   1  29
BRANCH   5  31
HETATM   31  O5  UNL     1      14.503  20.777  28.720  1.00  0.00    -0.298 OA
BRANCH  31  32
HETATM   32  C21 UNL     1      14.539  21.784  27.802  1.00  0.00     0.373 C 
HETATM   33  N3  UNL     1      15.477  22.857  27.837  1.00  0.00    -0.032 NA
HETATM   34  O6  UNL     1      13.694  21.769  26.863  1.00  0.00    -0.242 OA
ENDBRANCH  31  32
ENDBRANCH   5  31
BRANCH   6  35
HETATM   35  O7  UNL     1      14.500  22.444  31.814  1.00  0.00    -0.392 OA
ATOM     36  H7  UNL     1      15.139  23.091  32.091  1.00  0.00     0.210 HD
ENDBRANCH   6  35
TORSDOF 16
ENDMDL
MODEL 5
REMARK VINA RESULT: -7.310918683      2.300      3.112
REMARK  16 active torsions:
REMARK  status: ('A' for Active; 'I' for Inactive)
REMARK    1  A    between atoms: S1_2  and  C2_3 
REMARK    2  A    between atoms: C3_4  and  O1_5 
REMARK    3  A    between atoms: C4_7  and  C5_8 
REMARK    4  A    between atoms: C5_8  and  N1_9 
REMARK    5  A    between atoms: N1_9  and  C8_12 
REMARK    6  A    between atoms: C8_12  and  C9_13 
REMARK    7  A    between atoms: C9_13  and  C10_14 
REMARK    8  A    between atoms: C10_14  and  C11_15 
REMARK    9  A    between atoms: C11_15  and  N2_16 
REMARK   10  A    between atoms: N2_16  and  C12_17 
REMARK   11  A    between atoms: C12_17  and  C13_18 
REMARK   12  A    between atoms: C18_25  and  C19_26 
REMARK   13  A    between atoms: C19_26  and  O4_27 
REMARK   14  A    between atoms: C20_29  and  O5_30 
REMARK   15  A    between atoms: O5_30  and  C21_31 
REMARK   16  A    between atoms: C22_34  and  O7_35 
ROOT
HETATM    1  C2  UNL     1      16.227  16.802  33.135  1.00  0.00     0.107 C 
HETATM    2  C3  UNL     1      15.559  17.086  31.845  1.00  0.00     0.140 C 
HETATM    3  C4  UNL     1      15.783  18.562  31.422  1.00  0.00     0.050 C 
HETATM    4  C18 UNL     1      17.261  18.657  31.238  1.00  0.00     0.050 C 
HETATM    5  C20 UNL     1      18.050  17.465  31.657  1.00  0.00     0.169 C 
HETATM    6  C22 UNL     1      17.707  16.763  32.915  1.00  0.00     0.164 C 
ENDROOT
BRANCH   3   7
HETATM    7  C5  UNL     1      14.926  18.740  30.234  1.00  0.00     0.244 C 
BRANCH   7   8
HETATM    8  N1  UNL     1      14.171  19.898  30.012  1.00  0.00    -0.074 N 
HETATM    9  C6  UNL     1      14.196  20.404  28.666  1.00  0.00     0.272 C 
HETATM   10  C7  UNL     1      14.492  21.015  30.882  1.00  0.00     0.272 C 
BRANCH   8  11
HETATM   11  C8  UNL     1      12.723  19.647  30.271  1.00  0.00     0.236 C 
BRANCH  11  12
HETATM   12  C9  UNL     1      12.325  19.921  31.675  1.00  0.00     0.029 C 
BRANCH  12  13
HETATM   13  C10 UNL     1      10.857  20.014  31.805  1.00  0.00     0.029 C 
BRANCH  13  14
HETATM   14  C11 UNL     1       9.969  19.490  30.765  1.00  0.00     0.238 C 
BRANCH  14  15
HETATM   15  N2  UNL     1       9.028  20.312  30.121  1.00  0.00    -0.058 N 
HETATM   16  C14 UNL     1       7.906  19.435  29.703  1.00  0.00     0.238 C 
HETATM   17  C15 UNL     1       8.473  18.682  28.509  1.00  0.00     0.029 C 
HETATM   18  C16 UNL     1       9.464  19.623  27.891  1.00  0.00     0.029 C 
HETATM   19  C17 UNL     1       9.459  20.784  28.808  1.00  0.00     0.238 C 
BRANCH  15  20
HETATM   20  C12 UNL     1       8.527  21.434  30.850  1.00  0.00     0.349 C 
BRANCH  20  21
HETATM   21  C13 UNL     1       7.119  21.763  30.746  1.00  0.00     0.199 C 
HETATM   22  O2  UNL     1       6.696  22.363  29.712  1.00  0.00    -0.647 OA
HETATM   23  O3  UNL     1       6.191  21.462  31.704  1.00  0.00    -0.647 OA
ENDBRANCH  20  21
ENDBRANCH  15  20
ENDBRANCH  14  15
ENDBRANCH  13  14
ENDBRANCH  12  13
ENDBRANCH  11  12
ENDBRANCH   8  11
ENDBRANCH   7   8
ENDBRANCH   3   7
BRANCH   2  24
HETATM   24  O1  UNL     1      14.202  16.837  32.003  1.00  0.00    -0.394 OA
ATOM     25  H1  UNL     1      13.748  17.671  31.987  1.00  0.00     0.210 HD
ENDBRANCH   2  24
BRANCH   4  26
HETATM   26  C19 UNL     1      17.894  19.866  31.894  1.00  0.00     0.172 C 
BRANCH  26  27
HETATM   27  O4  UNL     1      19.166  19.606  32.378  1.00  0.00    -0.400 OA
ATOM     28  H4  UNL     1      19.211  19.638  33.326  1.00  0.00     0.209 HD
ENDBRANCH  26  27
ENDBRANCH   4  26
BRANCH   1  29
HETATM   29  S1  UNL     1      15.583  15.245  33.797  1.00  0.00    -0.163 SA
HETATM   30  C1  UNL     1      16.871  14.194  34.462  1.00  0.00     0.090 C 
ENDBRANCH   1  29
BRANCH   5  31
HETATM   31  O5  UNL     1      18.246  16.564  30.564  1.00  0.00    -0.298 OA
BRANCH  31  32
HETATM   32  C21 UNL     1      18.732  15.295  30.665  1.00  0.00     0.373 C 
HETATM   33  N3  UNL     1      17.923  14.156  30.952  1.00  0.00    -0.032 NA
HETATM   34  O6  UNL     1      19.970  15.112  30.495  1.00  0.00    -0.242 OA
ENDBRANCH  31  32
ENDBRANCH   5  31
BRANCH   6  35
HETATM   35  O7  UNL     1      18.418  17.281  34.001  1.00  0.00    -0.392 OA
ATOM     36  H7  UNL     1      18.823  18.118  33.801  1.00  0.00     0.210 HD
ENDBRANCH   6  35
TORSDOF 16
ENDMDL
