MODEL 1
REMARK VINA RESULT: -8.281750046      0.000      0.000
REMARK  15 active torsions:
REMARK  status: ('A' for Active; 'I' for Inactive)
REMARK    1  A    between atoms: S1_2  and  C3_4 
REMARK    2  A    between atoms: C3_4  and  C4_5 
REMARK    3  A    between atoms: C4_5  and  O1_6 
REMARK    4  A    between atoms: C4_5  and  C5_8 
REMARK    5  A    between atoms: C5_8  and  N1_11 
REMARK    6  A    between atoms: N1_11  and  C8_13 
REMARK    7  A    between atoms: C8_13  and  C9_17 
REMARK    8  A    between atoms: C9_17  and  C10_18 
REMARK    9  A    between atoms: C9_17  and  N3_27 
REMARK   10  A    between atoms: C10_18  and  C11_19 
REMARK   11  A    between atoms: C11_19  and  C12_20 
REMARK   12  A    between atoms: C12_20  and  C13_21 
REMARK   13  A    between atoms: C13_21  and  C14_22 
REMARK   14  A    between atoms: C14_22  and  S2_23 
REMARK   15  A    between atoms: C18_32  and  N5_33 
ROOT
HETATM    1  C9  UNL     1      14.881  16.323  32.894  1.00  0.00     0.058 C 
ENDROOT
BRANCH   1   2
HETATM    2  C8  UNL     1      14.363  16.317  34.266  1.00  0.00     0.118 C 
HETATM    3  N2  UNL     1      13.460  17.155  34.642  1.00  0.00    -0.384 N 
ATOM      4  H22 UNL     1      13.100  17.152  35.596  1.00  0.00     0.157 HD
ATOM      5  H21 UNL     1      13.159  17.796  33.909  1.00  0.00     0.157 HD
BRANCH   2   6
HETATM    6  N1  UNL     1      14.782  15.428  35.284  1.00  0.00    -0.364 N 
ATOM      7  H1  UNL     1      15.269  15.861  36.069  1.00  0.00     0.162 HD
BRANCH   6   8
HETATM    8  C5  UNL     1      14.622  14.020  35.371  1.00  0.00     0.051 C 
HETATM    9  C6  UNL     1      15.969  13.377  34.973  1.00  0.00     0.041 C 
HETATM   10  C7  UNL     1      13.572  13.490  34.421  1.00  0.00     0.041 C 
BRANCH   8  11
HETATM   11  C4  UNL     1      14.334  13.477  36.743  1.00  0.00     0.154 C 
BRANCH  11  12
HETATM   12  C3  UNL     1      12.905  13.133  36.957  1.00  0.00     0.096 C 
BRANCH  12  13
HETATM   13  S1  UNL     1      12.560  12.184  38.406  1.00  0.00    -0.225 SA
HETATM   14  C1  UNL     1      10.891  11.575  38.286  1.00  0.00     0.078 C 
HETATM   15  C2  UNL     1      13.618  10.734  38.390  1.00  0.00     0.078 C 
ENDBRANCH  12  13
ENDBRANCH  11  12
BRANCH  11  16
HETATM   16  O1  UNL     1      14.848  14.181  37.799  1.00  0.00    -0.392 OA
ATOM     17  H1  UNL     1      15.505  13.680  38.268  1.00  0.00     0.210 HD
ENDBRANCH  11  16
ENDBRANCH   8  11
ENDBRANCH   6   8
ENDBRANCH   2   6
ENDBRANCH   1   2
BRANCH   1  18
HETATM   18  C10 UNL     1      14.202  15.372  31.985  1.00  0.00     0.061 C 
BRANCH  18  19
HETATM   19  C11 UNL     1      14.942  14.788  30.845  1.00  0.00     0.006 C 
BRANCH  19  20
HETATM   20  C12 UNL     1      15.696  13.508  31.291  1.00  0.00     0.001 C 
BRANCH  20  21
HETATM   21  C13 UNL     1      17.172  13.785  31.246  1.00  0.00     0.015 C 
BRANCH  21  22
HETATM   22  C14 UNL     1      17.579  15.053  30.587  1.00  0.00     0.140 C 
BRANCH  22  23
HETATM   23  S2  UNL     1      19.180  15.633  30.990  1.00  0.00     0.140 S 
HETATM   24  C15 UNL     1      19.247  17.370  30.555  1.00  0.00     0.161 C 
HETATM   25  O2  UNL     1      19.375  15.558  32.484  1.00  0.00    -0.228 OA
HETATM   26  O3  UNL     1      20.281  14.946  30.277  1.00  0.00    -0.228 OA
ENDBRANCH  22  23
ENDBRANCH  21  22
ENDBRANCH  20  21
ENDBRANCH  19  20
ENDBRANCH  18  19
ENDBRANCH   1  18
BRANCH   1  27
HETATM   27  N3  UNL     1      15.178  17.620  32.365  1.00  0.00    -0.308 N 
HETATM   28  C16 UNL     1      14.322  18.395  31.513  1.00  0.00     0.191 A 
HETATM   29  C17 UNL     1      14.963  19.730  31.351  1.00  0.00     0.066 A 
HETATM   30  N4  UNL     1      14.524  20.807  30.711  1.00  0.00    -0.193 N 
HETATM   31  C20 UNL     1      16.192  19.717  31.962  1.00  0.00     0.125 A 
HETATM   32  C18 UNL     1      15.263  21.928  30.632  1.00  0.00     0.679 A 
ATOM     33  H4  UNL     1      13.606  20.783  30.268  1.00  0.00     0.184 HD
HETATM   34  N6  UNL     1      16.485  21.966  31.218  1.00  0.00    -0.155 N 
HETATM   35  C19 UNL     1      16.943  20.864  31.878  1.00  0.00     0.277 A 
ATOM     36  H6  UNL     1      17.056  22.810  31.164  1.00  0.00     0.187 HD
HETATM   37  O4  UNL     1      18.081  20.947  32.404  1.00  0.00    -0.267 OA
HETATM   38  C21 UNL     1      16.336  18.420  32.587  1.00  0.00     0.266 A 
HETATM   39  O5  UNL     1      17.385  18.099  33.235  1.00  0.00    -0.267 OA
BRANCH  32  40
HETATM   40  N5  UNL     1      14.859  22.985  30.017  1.00  0.00    -0.234 N 
ATOM     41  H52 UNL     1      15.215  23.886  30.337  1.00  0.00     0.174 HD
ATOM     42  H51 UNL     1      14.207  22.952  29.233  1.00  0.00     0.174 HD
ENDBRANCH  32  40
ENDBRANCH   1  27
TORSDOF 15
ENDMDL
MODEL 2
REMARK VINA RESULT: -8.264479980      1.485      1.782
REMARK  15 active torsions:
REMARK  status: ('A' for Active; 'I' for Inactive)
REMARK    1  A    between atoms: S1_2  and  C3_4 
REMARK    2  A    between atoms: C3_4  and  C4_5 
REMARK    3  A    between atoms: C4_5  and  O1_6 
REMARK    4  A    between atoms: C4_5  and  C5_8 
REMARK    5  A    between atoms: C5_8  and  N1_11 
REMARK    6  A    between atoms: N1_11  and  C8_13 
REMARK    7  A    between atoms: C8_13  and  C9_17 
REMARK    8  A    between atoms: C9_17  and  C10_18 
REMARK    9  A    between atoms: C9_17  and  N3_27 
REMARK   10  A    between atoms: C10_18  and  C11_19 
REMARK   11  A    between atoms: C11_19  and  C12_20 
REMARK   12  A    between atoms: C12_20  and  C13_21 
REMARK   13  A    between atoms: C13_21  and  C14_22 
REMARK   14  A    between atoms: C14_22  and  S2_23 
REMARK   15  A    between atoms: C18_32  and  N5_33 
ROOT
HETATM    1  C9  UNL     1      14.832  16.525  32.376  1.00  0.00     0.058 C 
ENDROOT
BRANCH   1   2
HETATM    2  C8  UNL     1      14.277  16.567  33.732  1.00  0.00     0.118 C 
HETATM    3  N2  UNL     1      13.313  17.366  34.035  1.00  0.00    -0.384 N 
ATOM      4  H22 UNL     1      12.927  17.395  34.978  1.00  0.00     0.157 HD
ATOM      5  H21 UNL     1      12.993  17.942  33.257  1.00  0.00     0.157 HD
BRANCH   2   6
HETATM    6  N1  UNL     1      14.722  15.767  34.812  1.00  0.00    -0.364 N 
ATOM      7  H1  UNL     1      15.240  16.263  35.538  1.00  0.00     0.162 HD
BRANCH   6   8
HETATM    8  C5  UNL     1      14.552  14.375  35.030  1.00  0.00     0.051 C 
HETATM    9  C6  UNL     1      14.657  14.131  36.552  1.00  0.00     0.041 C 
HETATM   10  C7  UNL     1      15.624  13.542  34.365  1.00  0.00     0.041 C 
BRANCH   8  11
HETATM   11  C4  UNL     1      13.212  13.811  34.647  1.00  0.00     0.154 C 
BRANCH  11  12
HETATM   12  C3  UNL     1      12.520  13.116  35.762  1.00  0.00     0.096 C 
BRANCH  12  13
HETATM   13  S1  UNL     1      10.756  13.128  35.687  1.00  0.00    -0.225 SA
HETATM   14  C1  UNL     1      10.219  11.579  34.991  1.00  0.00     0.078 C 
HETATM   15  C2  UNL     1      10.125  13.160  37.366  1.00  0.00     0.078 C 
ENDBRANCH  12  13
ENDBRANCH  11  12
BRANCH  11  16
HETATM   16  O1  UNL     1      13.164  13.082  33.489  1.00  0.00    -0.392 OA
ATOM     17  H1  UNL     1      13.989  13.116  33.019  1.00  0.00     0.210 HD
ENDBRANCH  11  16
ENDBRANCH   8  11
ENDBRANCH   6   8
ENDBRANCH   2   6
ENDBRANCH   1   2
BRANCH   1  18
HETATM   18  C10 UNL     1      14.215  15.505  31.498  1.00  0.00     0.061 C 
BRANCH  18  19
HETATM   19  C11 UNL     1      15.057  14.449  30.893  1.00  0.00     0.006 C 
BRANCH  19  20
HETATM   20  C12 UNL     1      15.717  14.966  29.589  1.00  0.00     0.001 C 
BRANCH  20  21
HETATM   21  C13 UNL     1      17.122  15.394  29.904  1.00  0.00     0.015 C 
BRANCH  21  22
HETATM   22  C14 UNL     1      17.798  14.660  31.003  1.00  0.00     0.140 C 
BRANCH  22  23
HETATM   23  S2  UNL     1      18.981  15.578  31.910  1.00  0.00     0.140 S 
HETATM   24  C15 UNL     1      19.175  17.160  31.090  1.00  0.00     0.161 C 
HETATM   25  O2  UNL     1      18.435  15.872  33.285  1.00  0.00    -0.228 OA
HETATM   26  O3  UNL     1      20.317  14.946  31.994  1.00  0.00    -0.228 OA
ENDBRANCH  22  23
ENDBRANCH  21  22
ENDBRANCH  20  21
ENDBRANCH  19  20
ENDBRANCH  18  19
ENDBRANCH   1  18
BRANCH   1  27
HETATM   27  N3  UNL     1      15.093  17.806  31.789  1.00  0.00    -0.308 N 
HETATM   28  C16 UNL     1      14.426  18.356  30.644  1.00  0.00     0.191 A 
HETATM   29  C17 UNL     1      14.900  19.760  30.497  1.00  0.00     0.066 A 
HETATM   30  N4  UNL     1      14.526  20.694  29.631  1.00  0.00    -0.193 N 
HETATM   31  C20 UNL     1      15.888  20.001  31.420  1.00  0.00     0.125 A 
HETATM   32  C18 UNL     1      15.097  21.911  29.617  1.00  0.00     0.679 A 
ATOM     33  H4  UNL     1      13.788  20.482  28.959  1.00  0.00     0.184 HD
HETATM   34  N6  UNL     1      16.080  22.199  30.507  1.00  0.00    -0.155 N 
HETATM   35  C19 UNL     1      16.469  21.246  31.402  1.00  0.00     0.277 A 
ATOM     36  H6  UNL     1      16.522  23.118  30.507  1.00  0.00     0.187 HD
HETATM   37  O4  UNL     1      17.383  21.558  32.206  1.00  0.00    -0.267 OA
HETATM   38  C21 UNL     1      16.017  18.801  32.219  1.00  0.00     0.266 A 
HETATM   39  O5  UNL     1      16.865  18.713  33.166  1.00  0.00    -0.267 OA
BRANCH  32  40
HETATM   40  N5  UNL     1      14.752  22.833  28.787  1.00  0.00    -0.234 N 
ATOM     41  H52 UNL     1      15.242  22.874  27.893  1.00  0.00     0.174 HD
ATOM     42  H51 UNL     1      14.018  23.511  28.989  1.00  0.00     0.174 HD
ENDBRANCH  32  40
ENDBRANCH   1  27
TORSDOF 15
ENDMDL
MODEL 3
REMARK VINA RESULT: -8.216710790      3.520      7.626
REMARK  15 active torsions:
REMARK  status: ('A' for Active; 'I' for Inactive)
REMARK    1  A    between atoms: S1_2  and  C3_4 
REMARK    2  A    between atoms: C3_4  and  C4_5 
REMARK    3  A    between atoms: C4_5  and  O1_6 
REMARK    4  A    between atoms: C4_5  and  C5_8 
REMARK    5  A    between atoms: C5_8  and  N1_11 
REMARK    6  A    between atoms: N1_11  and  C8_13 
REMARK    7  A    between atoms: C8_13  and  C9_17 
REMARK    8  A    between atoms: C9_17  and  C10_18 
REMARK    9  A    between atoms: C9_17  and  N3_27 
REMARK   10  A    between atoms: C10_18  and  C11_19 
REMARK   11  A    between atoms: C11_19  and  C12_20 
REMARK   12  A    between atoms: C12_20  and  C13_21 
REMARK   13  A    between atoms: C13_21  and  C14_22 
REMARK   14  A    between atoms: C14_22  and  S2_23 
REMARK   15  A    between atoms: C18_32  and  N5_33 
ROOT
HETATM    1  C9  UNL     1      15.239  15.251  31.631  1.00  0.00     0.058 C 
ENDROOT
BRANCH   1   2
HETATM    2  C8  UNL     1      16.134  14.250  31.040  1.00  0.00     0.118 C 
HETATM    3  N2  UNL     1      15.680  13.313  30.282  1.00  0.00    -0.384 N 
ATOM      4  H22 UNL     1      16.302  12.618  29.871  1.00  0.00     0.157 HD
ATOM      5  H21 UNL     1      14.669  13.344  30.145  1.00  0.00     0.157 HD
BRANCH   2   6
HETATM    6  N1  UNL     1      17.535  14.208  31.231  1.00  0.00    -0.364 N 
ATOM      7  H1  UNL     1      17.943  13.273  31.263  1.00  0.00     0.162 HD
BRANCH   6   8
HETATM    8  C5  UNL     1      18.456  15.277  31.383  1.00  0.00     0.051 C 
HETATM    9  C6  UNL     1      18.508  16.037  30.038  1.00  0.00     0.041 C 
HETATM   10  C7  UNL     1      19.859  14.805  31.688  1.00  0.00     0.041 C 
BRANCH   8  11
HETATM   11  C4  UNL     1      18.081  16.324  32.395  1.00  0.00     0.154 C 
BRANCH  11  12
HETATM   12  C3  UNL     1      18.425  17.706  31.975  1.00  0.00     0.096 C 
BRANCH  12  13
HETATM   13  S1  UNL     1      17.762  18.996  32.983  1.00  0.00    -0.225 SA
HETATM   14  C1  UNL     1      17.899  20.528  32.086  1.00  0.00     0.078 C 
HETATM   15  C2  UNL     1      16.005  18.698  33.188  1.00  0.00     0.078 C 
ENDBRANCH  12  13
ENDBRANCH  11  12
BRANCH  11  16
HETATM   16  O1  UNL     1      18.452  16.083  33.691  1.00  0.00    -0.392 OA
ATOM     17  H1  UNL     1      19.389  16.187  33.812  1.00  0.00     0.210 HD
ENDBRANCH  11  16
ENDBRANCH   8  11
ENDBRANCH   6   8
ENDBRANCH   2   6
ENDBRANCH   1   2
BRANCH   1  18
HETATM   18  C10 UNL     1      14.460  16.029  30.642  1.00  0.00     0.061 C 
BRANCH  18  19
HETATM   19  C11 UNL     1      15.062  17.221  30.005  1.00  0.00     0.006 C 
BRANCH  19  20
HETATM   20  C12 UNL     1      14.120  18.444  30.150  1.00  0.00     0.001 C 
BRANCH  20  21
HETATM   21  C13 UNL     1      14.584  19.516  29.206  1.00  0.00     0.015 C 
BRANCH  21  22
HETATM   22  C14 UNL     1      15.075  20.770  29.832  1.00  0.00     0.140 C 
BRANCH  22  23
HETATM   23  S2  UNL     1      14.387  22.250  29.201  1.00  0.00     0.140 S 
HETATM   24  C15 UNL     1      15.164  22.571  27.618  1.00  0.00     0.161 C 
HETATM   25  O2  UNL     1      12.919  22.037  28.922  1.00  0.00    -0.228 OA
HETATM   26  O3  UNL     1      14.597  23.440  30.056  1.00  0.00    -0.228 OA
ENDBRANCH  22  23
ENDBRANCH  21  22
ENDBRANCH  20  21
ENDBRANCH  19  20
ENDBRANCH  18  19
ENDBRANCH   1  18
BRANCH   1  27
HETATM   27  N3  UNL     1      14.540  14.819  32.805  1.00  0.00    -0.308 N 
HETATM   28  C16 UNL     1      13.116  14.793  32.971  1.00  0.00     0.191 A 
HETATM   29  C17 UNL     1      12.842  14.121  34.272  1.00  0.00     0.066 A 
HETATM   30  N4  UNL     1      11.682  13.803  34.833  1.00  0.00    -0.193 N 
HETATM   31  C20 UNL     1      14.032  13.874  34.910  1.00  0.00     0.125 A 
HETATM   32  C18 UNL     1      11.621  13.228  36.047  1.00  0.00     0.679 A 
ATOM     33  H4  UNL     1      10.816  14.000  34.331  1.00  0.00     0.184 HD
HETATM   34  N6  UNL     1      12.768  12.965  36.721  1.00  0.00    -0.155 N 
HETATM   35  C19 UNL     1      13.965  13.287  36.151  1.00  0.00     0.277 A 
ATOM     36  H6  UNL     1      12.736  12.530  37.643  1.00  0.00     0.187 HD
HETATM   37  O4  UNL     1      15.001  13.024  36.813  1.00  0.00    -0.267 OA
HETATM   38  C21 UNL     1      15.085  14.304  34.016  1.00  0.00     0.266 A 
HETATM   39  O5  UNL     1      16.315  14.206  34.332  1.00  0.00    -0.267 OA
BRANCH  32  40
HETATM   40  N5  UNL     1      10.508  12.910  36.612  1.00  0.00    -0.234 N 
ATOM     41  H52 UNL     1      10.434  11.982  37.027  1.00  0.00     0.174 HD
ATOM     42  H51 UNL     1       9.712  13.546  36.658  1.00  0.00     0.174 HD
ENDBRANCH  32  40
ENDBRANCH   1  27
TORSDOF 15
ENDMDL
MODEL 4
REMARK VINA RESULT: -8.084968459      3.434      7.760
REMARK  15 active torsions:
REMARK  status: ('A' for Active; 'I' for Inactive)
REMARK    1  A    between atoms: S1_2  and  C3_4 
REMARK    2  A    between atoms: C3_4  and  C4_5 
REMARK    3  A    between atoms: C4_5  and  O1_6 
REMARK    4  A    between atoms: C4_5  and  C5_8 
REMARK    5  A    between atoms: C5_8  and  N1_11 
REMARK    6  A    between atoms: N1_11  and  C8_13 
REMARK    7  A    between atoms: C8_13  and  C9_17 
REMARK    8  A    between atoms: C9_17  and  C10_18 
REMARK    9  A    between atoms: C9_17  and  N3_27 
REMARK   10  A    between atoms: C10_18  and  C11_19 
REMARK   11  A    between atoms: C11_19  and  C12_20 
REMARK   12  A    between atoms: C12_20  and  C13_21 
REMARK   13  A    between atoms: C13_21  and  C14_22 
REMARK   14  A    between atoms: C14_22  and  S2_23 
REMARK   15  A    between atoms: C18_32  and  N5_33 
ROOT
HETATM    1  C9  UNL     1      14.554  15.690  31.746  1.00  0.00     0.058 C 
ENDROOT
BRANCH   1   2
HETATM    2  C8  UNL     1      15.461  14.972  30.844  1.00  0.00     0.118 C 
HETATM    3  N2  UNL     1      15.133  13.835  30.335  1.00  0.00    -0.384 N 
ATOM      4  H22 UNL     1      15.764  13.336  29.707  1.00  0.00     0.157 HD
ATOM      5  H21 UNL     1      14.211  13.505  30.617  1.00  0.00     0.157 HD
BRANCH   2   6
HETATM    6  N1  UNL     1      16.741  15.431  30.453  1.00  0.00    -0.364 N 
ATOM      7  H1  UNL     1      16.796  15.822  29.512  1.00  0.00     0.162 HD
BRANCH   6   8
HETATM    8  C5  UNL     1      17.960  15.426  31.179  1.00  0.00     0.051 C 
HETATM    9  C6  UNL     1      19.077  15.869  30.209  1.00  0.00     0.041 C 
HETATM   10  C7  UNL     1      18.330  14.053  31.695  1.00  0.00     0.041 C 
BRANCH   8  11
HETATM   11  C4  UNL     1      18.044  16.397  32.324  1.00  0.00     0.154 C 
BRANCH  11  12
HETATM   12  C3  UNL     1      18.513  17.748  31.923  1.00  0.00     0.096 C 
BRANCH  12  13
HETATM   13  S1  UNL     1      17.258  18.984  31.802  1.00  0.00    -0.225 SA
HETATM   14  C1  UNL     1      16.074  18.702  33.103  1.00  0.00     0.078 C 
HETATM   15  C2  UNL     1      18.006  20.577  32.150  1.00  0.00     0.078 C 
ENDBRANCH  12  13
ENDBRANCH  11  12
BRANCH  11  16
HETATM   16  O1  UNL     1      18.679  15.956  33.454  1.00  0.00    -0.392 OA
ATOM     17  H1  UNL     1      18.897  15.033  33.396  1.00  0.00     0.210 HD
ENDBRANCH  11  16
ENDBRANCH   8  11
ENDBRANCH   6   8
ENDBRANCH   2   6
ENDBRANCH   1   2
BRANCH   1  18
HETATM   18  C10 UNL     1      13.353  16.247  31.083  1.00  0.00     0.061 C 
BRANCH  18  19
HETATM   19  C11 UNL     1      13.174  17.713  30.997  1.00  0.00     0.006 C 
BRANCH  19  20
HETATM   20  C12 UNL     1      14.167  18.320  29.973  1.00  0.00     0.001 C 
BRANCH  20  21
HETATM   21  C13 UNL     1      13.739  19.728  29.673  1.00  0.00     0.015 C 
BRANCH  21  22
HETATM   22  C14 UNL     1      14.830  20.728  29.539  1.00  0.00     0.140 C 
BRANCH  22  23
HETATM   23  S2  UNL     1      14.330  22.328  29.037  1.00  0.00     0.140 S 
HETATM   24  C15 UNL     1      15.231  22.728  27.541  1.00  0.00     0.161 C 
HETATM   25  O2  UNL     1      12.869  22.299  28.663  1.00  0.00    -0.228 OA
HETATM   26  O3  UNL     1      14.603  23.396  30.027  1.00  0.00    -0.228 OA
ENDBRANCH  22  23
ENDBRANCH  21  22
ENDBRANCH  20  21
ENDBRANCH  19  20
ENDBRANCH  18  19
ENDBRANCH   1  18
BRANCH   1  27
HETATM   27  N3  UNL     1      14.356  15.072  33.023  1.00  0.00    -0.308 N 
HETATM   28  C16 UNL     1      15.185  15.251  34.179  1.00  0.00     0.191 A 
HETATM   29  C17 UNL     1      14.510  14.556  35.311  1.00  0.00     0.066 A 
HETATM   30  N4  UNL     1      14.852  14.494  36.591  1.00  0.00    -0.193 N 
HETATM   31  C20 UNL     1      13.407  13.890  34.836  1.00  0.00     0.125 A 
HETATM   32  C18 UNL     1      14.138  13.777  37.477  1.00  0.00     0.679 A 
ATOM     33  H4  UNL     1      15.677  15.001  36.911  1.00  0.00     0.184 HD
HETATM   34  N6  UNL     1      13.040  13.099  37.059  1.00  0.00    -0.155 N 
HETATM   35  C19 UNL     1      12.680  13.159  35.744  1.00  0.00     0.277 A 
ATOM     36  H6  UNL     1      12.490  12.551  37.720  1.00  0.00     0.187 HD
HETATM   37  O4  UNL     1      11.657  12.514  35.403  1.00  0.00    -0.267 OA
HETATM   38  C21 UNL     1      13.305  14.199  33.426  1.00  0.00     0.266 A 
HETATM   39  O5  UNL     1      12.375  13.720  32.699  1.00  0.00    -0.267 OA
BRANCH  32  40
HETATM   40  N5  UNL     1      14.450  13.701  38.725  1.00  0.00    -0.234 N 
ATOM     41  H52 UNL     1      14.695  14.566  39.206  1.00  0.00     0.174 HD
ATOM     42  H51 UNL     1      14.459  12.820  39.238  1.00  0.00     0.174 HD
ENDBRANCH  32  40
ENDBRANCH   1  27
TORSDOF 15
ENDMDL
MODEL 5
REMARK VINA RESULT: -8.013298629      3.562      7.738
REMARK  15 active torsions:
REMARK  status: ('A' for Active; 'I' for Inactive)
REMARK    1  A    between atoms: S1_2  and  C3_4 
REMARK    2  A    between atoms: C3_4  and  C4_5 
REMARK    3  A    between atoms: C4_5  and  O1_6 
REMARK    4  A    between atoms: C4_5  and  C5_8 
REMARK    5  A    between atoms: C5_8  and  N1_11 
REMARK    6  A    between atoms: N1_11  and  C8_13 
REMARK    7  A    between atoms: C8_13  and  C9_17 
REMARK    8  A    between atoms: C9_17  and  C10_18 
REMARK    9  A    between atoms: C9_17  and  N3_27 
REMARK   10  A    between atoms: C10_18  and  C11_19 
REMARK   11  A    between atoms: C11_19  and  C12_20 
REMARK   12  A    between atoms: C12_20  and  C13_21 
REMARK   13  A    between atoms: C13_21  and  C14_22 
REMARK   14  A    between atoms: C14_22  and  S2_23 
REMARK   15  A    between atoms: C18_32  and  N5_33 
ROOT
HETATM    1  C9  UNL     1      14.864  16.172  31.091  1.00  0.00     0.058 C 
ENDROOT
BRANCH   1   2
HETATM    2  C8  UNL     1      15.802  15.455  30.221  1.00  0.00     0.118 C 
HETATM    3  N2  UNL     1      15.384  14.621  29.333  1.00  0.00    -0.384 N 
ATOM      4  H22 UNL     1      16.036  14.123  28.727  1.00  0.00     0.157 HD
ATOM      5  H21 UNL     1      14.369  14.518  29.305  1.00  0.00     0.157 HD
BRANCH   2   6
HETATM    6  N1  UNL     1      17.209  15.598  30.259  1.00  0.00    -0.364 N 
ATOM      7  H1  UNL     1      17.635  15.960  29.405  1.00  0.00     0.162 HD
BRANCH   6   8
HETATM    8  C5  UNL     1      18.114  15.310  31.314  1.00  0.00     0.051 C 
HETATM    9  C6  UNL     1      19.541  15.373  30.727  1.00  0.00     0.041 C 
HETATM   10  C7  UNL     1      17.924  13.924  31.888  1.00  0.00     0.041 C 
BRANCH   8  11
HETATM   11  C4  UNL     1      18.127  16.293  32.451  1.00  0.00     0.154 C 
BRANCH  11  12
HETATM   12  C3  UNL     1      18.582  17.650  32.058  1.00  0.00     0.096 C 
BRANCH  12  13
HETATM   13  S1  UNL     1      17.309  18.864  31.900  1.00  0.00    -0.225 SA
HETATM   14  C1  UNL     1      16.149  18.627  33.231  1.00  0.00     0.078 C 
HETATM   15  C2  UNL     1      18.041  20.480  32.163  1.00  0.00     0.078 C 
ENDBRANCH  12  13
ENDBRANCH  11  12
BRANCH  11  16
HETATM   16  O1  UNL     1      18.724  15.876  33.612  1.00  0.00    -0.392 OA
ATOM     17  H1  UNL     1      18.173  15.267  34.090  1.00  0.00     0.210 HD
ENDBRANCH  11  16
ENDBRANCH   8  11
ENDBRANCH   6   8
ENDBRANCH   2   6
ENDBRANCH   1   2
BRANCH   1  18
HETATM   18  C10 UNL     1      14.024  17.169  30.390  1.00  0.00     0.061 C 
BRANCH  18  19
HETATM   19  C11 UNL     1      13.067  17.995  31.158  1.00  0.00     0.006 C 
BRANCH  19  20
HETATM   20  C12 UNL     1      12.819  19.345  30.437  1.00  0.00     0.001 C 
BRANCH  20  21
HETATM   21  C13 UNL     1      13.958  20.271  30.755  1.00  0.00     0.015 C 
BRANCH  21  22
HETATM   22  C14 UNL     1      14.745  20.761  29.595  1.00  0.00     0.140 C 
BRANCH  22  23
HETATM   23  S2  UNL     1      14.321  22.357  29.015  1.00  0.00     0.140 S 
HETATM   24  C15 UNL     1      15.296  22.671  27.545  1.00  0.00     0.161 C 
HETATM   25  O2  UNL     1      12.876  22.361  28.579  1.00  0.00    -0.228 OA
HETATM   26  O3  UNL     1      14.587  23.452  29.975  1.00  0.00    -0.228 OA
ENDBRANCH  22  23
ENDBRANCH  21  22
ENDBRANCH  20  21
ENDBRANCH  19  20
ENDBRANCH  18  19
ENDBRANCH   1  18
BRANCH   1  27
HETATM   27  N3  UNL     1      14.212  15.360  32.076  1.00  0.00    -0.308 N 
HETATM   28  C16 UNL     1      14.599  15.238  33.452  1.00  0.00     0.191 A 
HETATM   29  C17 UNL     1      13.547  14.430  34.129  1.00  0.00     0.066 A 
HETATM   30  N4  UNL     1      13.424  14.102  35.410  1.00  0.00    -0.193 N 
HETATM   31  C20 UNL     1      12.649  13.983  33.192  1.00  0.00     0.125 A 
HETATM   32  C18 UNL     1      12.419  13.321  35.843  1.00  0.00     0.679 A 
ATOM     33  H4  UNL     1      14.109  14.451  36.081  1.00  0.00     0.184 HD
HETATM   34  N6  UNL     1      11.507  12.852  34.957  1.00  0.00    -0.155 N 
HETATM   35  C19 UNL     1      11.624  13.184  33.639  1.00  0.00     0.277 A 
ATOM     36  H6  UNL     1      10.740  12.256  35.272  1.00  0.00     0.187 HD
HETATM   37  O4  UNL     1      10.755  12.726  32.855  1.00  0.00    -0.267 OA
HETATM   38  C21 UNL     1      13.052  14.548  31.922  1.00  0.00     0.266 A 
HETATM   39  O5  UNL     1      12.410  14.311  30.847  1.00  0.00    -0.267 OA
BRANCH  32  40
HETATM   40  N5  UNL     1      12.279  12.989  37.080  1.00  0.00    -0.234 N 
ATOM     41  H52 UNL     1      11.454  13.330  37.573  1.00  0.00     0.174 HD
ATOM     42  H51 UNL     1      12.954  12.406  37.575  1.00  0.00     0.174 HD
ENDBRANCH  32  40
ENDBRANCH   1  27
TORSDOF 15
ENDMDL
