MODEL 1
REMARK VINA RESULT: -8.496417233      0.000      0.000
REMARK  16 active torsions:
REMARK  status: ('A' for Active; 'I' for Inactive)
REMARK    1  A    between atoms: N1_2  and  C3_4 
REMARK    2  A    between atoms: C3_4  and  C4_5 
REMARK    3  A    between atoms: C3_4  and  C22_36 
REMARK    4  A    between atoms: C4_5  and  C5_6 
REMARK    5  A    between atoms: C5_6  and  C6_7 
REMARK    6  A    between atoms: C5_6  and  C10_15 
REMARK    7  A    between atoms: C6_7  and  C7_8 
REMARK    8  A    between atoms: C7_8  and  C8_9 
REMARK    9  A    between atoms: C8_9  and  N2_10 
REMARK   10  A    between atoms: C10_15  and  O1_16 
REMARK   11  A    between atoms: C10_15  and  N5_18 
REMARK   12  A    between atoms: N5_18  and  C11_19 
REMARK   13  A    between atoms: N5_18  and  C18_32 
REMARK   14  A    between atoms: C11_19  and  C12_20 
REMARK       I    between atoms: C22_36  and  N9_38 
REMARK   15  A    between atoms: N9_38  and  N10_40 
REMARK   16  A    between atoms: N10_40  and  C23_42 
ROOT
HETATM    1  C5  UNL     1      16.749  18.502  32.297  1.00  0.00     0.063 C 
ENDROOT
BRANCH   1   2
HETATM    2  C4  UNL     1      15.493  17.955  31.683  1.00  0.00     0.058 C 
BRANCH   2   3
HETATM    3  C3  UNL     1      14.266  18.749  31.770  1.00  0.00     0.315 C 
BRANCH   3   4
HETATM    4  N1  UNL     1      13.191  17.845  32.221  1.00  0.00     0.093 N 
HETATM    5  C1  UNL     1      13.453  17.345  33.562  1.00  0.00     0.310 C 
HETATM    6  C2  UNL     1      13.205  16.649  31.360  1.00  0.00     0.310 C 
ENDBRANCH   3   4
BRANCH   3   7
HETATM    7  C22 UNL     1      13.782  19.404  30.551  1.00  0.00     0.269 C 
HETATM    8  O2  UNL     1      14.273  19.173  29.401  1.00  0.00    -0.269 OA
HETATM    9  N9  UNL     1      12.724  20.341  30.633  1.00  0.00    -0.266 N 
ATOM     10  H9  UNL     1      12.322  20.542  31.549  1.00  0.00     0.190 HD
BRANCH   9  11
HETATM   11  N10 UNL     1      12.206  21.003  29.521  1.00  0.00    -0.275 N 
ATOM     12  H10 UNL     1      12.702  21.828  29.180  1.00  0.00     0.189 HD
BRANCH  11  13
HETATM   13  C23 UNL     1      11.041  20.603  28.839  1.00  0.00     0.368 C 
HETATM   14  O3  UNL     1      10.626  21.270  27.856  1.00  0.00    -0.282 OA
ENDBRANCH  11  13
ENDBRANCH   9  11
ENDBRANCH   3   7
ENDBRANCH   2   3
ENDBRANCH   1   2
BRANCH   1  15
HETATM   15  C6  UNL     1      17.234  19.575  31.362  1.00  0.00     0.014 C 
BRANCH  15  16
HETATM   16  C7  UNL     1      17.368  20.939  31.934  1.00  0.00     0.020 C 
BRANCH  16  17
HETATM   17  C8  UNL     1      16.340  21.934  31.477  1.00  0.00     0.122 C 
BRANCH  17  18
HETATM   18  N2  UNL     1      16.112  21.778  30.032  1.00  0.00    -0.367 N 
HETATM   19  C9  UNL     1      15.202  22.443  29.420  1.00  0.00     0.196 C 
HETATM   20  N3  UNL     1      14.369  23.369  30.130  1.00  0.00    -0.067 NA
HETATM   21  N4  UNL     1      14.958  22.315  28.031  1.00  0.00    -0.067 NA
ATOM     22  H2  UNL     1      16.693  21.127  29.504  1.00  0.00     0.161 HD
ENDBRANCH  17  18
ENDBRANCH  16  17
ENDBRANCH  15  16
ENDBRANCH   1  15
BRANCH   1  23
HETATM   23  C10 UNL     1      17.804  17.580  32.623  1.00  0.00     0.122 C 
BRANCH  23  24
HETATM   24  O1  UNL     1      18.723  18.115  33.403  1.00  0.00    -0.349 OA
ATOM     25  H1  UNL     1      19.139  17.477  33.969  1.00  0.00     0.219 HD
ENDBRANCH  23  24
BRANCH  23  26
HETATM   26  N5  UNL     1      18.089  16.254  32.313  1.00  0.00    -0.332 N 
BRANCH  26  27
HETATM   27  C11 UNL     1      18.103  15.167  33.206  1.00  0.00     0.105 C 
BRANCH  27  28
HETATM   28  C12 UNL     1      16.894  14.692  33.834  1.00  0.00    -0.018 A 
HETATM   29  C13 UNL     1      16.661  14.528  35.162  1.00  0.00     0.015 A 
HETATM   30  C14 UNL     1      15.453  14.061  35.673  1.00  0.00     0.034 A 
HETATM   31  C15 UNL     1      14.442  13.746  34.819  1.00  0.00     0.077 A 
HETATM   32  N6  UNL     1      13.204  13.287  35.004  1.00  0.00    -0.284 N 
HETATM   33  C16 UNL     1      14.645  13.900  33.474  1.00  0.00     0.078 A 
HETATM   34  N7  UNL     1      12.663  13.162  33.800  1.00  0.00    -0.242 N 
ATOM     35  H6  UNL     1      12.760  13.074  35.897  1.00  0.00     0.188 HD
HETATM   36  N8  UNL     1      13.517  13.526  32.876  1.00  0.00    -0.284 N 
ATOM     37  H7  UNL     1      11.716  12.830  33.619  1.00  0.00     0.208 HD
ATOM     38  H8  UNL     1      13.346  13.523  31.871  1.00  0.00     0.188 HD
HETATM   39  C17 UNL     1      15.829  14.357  32.984  1.00  0.00     0.046 A 
ENDBRANCH  27  28
ENDBRANCH  26  27
BRANCH  26  40
HETATM   40  C18 UNL     1      18.468  15.997  30.902  1.00  0.00     0.027 C 
HETATM   41  C19 UNL     1      17.312  15.585  30.058  1.00  0.00     0.038 C 
HETATM   42  C20 UNL     1      19.441  14.806  30.942  1.00  0.00     0.038 C 
HETATM   43  C21 UNL     1      19.173  17.128  30.256  1.00  0.00     0.038 C 
ENDBRANCH  26  40
ENDBRANCH  23  26
ENDBRANCH   1  23
TORSDOF 16
ENDMDL
MODEL 2
REMARK VINA RESULT: -8.421176080      2.138      3.747
REMARK  16 active torsions:
REMARK  status: ('A' for Active; 'I' for Inactive)
REMARK    1  A    between atoms: N1_2  and  C3_4 
REMARK    2  A    between atoms: C3_4  and  C4_5 
REMARK    3  A    between atoms: C3_4  and  C22_36 
REMARK    4  A    between atoms: C4_5  and  C5_6 
REMARK    5  A    between atoms: C5_6  and  C6_7 
REMARK    6  A    between atoms: C5_6  and  C10_15 
REMARK    7  A    between atoms: C6_7  and  C7_8 
REMARK    8  A    between atoms: C7_8  and  C8_9 
REMARK    9  A    between atoms: C8_9  and  N2_10 
REMARK   10  A    between atoms: C10_15  and  O1_16 
REMARK   11  A    between atoms: C10_15  and  N5_18 
REMARK   12  A    between atoms: N5_18  and  C11_19 
REMARK   13  A    between atoms: N5_18  and  C18_32 
REMARK   14  A    between atoms: C11_19  and  C12_20 
REMARK       I    between atoms: C22_36  and  N9_38 
REMARK   15  A    between atoms: N9_38  and  N10_40 
REMARK   16  A    between atoms: N10_40  and  C23_42 
ROOT
HETATM    1  C5  UNL     1      14.609  18.118  31.394  1.00  0.00     0.063 C 
ENDROOT
BRANCH   1   2
HETATM    2  C4  UNL     1      15.637  18.928  32.128  1.00  0.00     0.058 C 
BRANCH   2   3
HETATM    3  C3  UNL     1      16.603  19.707  31.350  1.00  0.00     0.315 C 
BRANCH   3   4
HETATM    4  N1  UNL     1      17.831  19.817  32.161  1.00  0.00     0.093 N 
HETATM    5  C1  UNL     1      18.831  18.851  31.731  1.00  0.00     0.310 C 
HETATM    6  C2  UNL     1      17.503  19.434  33.545  1.00  0.00     0.310 C 
ENDBRANCH   3   4
BRANCH   3   7
HETATM    7  C22 UNL     1      16.232  21.071  30.962  1.00  0.00     0.269 C 
HETATM    8  O2  UNL     1      16.640  22.103  31.583  1.00  0.00    -0.269 OA
HETATM    9  N9  UNL     1      15.378  21.274  29.850  1.00  0.00    -0.266 N 
ATOM     10  H9  UNL     1      15.038  20.457  29.343  1.00  0.00     0.190 HD
BRANCH   9  11
HETATM   11  N10 UNL     1      14.982  22.538  29.416  1.00  0.00    -0.275 N 
ATOM     12  H10 UNL     1      14.830  23.261  30.121  1.00  0.00     0.189 HD
BRANCH  11  13
HETATM   13  C23 UNL     1      14.779  22.878  28.065  1.00  0.00     0.368 C 
HETATM   14  O3  UNL     1      15.149  24.003  27.636  1.00  0.00    -0.282 OA
ENDBRANCH  11  13
ENDBRANCH   9  11
ENDBRANCH   3   7
ENDBRANCH   2   3
ENDBRANCH   1   2
BRANCH   1  15
HETATM   15  C6  UNL     1      13.288  18.444  32.037  1.00  0.00     0.014 C 
BRANCH  15  16
HETATM   16  C7  UNL     1      12.628  19.698  31.592  1.00  0.00     0.020 C 
BRANCH  16  17
HETATM   17  C8  UNL     1      11.878  19.605  30.295  1.00  0.00     0.122 C 
BRANCH  17  18
HETATM   18  N2  UNL     1      11.895  20.914  29.621  1.00  0.00    -0.367 N 
HETATM   19  C9  UNL     1      11.165  21.151  28.595  1.00  0.00     0.196 C 
HETATM   20  N3  UNL     1      10.298  20.140  28.064  1.00  0.00    -0.067 NA
HETATM   21  N4  UNL     1      11.159  22.398  27.925  1.00  0.00    -0.067 NA
ATOM     22  H2  UNL     1      12.502  21.650  29.981  1.00  0.00     0.161 HD
ENDBRANCH  17  18
ENDBRANCH  16  17
ENDBRANCH  15  16
ENDBRANCH   1  15
BRANCH   1  23
HETATM   23  C10 UNL     1      14.803  16.697  31.297  1.00  0.00     0.122 C 
BRANCH  23  24
HETATM   24  O1  UNL     1      14.185  16.168  30.259  1.00  0.00    -0.349 OA
ATOM     25  H1  UNL     1      13.487  15.576  30.511  1.00  0.00     0.219 HD
ENDBRANCH  23  24
BRANCH  23  26
HETATM   26  N5  UNL     1      15.490  15.740  32.039  1.00  0.00    -0.332 N 
BRANCH  26  27
HETATM   27  C11 UNL     1      15.224  15.355  33.365  1.00  0.00     0.105 C 
BRANCH  27  28
HETATM   28  C12 UNL     1      14.001  14.679  33.722  1.00  0.00    -0.018 A 
HETATM   29  C13 UNL     1      13.514  14.455  34.971  1.00  0.00     0.015 A 
HETATM   30  C14 UNL     1      12.316  13.788  35.215  1.00  0.00     0.034 A 
HETATM   31  C15 UNL     1      11.580  13.330  34.166  1.00  0.00     0.077 A 
HETATM   32  N6  UNL     1      10.423  12.673  34.085  1.00  0.00    -0.284 N 
HETATM   33  C16 UNL     1      12.042  13.540  32.895  1.00  0.00     0.078 A 
HETATM   34  N7  UNL     1      10.184  12.485  32.794  1.00  0.00    -0.242 N 
ATOM     35  H6  UNL     1       9.835  12.374  34.864  1.00  0.00     0.188 HD
HETATM   36  N8  UNL     1      11.148  13.000  32.072  1.00  0.00    -0.284 N 
ATOM     37  H7  UNL     1       9.366  12.007  32.418  1.00  0.00     0.208 HD
ATOM     38  H8  UNL     1      11.203  12.988  31.054  1.00  0.00     0.188 HD
HETATM   39  C17 UNL     1      13.215  14.192  32.667  1.00  0.00     0.046 A 
ENDBRANCH  27  28
ENDBRANCH  26  27
BRANCH  26  40
HETATM   40  C18 UNL     1      16.652  15.119  31.356  1.00  0.00     0.027 C 
HETATM   41  C19 UNL     1      16.387  13.719  30.923  1.00  0.00     0.038 C 
HETATM   42  C20 UNL     1      17.771  15.059  32.410  1.00  0.00     0.038 C 
HETATM   43  C21 UNL     1      17.161  15.903  30.207  1.00  0.00     0.038 C 
ENDBRANCH  26  40
ENDBRANCH  23  26
ENDBRANCH   1  23
TORSDOF 16
ENDMDL
MODEL 3
REMARK VINA RESULT: -8.412460089      2.039      3.637
REMARK  16 active torsions:
REMARK  status: ('A' for Active; 'I' for Inactive)
REMARK    1  A    between atoms: N1_2  and  C3_4 
REMARK    2  A    between atoms: C3_4  and  C4_5 
REMARK    3  A    between atoms: C3_4  and  C22_36 
REMARK    4  A    between atoms: C4_5  and  C5_6 
REMARK    5  A    between atoms: C5_6  and  C6_7 
REMARK    6  A    between atoms: C5_6  and  C10_15 
REMARK    7  A    between atoms: C6_7  and  C7_8 
REMARK    8  A    between atoms: C7_8  and  C8_9 
REMARK    9  A    between atoms: C8_9  and  N2_10 
REMARK   10  A    between atoms: C10_15  and  O1_16 
REMARK   11  A    between atoms: C10_15  and  N5_18 
REMARK   12  A    between atoms: N5_18  and  C11_19 
REMARK   13  A    between atoms: N5_18  and  C18_32 
REMARK   14  A    between atoms: C11_19  and  C12_20 
REMARK       I    between atoms: C22_36  and  N9_38 
REMARK   15  A    between atoms: N9_38  and  N10_40 
REMARK   16  A    between atoms: N10_40  and  C23_42 
ROOT
HETATM    1  C5  UNL     1      15.109  17.894  31.803  1.00  0.00     0.063 C 
ENDROOT
BRANCH   1   2
HETATM    2  C4  UNL     1      15.775  19.161  32.256  1.00  0.00     0.058 C 
BRANCH   2   3
HETATM    3  C3  UNL     1      16.655  19.864  31.320  1.00  0.00     0.315 C 
BRANCH   3   4
HETATM    4  N1  UNL     1      17.966  20.012  31.979  1.00  0.00     0.093 N 
HETATM    5  C1  UNL     1      18.852  18.909  31.639  1.00  0.00     0.310 C 
HETATM    6  C2  UNL     1      17.763  19.901  33.434  1.00  0.00     0.310 C 
ENDBRANCH   3   4
BRANCH   3   7
HETATM    7  C22 UNL     1      16.255  21.201  30.872  1.00  0.00     0.269 C 
HETATM    8  O2  UNL     1      16.570  22.263  31.497  1.00  0.00    -0.269 OA
HETATM    9  N9  UNL     1      15.480  21.343  29.695  1.00  0.00    -0.266 N 
ATOM     10  H9  UNL     1      15.215  20.501  29.183  1.00  0.00     0.190 HD
BRANCH   9  11
HETATM   11  N10 UNL     1      15.063  22.578  29.203  1.00  0.00    -0.275 N 
ATOM     12  H10 UNL     1      14.714  23.267  29.870  1.00  0.00     0.189 HD
BRANCH  11  13
HETATM   13  C23 UNL     1      15.096  22.934  27.840  1.00  0.00     0.368 C 
HETATM   14  O3  UNL     1      15.562  24.050  27.491  1.00  0.00    -0.282 OA
ENDBRANCH  11  13
ENDBRANCH   9  11
ENDBRANCH   3   7
ENDBRANCH   2   3
ENDBRANCH   1   2
BRANCH   1  15
HETATM   15  C6  UNL     1      13.666  18.016  32.211  1.00  0.00     0.014 C 
BRANCH  15  16
HETATM   16  C7  UNL     1      12.953  19.237  31.760  1.00  0.00     0.020 C 
BRANCH  16  17
HETATM   17  C8  UNL     1      12.613  19.282  30.297  1.00  0.00     0.122 C 
BRANCH  17  18
HETATM   18  N2  UNL     1      11.777  20.461  30.021  1.00  0.00    -0.367 N 
HETATM   19  C9  UNL     1      11.837  21.079  28.899  1.00  0.00     0.196 C 
HETATM   20  N3  UNL     1      12.728  20.637  27.866  1.00  0.00    -0.067 NA
HETATM   21  N4  UNL     1      11.047  22.216  28.604  1.00  0.00    -0.067 NA
ATOM     22  H2  UNL     1      11.134  20.794  30.739  1.00  0.00     0.161 HD
ENDBRANCH  17  18
ENDBRANCH  16  17
ENDBRANCH  15  16
ENDBRANCH   1  15
BRANCH   1  23
HETATM   23  C10 UNL     1      15.667  16.641  32.234  1.00  0.00     0.122 C 
BRANCH  23  24
HETATM   24  O1  UNL     1      16.534  16.781  33.217  1.00  0.00    -0.349 OA
ATOM     25  H1  UNL     1      16.807  15.950  33.586  1.00  0.00     0.219 HD
ENDBRANCH  23  24
BRANCH  23  26
HETATM   26  N5  UNL     1      15.511  15.309  31.861  1.00  0.00    -0.332 N 
BRANCH  26  27
HETATM   27  C11 UNL     1      14.590  14.390  32.396  1.00  0.00     0.105 C 
BRANCH  27  28
HETATM   28  C12 UNL     1      14.637  13.996  33.783  1.00  0.00    -0.018 A 
HETATM   29  C13 UNL     1      15.741  13.737  34.531  1.00  0.00     0.015 A 
HETATM   30  C14 UNL     1      15.684  13.361  35.870  1.00  0.00     0.034 A 
HETATM   31  C15 UNL     1      14.474  13.241  36.481  1.00  0.00     0.077 A 
HETATM   32  N6  UNL     1      14.108  12.908  37.719  1.00  0.00    -0.284 N 
HETATM   33  C16 UNL     1      13.342  13.496  35.755  1.00  0.00     0.078 A 
HETATM   34  N7  UNL     1      12.784  12.956  37.748  1.00  0.00    -0.242 N 
ATOM     35  H6  UNL     1      14.727  12.664  38.492  1.00  0.00     0.188 HD
HETATM   36  N8  UNL     1      12.314  13.307  36.577  1.00  0.00    -0.284 N 
ATOM     37  H7  UNL     1      12.212  12.750  38.566  1.00  0.00     0.208 HD
ATOM     38  H8  UNL     1      11.329  13.416  36.337  1.00  0.00     0.188 HD
HETATM   39  C17 UNL     1      13.409  13.862  34.445  1.00  0.00     0.046 A 
ENDBRANCH  27  28
ENDBRANCH  26  27
BRANCH  26  40
HETATM   40  C18 UNL     1      16.462  14.819  30.833  1.00  0.00     0.027 C 
HETATM   41  C19 UNL     1      17.132  15.923  30.092  1.00  0.00     0.038 C 
HETATM   42  C20 UNL     1      15.611  14.045  29.812  1.00  0.00     0.038 C 
HETATM   43  C21 UNL     1      17.485  13.886  31.361  1.00  0.00     0.038 C 
ENDBRANCH  26  40
ENDBRANCH  23  26
ENDBRANCH   1  23
TORSDOF 16
ENDMDL
MODEL 4
REMARK VINA RESULT: -8.271093482      2.010      3.726
REMARK  16 active torsions:
REMARK  status: ('A' for Active; 'I' for Inactive)
REMARK    1  A    between atoms: N1_2  and  C3_4 
REMARK    2  A    between atoms: C3_4  and  C4_5 
REMARK    3  A    between atoms: C3_4  and  C22_36 
REMARK    4  A    between atoms: C4_5  and  C5_6 
REMARK    5  A    between atoms: C5_6  and  C6_7 
REMARK    6  A    between atoms: C5_6  and  C10_15 
REMARK    7  A    between atoms: C6_7  and  C7_8 
REMARK    8  A    between atoms: C7_8  and  C8_9 
REMARK    9  A    between atoms: C8_9  and  N2_10 
REMARK   10  A    between atoms: C10_15  and  O1_16 
REMARK   11  A    between atoms: C10_15  and  N5_18 
REMARK   12  A    between atoms: N5_18  and  C11_19 
REMARK   13  A    between atoms: N5_18  and  C18_32 
REMARK   14  A    between atoms: C11_19  and  C12_20 
REMARK       I    between atoms: C22_36  and  N9_38 
REMARK   15  A    between atoms: N9_38  and  N10_40 
REMARK   16  A    between atoms: N10_40  and  C23_42 
ROOT
HETATM    1  C5  UNL     1      14.443  18.211  31.225  1.00  0.00     0.063 C 
ENDROOT
BRANCH   1   2
HETATM    2  C4  UNL     1      14.647  19.697  31.245  1.00  0.00     0.058 C 
BRANCH   2   3
HETATM    3  C3  UNL     1      15.471  20.306  30.198  1.00  0.00     0.315 C 
BRANCH   3   4
HETATM    4  N1  UNL     1      16.075  21.525  30.770  1.00  0.00     0.093 N 
HETATM    5  C1  UNL     1      17.163  21.194  31.679  1.00  0.00     0.310 C 
HETATM    6  C2  UNL     1      15.064  22.187  31.613  1.00  0.00     0.310 C 
ENDBRANCH   3   4
BRANCH   3   7
HETATM    7  C22 UNL     1      14.812  20.708  28.953  1.00  0.00     0.269 C 
HETATM    8  O2  UNL     1      14.090  19.919  28.266  1.00  0.00    -0.269 OA
HETATM    9  N9  UNL     1      14.973  22.031  28.470  1.00  0.00    -0.266 N 
ATOM     10  H9  UNL     1      15.553  22.676  29.007  1.00  0.00     0.190 HD
BRANCH   9  11
HETATM   11  N10 UNL     1      14.378  22.490  27.297  1.00  0.00    -0.275 N 
ATOM     12  H10 UNL     1      13.557  21.994  26.950  1.00  0.00     0.189 HD
BRANCH  11  13
HETATM   13  C23 UNL     1      14.841  23.598  26.561  1.00  0.00     0.368 C 
HETATM   14  O3  UNL     1      15.613  24.434  27.100  1.00  0.00    -0.282 OA
ENDBRANCH  11  13
ENDBRANCH   9  11
ENDBRANCH   3   7
ENDBRANCH   2   3
ENDBRANCH   1   2
BRANCH   1  15
HETATM   15  C6  UNL     1      12.963  17.994  31.390  1.00  0.00     0.014 C 
BRANCH  15  16
HETATM   16  C7  UNL     1      12.129  19.213  31.537  1.00  0.00     0.020 C 
BRANCH  16  17
HETATM   17  C8  UNL     1      11.177  19.483  30.407  1.00  0.00     0.122 C 
BRANCH  17  18
HETATM   18  N2  UNL     1      11.474  20.798  29.816  1.00  0.00    -0.367 N 
HETATM   19  C9  UNL     1      11.009  21.141  28.672  1.00  0.00     0.196 C 
HETATM   20  N3  UNL     1      10.175  20.246  27.922  1.00  0.00    -0.067 NA
HETATM   21  N4  UNL     1      11.276  22.397  28.076  1.00  0.00    -0.067 NA
ATOM     22  H2  UNL     1      12.064  21.453  30.330  1.00  0.00     0.161 HD
ENDBRANCH  17  18
ENDBRANCH  16  17
ENDBRANCH  15  16
ENDBRANCH   1  15
BRANCH   1  23
HETATM   23  C10 UNL     1      15.193  17.408  32.153  1.00  0.00     0.122 C 
BRANCH  23  24
HETATM   24  O1  UNL     1      15.501  18.061  33.257  1.00  0.00    -0.349 OA
ATOM     25  H1  UNL     1      15.966  17.520  33.885  1.00  0.00     0.219 HD
ENDBRANCH  23  24
BRANCH  23  26
HETATM   26  N5  UNL     1      15.672  16.102  32.168  1.00  0.00    -0.332 N 
BRANCH  26  27
HETATM   27  C11 UNL     1      15.581  15.185  33.231  1.00  0.00     0.105 C 
BRANCH  27  28
HETATM   28  C12 UNL     1      14.320  14.599  33.615  1.00  0.00    -0.018 A 
HETATM   29  C13 UNL     1      13.858  14.383  34.874  1.00  0.00     0.015 A 
HETATM   30  C14 UNL     1      12.619  13.808  35.144  1.00  0.00     0.034 A 
HETATM   31  C15 UNL     1      11.815  13.436  34.111  1.00  0.00     0.077 A 
HETATM   32  N6  UNL     1      10.607  12.875  34.055  1.00  0.00    -0.284 N 
HETATM   33  C16 UNL     1      12.251  13.640  32.830  1.00  0.00     0.078 A 
HETATM   34  N7  UNL     1      10.312  12.739  32.770  1.00  0.00    -0.242 N 
ATOM     35  H6  UNL     1      10.023  12.604  34.847  1.00  0.00     0.188 HD
HETATM   36  N8  UNL     1      11.290  13.194  32.027  1.00  0.00    -0.284 N 
ATOM     37  H7  UNL     1       9.446  12.337  32.411  1.00  0.00     0.208 HD
ATOM     38  H8  UNL     1      11.310  13.203  31.007  1.00  0.00     0.188 HD
HETATM   39  C17 UNL     1      13.464  14.203  32.577  1.00  0.00     0.046 A 
ENDBRANCH  27  28
ENDBRANCH  26  27
BRANCH  26  40
HETATM   40  C18 UNL     1      16.398  15.676  30.946  1.00  0.00     0.027 C 
HETATM   41  C19 UNL     1      17.163  14.413  31.138  1.00  0.00     0.038 C 
HETATM   42  C20 UNL     1      17.426  16.785  30.663  1.00  0.00     0.038 C 
HETATM   43  C21 UNL     1      15.533  15.553  29.749  1.00  0.00     0.038 C 
ENDBRANCH  26  40
ENDBRANCH  23  26
ENDBRANCH   1  23
TORSDOF 16
ENDMDL
MODEL 5
REMARK VINA RESULT: -8.221227820      2.094      3.789
REMARK  16 active torsions:
REMARK  status: ('A' for Active; 'I' for Inactive)
REMARK    1  A    between atoms: N1_2  and  C3_4 
REMARK    2  A    between atoms: C3_4  and  C4_5 
REMARK    3  A    between atoms: C3_4  and  C22_36 
REMARK    4  A    between atoms: C4_5  and  C5_6 
REMARK    5  A    between atoms: C5_6  and  C6_7 
REMARK    6  A    between atoms: C5_6  and  C10_15 
REMARK    7  A    between atoms: C6_7  and  C7_8 
REMARK    8  A    between atoms: C7_8  and  C8_9 
REMARK    9  A    between atoms: C8_9  and  N2_10 
REMARK   10  A    between atoms: C10_15  and  O1_16 
REMARK   11  A    between atoms: C10_15  and  N5_18 
REMARK   12  A    between atoms: N5_18  and  C11_19 
REMARK   13  A    between atoms: N5_18  and  C18_32 
REMARK   14  A    between atoms: C11_19  and  C12_20 
REMARK       I    between atoms: C22_36  and  N9_38 
REMARK   15  A    between atoms: N9_38  and  N10_40 
REMARK   16  A    between atoms: N10_40  and  C23_42 
ROOT
HETATM    1  C5  UNL     1      14.510  18.004  31.411  1.00  0.00     0.063 C 
ENDROOT
BRANCH   1   2
HETATM    2  C4  UNL     1      15.555  18.864  32.058  1.00  0.00     0.058 C 
BRANCH   2   3
HETATM    3  C3  UNL     1      16.508  19.575  31.203  1.00  0.00     0.315 C 
BRANCH   3   4
HETATM    4  N1  UNL     1      17.804  19.589  31.908  1.00  0.00     0.093 N 
HETATM    5  C1  UNL     1      18.633  18.464  31.504  1.00  0.00     0.310 C 
HETATM    6  C2  UNL     1      17.548  19.377  33.343  1.00  0.00     0.310 C 
ENDBRANCH   3   4
BRANCH   3   7
HETATM    7  C22 UNL     1      16.208  20.964  30.846  1.00  0.00     0.269 C 
HETATM    8  O2  UNL     1      16.676  21.959  31.484  1.00  0.00    -0.269 OA
HETATM    9  N9  UNL     1      15.358  21.236  29.745  1.00  0.00    -0.266 N 
ATOM     10  H9  UNL     1      14.970  20.449  29.224  1.00  0.00     0.190 HD
BRANCH   9  11
HETATM   11  N10 UNL     1      15.027  22.528  29.341  1.00  0.00    -0.275 N 
ATOM     12  H10 UNL     1      14.954  23.251  30.058  1.00  0.00     0.189 HD
BRANCH  11  13
HETATM   13  C23 UNL     1      14.788  22.897  28.003  1.00  0.00     0.368 C 
HETATM   14  O3  UNL     1      15.114  24.043  27.597  1.00  0.00    -0.282 OA
ENDBRANCH  11  13
ENDBRANCH   9  11
ENDBRANCH   3   7
ENDBRANCH   2   3
ENDBRANCH   1   2
BRANCH   1  15
HETATM   15  C6  UNL     1      13.200  18.407  32.029  1.00  0.00     0.014 C 
BRANCH  15  16
HETATM   16  C7  UNL     1      12.600  19.674  31.539  1.00  0.00     0.020 C 
BRANCH  16  17
HETATM   17  C8  UNL     1      11.910  19.588  30.208  1.00  0.00     0.122 C 
BRANCH  17  18
HETATM   18  N2  UNL     1      11.907  20.913  29.568  1.00  0.00    -0.367 N 
HETATM   19  C9  UNL     1      11.162  21.169  28.556  1.00  0.00     0.196 C 
HETATM   20  N3  UNL     1      10.298  20.164  28.010  1.00  0.00    -0.067 NA
HETATM   21  N4  UNL     1      11.138  22.433  27.918  1.00  0.00    -0.067 NA
ATOM     22  H2  UNL     1      12.512  21.646  29.938  1.00  0.00     0.161 HD
ENDBRANCH  17  18
ENDBRANCH  16  17
ENDBRANCH  15  16
ENDBRANCH   1  15
BRANCH   1  23
HETATM   23  C10 UNL     1      14.685  16.577  31.448  1.00  0.00     0.122 C 
BRANCH  23  24
HETATM   24  O1  UNL     1      13.721  15.930  30.823  1.00  0.00    -0.349 OA
ATOM     25  H1  UNL     1      13.800  14.987  30.904  1.00  0.00     0.219 HD
ENDBRANCH  23  24
BRANCH  23  26
HETATM   26  N5  UNL     1      15.632  15.710  31.986  1.00  0.00    -0.332 N 
BRANCH  26  27
HETATM   27  C11 UNL     1      15.898  15.500  33.351  1.00  0.00     0.105 C 
BRANCH  27  28
HETATM   28  C12 UNL     1      14.985  14.763  34.191  1.00  0.00    -0.018 A 
HETATM   29  C13 UNL     1      13.849  14.121  33.813  1.00  0.00     0.015 A 
HETATM   30  C14 UNL     1      13.030  13.433  34.704  1.00  0.00     0.034 A 
HETATM   31  C15 UNL     1      13.363  13.388  36.023  1.00  0.00     0.077 A 
HETATM   32  N6  UNL     1      12.792  12.823  37.087  1.00  0.00    -0.284 N 
HETATM   33  C16 UNL     1      14.502  14.025  36.436  1.00  0.00     0.078 A 
HETATM   34  N7  UNL     1      13.564  13.109  38.126  1.00  0.00    -0.242 N 
ATOM     35  H6  UNL     1      11.930  12.277  37.099  1.00  0.00     0.188 HD
HETATM   36  N8  UNL     1      14.591  13.829  37.748  1.00  0.00    -0.284 N 
ATOM     37  H7  UNL     1      13.383  12.811  39.084  1.00  0.00     0.208 HD
ATOM     38  H8  UNL     1      15.331  14.179  38.356  1.00  0.00     0.188 HD
HETATM   39  C17 UNL     1      15.296  14.695  35.557  1.00  0.00     0.046 A 
ENDBRANCH  27  28
ENDBRANCH  26  27
BRANCH  26  40
HETATM   40  C18 UNL     1      16.470  14.989  30.997  1.00  0.00     0.027 C 
HETATM   41  C19 UNL     1      15.958  13.625  30.689  1.00  0.00     0.038 C 
HETATM   42  C20 UNL     1      17.845  14.812  31.666  1.00  0.00     0.038 C 
HETATM   43  C21 UNL     1      16.681  15.734  29.734  1.00  0.00     0.038 C 
ENDBRANCH  26  40
ENDBRANCH  23  26
ENDBRANCH   1  23
TORSDOF 16
ENDMDL
