MODEL 1
REMARK VINA RESULT: -8.474907526      0.000      0.000
REMARK  17 active torsions:
REMARK  status: ('A' for Active; 'I' for Inactive)
REMARK    1  A    between atoms: N1_2  and  C2_3 
REMARK    2  A    between atoms: N1_2  and  C4_7 
REMARK    3  A    between atoms: C2_3  and  C3_4 
REMARK    4  A    between atoms: C4_7  and  O2_8 
REMARK    5  A    between atoms: C4_7  and  C5_10 
REMARK    6  A    between atoms: C6_11  and  O3_12 
REMARK    7  A    between atoms: O3_12  and  C7_13 
REMARK    8  A    between atoms: C7_13  and  C8_14 
REMARK    9  A    between atoms: C8_14  and  C9_15 
REMARK   10  A    between atoms: C9_15  and  C10_16 
REMARK   11  A    between atoms: C10_16  and  C11_17 
REMARK   12  A    between atoms: C11_17  and  N3_18 
REMARK   13  A    between atoms: C14_24  and  O4_25 
REMARK   14  A    between atoms: C16_28  and  C17_29 
REMARK   15  A    between atoms: C17_29  and  C18_30 
REMARK   16  A    between atoms: C18_30  and  N4_31 
REMARK   17  A    between atoms: C25_41  and  C26_42 
ROOT
HETATM    1  C5  UNL     1      13.528  19.811  31.148  1.00  0.00     0.035 C 
HETATM    2  C6  UNL     1      14.182  18.858  31.905  1.00  0.00     0.066 C 
HETATM    3  C12 UNL     1      15.635  18.799  31.541  1.00  0.00     0.083 C 
HETATM    4  C13 UNL     1      16.315  17.543  31.991  1.00  0.00    -0.008 A 
HETATM    5  C14 UNL     1      17.298  17.528  32.957  1.00  0.00     0.073 A 
HETATM    6  C15 UNL     1      17.940  16.361  33.336  1.00  0.00     0.044 A 
HETATM    7  C16 UNL     1      17.616  15.154  32.752  1.00  0.00    -0.053 A 
HETATM    8  C19 UNL     1      16.637  15.154  31.788  1.00  0.00     0.015 A 
HETATM    9  C20 UNL     1      15.988  16.341  31.406  1.00  0.00    -0.048 A 
HETATM   10  C21 UNL     1      14.941  16.279  30.371  1.00  0.00     0.039 C 
HETATM   11  C22 UNL     1      14.799  17.503  29.551  1.00  0.00     0.010 C 
HETATM   12  C23 UNL     1      15.657  18.629  30.011  1.00  0.00     0.002 C 
HETATM   13  C24 UNL     1      15.321  19.927  29.397  1.00  0.00     0.024 C 
HETATM   14  C25 UNL     1      14.294  20.660  30.241  1.00  0.00     0.115 C 
ENDROOT
BRANCH   2  15
HETATM   15  O3  UNL     1      13.704  18.073  32.811  1.00  0.00    -0.354 OA
BRANCH  15  16
HETATM   16  C7  UNL     1      13.232  17.246  33.688  1.00  0.00     0.175 C 
BRANCH  16  17
HETATM   17  C8  UNL     1      14.191  16.488  34.633  1.00  0.00     0.027 C 
BRANCH  17  18
HETATM   18  C9  UNL     1      13.607  15.066  34.654  1.00  0.00     0.004 C 
BRANCH  18  19
HETATM   19  C10 UNL     1      13.244  14.609  33.267  1.00  0.00     0.027 C 
BRANCH  19  20
HETATM   20  C11 UNL     1      12.269  13.482  33.252  1.00  0.00     0.229 C 
BRANCH  20  21
HETATM   21  N3  UNL     1      11.618  13.473  31.952  1.00  0.00    -0.079 N 
ATOM     22  H33 UNL     1      11.957  14.211  31.335  1.00  0.00     0.274 HD
ATOM     23  H32 UNL     1      11.896  12.677  31.377  1.00  0.00     0.274 HD
ATOM     24  H31 UNL     1      10.611  13.516  32.105  1.00  0.00     0.274 HD
ENDBRANCH  20  21
ENDBRANCH  19  20
ENDBRANCH  18  19
ENDBRANCH  17  18
ENDBRANCH  16  17
ENDBRANCH  15  16
ENDBRANCH   2  15
BRANCH   1  25
HETATM   25  C4  UNL     1      12.132  19.993  31.337  1.00  0.00     0.151 C 
BRANCH  25  26
HETATM   26  N1  UNL     1      10.998  20.128  30.545  1.00  0.00    -0.337 N 
HETATM   27  C1  UNL     1       9.710  20.482  31.287  1.00  0.00     0.158 C 
BRANCH  26  28
HETATM   28  C2  UNL     1      10.820  19.983  29.159  1.00  0.00     0.163 C 
BRANCH  28  29
HETATM   29  C3  UNL     1      10.664  21.269  28.396  1.00  0.00     0.270 C 
HETATM   30  N2  UNL     1       9.523  21.371  27.535  1.00  0.00    -0.057 NA
HETATM   31  O1  UNL     1      11.478  22.193  28.506  1.00  0.00    -0.270 OA
ENDBRANCH  28  29
ENDBRANCH  26  28
ENDBRANCH  25  26
BRANCH  25  32
HETATM   32  O2  UNL     1      11.790  20.048  32.616  1.00  0.00    -0.345 OA
ATOM     33  H2  UNL     1      12.312  20.708  33.057  1.00  0.00     0.219 HD
ENDBRANCH  25  32
ENDBRANCH   1  25
BRANCH  14  34
HETATM   34  C26 UNL     1      15.066  21.752  30.953  1.00  0.00     0.239 C 
HETATM   35  N5  UNL     1      16.443  21.932  30.740  1.00  0.00    -0.062 NA
HETATM   36  O5  UNL     1      14.478  22.537  31.767  1.00  0.00    -0.276 OA
ENDBRANCH  14  34
BRANCH   5  37
HETATM   37  O4  UNL     1      17.608  18.768  33.532  1.00  0.00    -0.360 OA
ATOM     38  H4  UNL     1      17.096  19.011  34.294  1.00  0.00     0.217 HD
ENDBRANCH   5  37
BRANCH   7  39
HETATM   39  C17 UNL     1      18.301  13.883  33.154  1.00  0.00     0.066 C 
BRANCH  39  40
HETATM   40  C18 UNL     1      19.716  14.166  33.604  1.00  0.00     0.234 C 
BRANCH  40  41
HETATM   41  N4  UNL     1      20.519  14.317  32.391  1.00  0.00    -0.079 N 
ATOM     42  H43 UNL     1      19.978  14.637  31.587  1.00  0.00     0.274 HD
ATOM     43  H42 UNL     1      21.166  15.104  32.431  1.00  0.00     0.274 HD
ATOM     44  H41 UNL     1      20.982  13.422  32.234  1.00  0.00     0.274 HD
ENDBRANCH  40  41
ENDBRANCH  39  40
ENDBRANCH   7  39
TORSDOF 17
ENDMDL
MODEL 2
REMARK VINA RESULT: -8.382248246      1.348      1.496
REMARK  17 active torsions:
REMARK  status: ('A' for Active; 'I' for Inactive)
REMARK    1  A    between atoms: N1_2  and  C2_3 
REMARK    2  A    between atoms: N1_2  and  C4_7 
REMARK    3  A    between atoms: C2_3  and  C3_4 
REMARK    4  A    between atoms: C4_7  and  O2_8 
REMARK    5  A    between atoms: C4_7  and  C5_10 
REMARK    6  A    between atoms: C6_11  and  O3_12 
REMARK    7  A    between atoms: O3_12  and  C7_13 
REMARK    8  A    between atoms: C7_13  and  C8_14 
REMARK    9  A    between atoms: C8_14  and  C9_15 
REMARK   10  A    between atoms: C9_15  and  C10_16 
REMARK   11  A    between atoms: C10_16  and  C11_17 
REMARK   12  A    between atoms: C11_17  and  N3_18 
REMARK   13  A    between atoms: C14_24  and  O4_25 
REMARK   14  A    between atoms: C16_28  and  C17_29 
REMARK   15  A    between atoms: C17_29  and  C18_30 
REMARK   16  A    between atoms: C18_30  and  N4_31 
REMARK   17  A    between atoms: C25_41  and  C26_42 
ROOT
HETATM    1  C5  UNL     1      13.651  19.735  31.164  1.00  0.00     0.035 C 
HETATM    2  C6  UNL     1      14.313  18.828  31.967  1.00  0.00     0.066 C 
HETATM    3  C12 UNL     1      15.757  18.727  31.574  1.00  0.00     0.083 C 
HETATM    4  C13 UNL     1      16.434  17.495  32.091  1.00  0.00    -0.008 A 
HETATM    5  C14 UNL     1      17.440  17.534  33.033  1.00  0.00     0.073 A 
HETATM    6  C15 UNL     1      18.079  16.387  33.474  1.00  0.00     0.044 A 
HETATM    7  C16 UNL     1      17.728  15.148  32.982  1.00  0.00    -0.053 A 
HETATM    8  C19 UNL     1      16.725  15.095  32.044  1.00  0.00     0.015 A 
HETATM    9  C20 UNL     1      16.080  16.261  31.598  1.00  0.00    -0.048 A 
HETATM   10  C21 UNL     1      15.008  16.141  30.594  1.00  0.00     0.039 C 
HETATM   11  C22 UNL     1      14.858  17.309  29.696  1.00  0.00     0.010 C 
HETATM   12  C23 UNL     1      15.739  18.453  30.059  1.00  0.00     0.002 C 
HETATM   13  C24 UNL     1      15.402  19.711  29.367  1.00  0.00     0.024 C 
HETATM   14  C25 UNL     1      14.403  20.512  30.183  1.00  0.00     0.115 C 
ENDROOT
BRANCH   2  15
HETATM   15  O3  UNL     1      13.850  18.111  32.936  1.00  0.00    -0.354 OA
BRANCH  15  16
HETATM   16  C7  UNL     1      13.405  17.425  33.940  1.00  0.00     0.175 C 
BRANCH  16  17
HETATM   17  C8  UNL     1      13.467  15.881  33.910  1.00  0.00     0.027 C 
BRANCH  17  18
HETATM   18  C9  UNL     1      14.477  15.553  35.021  1.00  0.00     0.004 C 
BRANCH  18  19
HETATM   19  C10 UNL     1      14.806  14.085  35.039  1.00  0.00     0.027 C 
BRANCH  19  20
HETATM   20  C11 UNL     1      15.589  13.667  36.235  1.00  0.00     0.229 C 
BRANCH  20  21
HETATM   21  N3  UNL     1      14.821  14.021  37.417  1.00  0.00    -0.079 N 
ATOM     22  H33 UNL     1      15.168  13.570  38.264  1.00  0.00     0.274 HD
ATOM     23  H32 UNL     1      14.967  14.988  37.709  1.00  0.00     0.274 HD
ATOM     24  H31 UNL     1      13.841  13.810  37.230  1.00  0.00     0.274 HD
ENDBRANCH  20  21
ENDBRANCH  19  20
ENDBRANCH  18  19
ENDBRANCH  17  18
ENDBRANCH  16  17
ENDBRANCH  15  16
ENDBRANCH   2  15
BRANCH   1  25
HETATM   25  C4  UNL     1      12.263  19.947  31.373  1.00  0.00     0.151 C 
BRANCH  25  26
HETATM   26  N1  UNL     1      11.115  20.073  30.599  1.00  0.00    -0.337 N 
HETATM   27  C1  UNL     1       9.832  20.396  31.363  1.00  0.00     0.158 C 
BRANCH  26  28
HETATM   28  C2  UNL     1      10.920  19.943  29.213  1.00  0.00     0.163 C 
BRANCH  28  29
HETATM   29  C3  UNL     1      10.756  21.237  28.466  1.00  0.00     0.270 C 
HETATM   30  N2  UNL     1       9.618  21.339  27.601  1.00  0.00    -0.057 NA
HETATM   31  O1  UNL     1      11.562  22.166  28.591  1.00  0.00    -0.270 OA
ENDBRANCH  28  29
ENDBRANCH  26  28
ENDBRANCH  25  26
BRANCH  25  32
HETATM   32  O2  UNL     1      11.947  20.051  32.656  1.00  0.00    -0.345 OA
ATOM     33  H2  UNL     1      12.584  19.581  33.180  1.00  0.00     0.219 HD
ENDBRANCH  25  32
ENDBRANCH   1  25
BRANCH  14  34
HETATM   34  C26 UNL     1      15.205  21.640  30.800  1.00  0.00     0.239 C 
HETATM   35  N5  UNL     1      14.619  22.546  31.699  1.00  0.00    -0.062 NA
HETATM   36  O5  UNL     1      16.438  21.791  30.514  1.00  0.00    -0.276 OA
ENDBRANCH  14  34
BRANCH   5  37
HETATM   37  O4  UNL     1      17.778  18.806  33.515  1.00  0.00    -0.360 OA
ATOM     38  H4  UNL     1      18.706  18.984  33.600  1.00  0.00     0.217 HD
ENDBRANCH   5  37
BRANCH   7  39
HETATM   39  C17 UNL     1      18.409  13.899  33.453  1.00  0.00     0.066 C 
BRANCH  39  40
HETATM   40  C18 UNL     1      19.877  14.160  33.704  1.00  0.00     0.234 C 
BRANCH  40  41
HETATM   41  N4  UNL     1      20.511  14.277  32.391  1.00  0.00    -0.079 N 
ATOM     42  H43 UNL     1      19.871  14.101  31.617  1.00  0.00     0.274 HD
ATOM     43  H42 UNL     1      20.750  15.237  32.144  1.00  0.00     0.274 HD
ATOM     44  H41 UNL     1      21.316  13.651  32.400  1.00  0.00     0.274 HD
ENDBRANCH  40  41
ENDBRANCH  39  40
ENDBRANCH   7  39
TORSDOF 17
ENDMDL
MODEL 3
REMARK VINA RESULT: -8.311821345      2.568      6.476
REMARK  17 active torsions:
REMARK  status: ('A' for Active; 'I' for Inactive)
REMARK    1  A    between atoms: N1_2  and  C2_3 
REMARK    2  A    between atoms: N1_2  and  C4_7 
REMARK    3  A    between atoms: C2_3  and  C3_4 
REMARK    4  A    between atoms: C4_7  and  O2_8 
REMARK    5  A    between atoms: C4_7  and  C5_10 
REMARK    6  A    between atoms: C6_11  and  O3_12 
REMARK    7  A    between atoms: O3_12  and  C7_13 
REMARK    8  A    between atoms: C7_13  and  C8_14 
REMARK    9  A    between atoms: C8_14  and  C9_15 
REMARK   10  A    between atoms: C9_15  and  C10_16 
REMARK   11  A    between atoms: C10_16  and  C11_17 
REMARK   12  A    between atoms: C11_17  and  N3_18 
REMARK   13  A    between atoms: C14_24  and  O4_25 
REMARK   14  A    between atoms: C16_28  and  C17_29 
REMARK   15  A    between atoms: C17_29  and  C18_30 
REMARK   16  A    between atoms: C18_30  and  N4_31 
REMARK   17  A    between atoms: C25_41  and  C26_42 
ROOT
HETATM    1  C5  UNL     1      17.082  16.031  31.906  1.00  0.00     0.035 C 
HETATM    2  C6  UNL     1      16.124  15.856  32.886  1.00  0.00     0.066 C 
HETATM    3  C12 UNL     1      15.998  14.407  33.252  1.00  0.00     0.083 C 
HETATM    4  C13 UNL     1      14.728  14.079  33.974  1.00  0.00    -0.008 A 
HETATM    5  C14 UNL     1      14.700  13.670  35.290  1.00  0.00     0.073 A 
HETATM    6  C15 UNL     1      13.518  13.337  35.932  1.00  0.00     0.044 A 
HETATM    7  C16 UNL     1      12.311  13.404  35.269  1.00  0.00    -0.053 A 
HETATM    8  C19 UNL     1      12.325  13.812  33.957  1.00  0.00     0.015 A 
HETATM    9  C20 UNL     1      13.525  14.148  33.309  1.00  0.00    -0.048 A 
HETATM   10  C21 UNL     1      13.478  14.584  31.903  1.00  0.00     0.039 C 
HETATM   11  C22 UNL     1      14.685  14.267  31.107  1.00  0.00     0.010 C 
HETATM   12  C23 UNL     1      15.788  13.675  31.914  1.00  0.00     0.002 C 
HETATM   13  C24 UNL     1      17.082  13.621  31.209  1.00  0.00     0.024 C 
HETATM   14  C25 UNL     1      17.877  14.890  31.464  1.00  0.00     0.115 C 
ENDROOT
BRANCH   2  15
HETATM   15  O3  UNL     1      15.381  16.740  33.463  1.00  0.00    -0.354 OA
BRANCH  15  16
HETATM   16  C7  UNL     1      14.629  17.649  33.997  1.00  0.00     0.175 C 
BRANCH  16  17
HETATM   17  C8  UNL     1      13.178  17.842  33.502  1.00  0.00     0.027 C 
BRANCH  17  18
HETATM   18  C9  UNL     1      13.366  18.326  32.055  1.00  0.00     0.004 C 
BRANCH  18  19
HETATM   19  C10 UNL     1      12.682  19.647  31.833  1.00  0.00     0.027 C 
BRANCH  19  20
HETATM   20  C11 UNL     1      12.381  19.925  30.400  1.00  0.00     0.229 C 
BRANCH  20  21
HETATM   21  N3  UNL     1      13.171  21.075  29.992  1.00  0.00    -0.079 N 
ATOM     22  H33 UNL     1      13.926  21.287  30.645  1.00  0.00     0.274 HD
ATOM     23  H32 UNL     1      13.748  20.887  29.173  1.00  0.00     0.274 HD
ATOM     24  H31 UNL     1      12.535  21.860  29.856  1.00  0.00     0.274 HD
ENDBRANCH  20  21
ENDBRANCH  19  20
ENDBRANCH  18  19
ENDBRANCH  17  18
ENDBRANCH  16  17
ENDBRANCH  15  16
ENDBRANCH   2  15
BRANCH   1  25
HETATM   25  C4  UNL     1      17.323  17.341  31.414  1.00  0.00     0.151 C 
BRANCH  25  26
HETATM   26  N1  UNL     1      17.816  18.546  31.900  1.00  0.00    -0.337 N 
HETATM   27  C1  UNL     1      19.337  18.695  31.878  1.00  0.00     0.158 C 
BRANCH  26  28
HETATM   28  C2  UNL     1      17.154  19.667  32.428  1.00  0.00     0.163 C 
BRANCH  28  29
HETATM   29  C3  UNL     1      16.533  20.582  31.409  1.00  0.00     0.270 C 
HETATM   30  N2  UNL     1      16.674  21.989  31.639  1.00  0.00    -0.057 NA
HETATM   31  O1  UNL     1      15.932  20.142  30.421  1.00  0.00    -0.270 OA
ENDBRANCH  28  29
ENDBRANCH  26  28
ENDBRANCH  25  26
BRANCH  25  32
HETATM   32  O2  UNL     1      17.000  17.476  30.135  1.00  0.00    -0.345 OA
ATOM     33  H2  UNL     1      17.774  17.705  29.635  1.00  0.00     0.219 HD
ENDBRANCH  25  32
ENDBRANCH   1  25
BRANCH  14  34
HETATM   34  C26 UNL     1      18.955  14.494  32.452  1.00  0.00     0.239 C 
HETATM   35  N5  UNL     1      20.247  15.039  32.382  1.00  0.00    -0.062 NA
HETATM   36  O5  UNL     1      18.710  13.650  33.376  1.00  0.00    -0.276 OA
ENDBRANCH  14  34
BRANCH   5  37
HETATM   37  O4  UNL     1      15.941  13.610  35.939  1.00  0.00    -0.360 OA
ATOM     38  H4  UNL     1      16.034  12.927  36.592  1.00  0.00     0.217 HD
ENDBRANCH   5  37
BRANCH   7  39
HETATM   39  C17 UNL     1      11.025  13.049  35.953  1.00  0.00     0.066 C 
BRANCH  39  40
HETATM   40  C18 UNL     1      11.228  12.965  37.449  1.00  0.00     0.234 C 
BRANCH  40  41
HETATM   41  N4  UNL     1       9.961  13.359  38.066  1.00  0.00    -0.079 N 
ATOM     42  H43 UNL     1      10.025  13.474  39.077  1.00  0.00     0.274 HD
ATOM     43  H42 UNL     1       9.686  14.315  37.845  1.00  0.00     0.274 HD
ATOM     44  H41 UNL     1       9.270  12.665  37.782  1.00  0.00     0.274 HD
ENDBRANCH  40  41
ENDBRANCH  39  40
ENDBRANCH   7  39
TORSDOF 17
ENDMDL
MODEL 4
REMARK VINA RESULT: -8.303898594      2.190      4.948
REMARK  17 active torsions:
REMARK  status: ('A' for Active; 'I' for Inactive)
REMARK    1  A    between atoms: N1_2  and  C2_3 
REMARK    2  A    between atoms: N1_2  and  C4_7 
REMARK    3  A    between atoms: C2_3  and  C3_4 
REMARK    4  A    between atoms: C4_7  and  O2_8 
REMARK    5  A    between atoms: C4_7  and  C5_10 
REMARK    6  A    between atoms: C6_11  and  O3_12 
REMARK    7  A    between atoms: O3_12  and  C7_13 
REMARK    8  A    between atoms: C7_13  and  C8_14 
REMARK    9  A    between atoms: C8_14  and  C9_15 
REMARK   10  A    between atoms: C9_15  and  C10_16 
REMARK   11  A    between atoms: C10_16  and  C11_17 
REMARK   12  A    between atoms: C11_17  and  N3_18 
REMARK   13  A    between atoms: C14_24  and  O4_25 
REMARK   14  A    between atoms: C16_28  and  C17_29 
REMARK   15  A    between atoms: C17_29  and  C18_30 
REMARK   16  A    between atoms: C18_30  and  N4_31 
REMARK   17  A    between atoms: C25_41  and  C26_42 
ROOT
HETATM    1  C5  UNL     1      16.008  19.227  31.372  1.00  0.00     0.035 C 
HETATM    2  C6  UNL     1      15.086  18.429  32.021  1.00  0.00     0.066 C 
HETATM    3  C12 UNL     1      15.733  17.171  32.519  1.00  0.00     0.083 C 
HETATM    4  C13 UNL     1      14.755  16.086  32.850  1.00  0.00    -0.008 A 
HETATM    5  C14 UNL     1      14.549  15.631  34.134  1.00  0.00     0.073 A 
HETATM    6  C15 UNL     1      13.666  14.602  34.417  1.00  0.00     0.044 A 
HETATM    7  C16 UNL     1      12.951  13.986  33.412  1.00  0.00    -0.053 A 
HETATM    8  C19 UNL     1      13.147  14.431  32.126  1.00  0.00     0.015 A 
HETATM    9  C20 UNL     1      14.044  15.475  31.843  1.00  0.00    -0.048 A 
HETATM   10  C21 UNL     1      14.208  15.913  30.446  1.00  0.00     0.039 C 
HETATM   11  C22 UNL     1      15.545  16.453  30.112  1.00  0.00     0.010 C 
HETATM   12  C23 UNL     1      16.447  16.577  31.291  1.00  0.00     0.002 C 
HETATM   13  C24 UNL     1      17.662  17.371  31.034  1.00  0.00     0.024 C 
HETATM   14  C25 UNL     1      17.414  18.835  31.352  1.00  0.00     0.115 C 
ENDROOT
BRANCH   2  15
HETATM   15  O3  UNL     1      13.827  18.637  32.218  1.00  0.00    -0.354 OA
BRANCH  15  16
HETATM   16  C7  UNL     1      12.576  18.892  32.426  1.00  0.00     0.175 C 
BRANCH  16  17
HETATM   17  C8  UNL     1      11.851  19.957  31.573  1.00  0.00     0.027 C 
BRANCH  17  18
HETATM   18  C9  UNL     1      11.343  19.150  30.368  1.00  0.00     0.004 C 
BRANCH  18  19
HETATM   19  C10 UNL     1      10.316  19.927  29.590  1.00  0.00     0.027 C 
BRANCH  19  20
HETATM   20  C11 UNL     1      10.884  20.654  28.420  1.00  0.00     0.229 C 
BRANCH  20  21
HETATM   21  N3  UNL     1      10.663  22.075  28.627  1.00  0.00    -0.079 N 
ATOM     22  H33 UNL     1       9.753  22.278  29.041  1.00  0.00     0.274 HD
ATOM     23  H32 UNL     1      11.241  22.460  29.375  1.00  0.00     0.274 HD
ATOM     24  H31 UNL     1      10.806  22.549  27.735  1.00  0.00     0.274 HD
ENDBRANCH  20  21
ENDBRANCH  19  20
ENDBRANCH  18  19
ENDBRANCH  17  18
ENDBRANCH  16  17
ENDBRANCH  15  16
ENDBRANCH   2  15
BRANCH   1  25
HETATM   25  C4  UNL     1      15.571  20.455  30.809  1.00  0.00     0.151 C 
BRANCH  25  26
HETATM   26  N1  UNL     1      14.815  20.874  29.720  1.00  0.00    -0.337 N 
HETATM   27  C1  UNL     1      14.520  19.805  28.669  1.00  0.00     0.158 C 
BRANCH  26  28
HETATM   28  C2  UNL     1      14.274  22.132  29.404  1.00  0.00     0.163 C 
BRANCH  28  29
HETATM   29  C3  UNL     1      14.607  22.644  28.030  1.00  0.00     0.270 C 
HETATM   30  N2  UNL     1      13.523  22.730  27.097  1.00  0.00    -0.057 NA
HETATM   31  O1  UNL     1      15.757  22.975  27.721  1.00  0.00    -0.270 OA
ENDBRANCH  28  29
ENDBRANCH  26  28
ENDBRANCH  25  26
BRANCH  25  32
HETATM   32  O2  UNL     1      15.981  21.511  31.498  1.00  0.00    -0.345 OA
ATOM     33  H2  UNL     1      15.748  22.305  31.032  1.00  0.00     0.219 HD
ENDBRANCH  25  32
ENDBRANCH   1  25
BRANCH  14  34
HETATM   34  C26 UNL     1      18.122  19.083  32.669  1.00  0.00     0.239 C 
HETATM   35  N5  UNL     1      18.141  20.357  33.259  1.00  0.00    -0.062 NA
HETATM   36  O5  UNL     1      18.721  18.134  33.272  1.00  0.00    -0.276 OA
ENDBRANCH  14  34
BRANCH   5  37
HETATM   37  O4  UNL     1      15.289  16.273  35.137  1.00  0.00    -0.360 OA
ATOM     38  H4  UNL     1      14.927  16.225  36.014  1.00  0.00     0.217 HD
ENDBRANCH   5  37
BRANCH   7  39
HETATM   39  C17 UNL     1      11.990  12.874  33.704  1.00  0.00     0.066 C 
BRANCH  39  40
HETATM   40  C18 UNL     1      10.740  13.023  32.868  1.00  0.00     0.234 C 
BRANCH  40  41
HETATM   41  N4  UNL     1      10.582  11.774  32.123  1.00  0.00    -0.079 N 
ATOM     42  H43 UNL     1      11.351  11.120  32.267  1.00  0.00     0.274 HD
ATOM     43  H42 UNL     1       9.838  11.180  32.487  1.00  0.00     0.274 HD
ATOM     44  H41 UNL     1      10.450  12.033  31.145  1.00  0.00     0.274 HD
ENDBRANCH  40  41
ENDBRANCH  39  40
ENDBRANCH   7  39
TORSDOF 17
ENDMDL
MODEL 5
REMARK VINA RESULT: -8.278765279      2.634      6.658
REMARK  17 active torsions:
REMARK  status: ('A' for Active; 'I' for Inactive)
REMARK    1  A    between atoms: N1_2  and  C2_3 
REMARK    2  A    between atoms: N1_2  and  C4_7 
REMARK    3  A    between atoms: C2_3  and  C3_4 
REMARK    4  A    between atoms: C4_7  and  O2_8 
REMARK    5  A    between atoms: C4_7  and  C5_10 
REMARK    6  A    between atoms: C6_11  and  O3_12 
REMARK    7  A    between atoms: O3_12  and  C7_13 
REMARK    8  A    between atoms: C7_13  and  C8_14 
REMARK    9  A    between atoms: C8_14  and  C9_15 
REMARK   10  A    between atoms: C9_15  and  C10_16 
REMARK   11  A    between atoms: C10_16  and  C11_17 
REMARK   12  A    between atoms: C11_17  and  N3_18 
REMARK   13  A    between atoms: C14_24  and  O4_25 
REMARK   14  A    between atoms: C16_28  and  C17_29 
REMARK   15  A    between atoms: C17_29  and  C18_30 
REMARK   16  A    between atoms: C18_30  and  N4_31 
REMARK   17  A    between atoms: C25_41  and  C26_42 
ROOT
HETATM    1  C5  UNL     1      17.233  16.031  32.728  1.00  0.00     0.035 C 
HETATM    2  C6  UNL     1      16.013  15.779  33.326  1.00  0.00     0.066 C 
HETATM    3  C12 UNL     1      15.793  14.303  33.476  1.00  0.00     0.083 C 
HETATM    4  C13 UNL     1      14.361  13.933  33.716  1.00  0.00    -0.008 A 
HETATM    5  C14 UNL     1      13.918  13.389  34.903  1.00  0.00     0.073 A 
HETATM    6  C15 UNL     1      12.597  13.020  35.095  1.00  0.00     0.044 A 
HETATM    7  C16 UNL     1      11.664  13.185  34.093  1.00  0.00    -0.053 A 
HETATM    8  C19 UNL     1      12.092  13.727  32.905  1.00  0.00     0.015 A 
HETATM    9  C20 UNL     1      13.434  14.100  32.714  1.00  0.00    -0.048 A 
HETATM   10  C21 UNL     1      13.834  14.681  31.421  1.00  0.00     0.039 C 
HETATM   11  C22 UNL     1      15.236  14.419  31.023  1.00  0.00     0.010 C 
HETATM   12  C23 UNL     1      16.029  13.719  32.072  1.00  0.00     0.002 C 
HETATM   13  C24 UNL     1      17.481  13.708  31.814  1.00  0.00     0.024 C 
HETATM   14  C25 UNL     1      18.139  14.922  32.444  1.00  0.00     0.115 C 
ENDROOT
BRANCH   2  15
HETATM   15  O3  UNL     1      15.116  16.616  33.727  1.00  0.00    -0.354 OA
BRANCH  15  16
HETATM   16  C7  UNL     1      14.235  17.451  34.175  1.00  0.00     0.175 C 
BRANCH  16  17
HETATM   17  C8  UNL     1      12.908  17.660  33.411  1.00  0.00     0.027 C 
BRANCH  17  18
HETATM   18  C9  UNL     1      13.370  18.240  32.064  1.00  0.00     0.004 C 
BRANCH  18  19
HETATM   19  C10 UNL     1      12.734  19.578  31.804  1.00  0.00     0.027 C 
BRANCH  19  20
HETATM   20  C11 UNL     1      12.980  20.094  30.428  1.00  0.00     0.229 C 
BRANCH  20  21
HETATM   21  N3  UNL     1      13.684  21.359  30.545  1.00  0.00    -0.079 N 
ATOM     22  H33 UNL     1      13.421  21.883  31.380  1.00  0.00     0.274 HD
ATOM     23  H32 UNL     1      14.674  21.243  30.763  1.00  0.00     0.274 HD
ATOM     24  H31 UNL     1      13.529  21.885  29.685  1.00  0.00     0.274 HD
ENDBRANCH  20  21
ENDBRANCH  19  20
ENDBRANCH  18  19
ENDBRANCH  17  18
ENDBRANCH  16  17
ENDBRANCH  15  16
ENDBRANCH   2  15
BRANCH   1  25
HETATM   25  C4  UNL     1      17.605  17.378  32.481  1.00  0.00     0.151 C 
BRANCH  25  26
HETATM   26  N1  UNL     1      17.377  18.344  31.508  1.00  0.00    -0.337 N 
HETATM   27  C1  UNL     1      18.129  18.150  30.192  1.00  0.00     0.158 C 
BRANCH  26  28
HETATM   28  C2  UNL     1      16.571  19.496  31.524  1.00  0.00     0.163 C 
BRANCH  28  29
HETATM   29  C3  UNL     1      17.264  20.756  31.962  1.00  0.00     0.270 C 
HETATM   30  N2  UNL     1      16.685  21.992  31.527  1.00  0.00    -0.057 NA
HETATM   31  O1  UNL     1      18.283  20.727  32.663  1.00  0.00    -0.270 OA
ENDBRANCH  28  29
ENDBRANCH  26  28
ENDBRANCH  25  26
BRANCH  25  32
HETATM   32  O2  UNL     1      18.384  17.879  33.430  1.00  0.00    -0.345 OA
ATOM     33  H2  UNL     1      17.982  17.738  34.278  1.00  0.00     0.219 HD
ENDBRANCH  25  32
ENDBRANCH   1  25
BRANCH  14  34
HETATM   34  C26 UNL     1      18.849  14.399  33.676  1.00  0.00     0.239 C 
HETATM   35  N5  UNL     1      19.027  15.203  34.813  1.00  0.00    -0.062 NA
HETATM   36  O5  UNL     1      19.303  13.209  33.706  1.00  0.00    -0.276 OA
ENDBRANCH  14  34
BRANCH   5  37
HETATM   37  O4  UNL     1      14.887  13.231  35.903  1.00  0.00    -0.360 OA
ATOM     38  H4  UNL     1      15.224  12.351  36.019  1.00  0.00     0.217 HD
ENDBRANCH   5  37
BRANCH   7  39
HETATM   39  C17 UNL     1      10.230  12.793  34.288  1.00  0.00     0.066 C 
BRANCH  39  40
HETATM   40  C18 UNL     1       9.734  12.000  33.101  1.00  0.00     0.234 C 
BRANCH  40  41
HETATM   41  N4  UNL     1      10.304  10.659  33.225  1.00  0.00    -0.079 N 
ATOM     42  H43 UNL     1      10.913  10.553  34.037  1.00  0.00     0.274 HD
ATOM     43  H42 UNL     1       9.617   9.952  33.488  1.00  0.00     0.274 HD
ATOM     44  H41 UNL     1      10.771  10.457  32.342  1.00  0.00     0.274 HD
ENDBRANCH  40  41
ENDBRANCH  39  40
ENDBRANCH   7  39
TORSDOF 17
ENDMDL
