MODEL 1
REMARK VINA RESULT: -8.800746930      0.000      0.000
REMARK  12 active torsions:
REMARK  status: ('A' for Active; 'I' for Inactive)
REMARK    1  A    between atoms: C2_2  and  C3_3 
REMARK    2  A    between atoms: C3_3  and  C4_4 
REMARK    3  A    between atoms: C3_3  and  N7_31 
REMARK       I    between atoms: C4_4  and  N1_6 
REMARK    4  A    between atoms: N1_6  and  C5_8 
REMARK    5  A    between atoms: C5_8  and  C7_10 
REMARK    6  A    between atoms: C7_10  and  C8_11 
REMARK    7  A    between atoms: C8_11  and  C9_12 
REMARK    8  A    between atoms: C9_12  and  C10_13 
REMARK    9  A    between atoms: C10_13  and  N2_14 
REMARK   10  A    between atoms: N3_18  and  C14_19 
REMARK       I    between atoms: N7_31  and  C19_33 
REMARK   11  A    between atoms: C19_33  and  C20_35 
REMARK   12  A    between atoms: C20_35  and  N8_36 
REMARK       I    between atoms: N8_36  and  C22_38 
ROOT
HETATM    1  C5  UNL     1      16.746  14.005  34.169  1.00  0.00     0.080 C 
HETATM    2  C6  UNL     1      17.349  15.101  35.090  1.00  0.00     0.032 C 
ENDROOT
BRANCH   1   3
HETATM    3  N1  UNL     1      16.121  14.740  33.094  1.00  0.00    -0.352 N 
HETATM    4  C4  UNL     1      16.835  15.202  31.958  1.00  0.00     0.264 C 
HETATM    5  O1  UNL     1      18.080  14.947  31.927  1.00  0.00    -0.266 OA
ATOM      6  H1  UNL     1      15.122  14.935  33.153  1.00  0.00     0.163 HD
BRANCH   4   7
HETATM    7  C3  UNL     1      16.275  15.941  30.829  1.00  0.00     0.081 C 
BRANCH   7   8
HETATM    8  C2  UNL     1      15.869  15.173  29.638  1.00  0.00     0.059 C 
HETATM    9  C1  UNL     1      15.496  13.756  29.754  1.00  0.00     0.011 C 
ENDBRANCH   7   8
BRANCH   7  10
HETATM   10  N7  UNL     1      15.461  17.082  31.192  1.00  0.00    -0.320 N 
HETATM   11  C18 UNL     1      14.006  16.950  31.454  1.00  0.00     0.159 C 
HETATM   12  C19 UNL     1      15.952  18.402  31.340  1.00  0.00     0.241 C 
HETATM   13  O2  UNL     1      17.161  18.627  31.140  1.00  0.00    -0.271 OA
BRANCH  12  14
HETATM   14  C20 UNL     1      15.106  19.560  31.724  1.00  0.00     0.228 C 
BRANCH  14  15
HETATM   15  N8  UNL     1      15.044  20.548  30.667  1.00  0.00    -0.351 N 
HETATM   16  C21 UNL     1      14.460  20.316  29.365  1.00  0.00     0.152 C 
HETATM   17  C22 UNL     1      15.586  21.826  30.918  1.00  0.00     0.184 C 
HETATM   18  N9  UNL     1      16.811  21.964  31.292  1.00  0.00    -0.374 N 
HETATM   19  N10 UNL     1      14.797  22.991  30.766  1.00  0.00    -0.064 NA
ATOM     20  H92 UNL     1      17.379  21.124  31.401  1.00  0.00     0.158 HD
ATOM     21  H91 UNL     1      17.203  22.888  31.474  1.00  0.00     0.158 HD
ENDBRANCH  14  15
ENDBRANCH  12  14
ENDBRANCH   7  10
ENDBRANCH   4   7
ENDBRANCH   1   3
BRANCH   1  22
HETATM   22  C7  UNL     1      15.793  13.253  35.045  1.00  0.00     0.025 C 
BRANCH  22  23
HETATM   23  C8  UNL     1      15.598  13.949  36.352  1.00  0.00     0.004 C 
BRANCH  23  24
HETATM   24  C9  UNL     1      14.165  13.904  36.824  1.00  0.00     0.028 C 
BRANCH  24  25
HETATM   25  C10 UNL     1      13.695  12.487  36.847  1.00  0.00     0.237 C 
BRANCH  25  26
HETATM   26  N2  UNL     1      12.259  12.335  36.665  1.00  0.00    -0.068 N 
HETATM   27  C11 UNL     1      11.620  12.908  37.864  1.00  0.00     0.272 C 
HETATM   28  C12 UNL     1      11.873  13.211  35.581  1.00  0.00     0.257 C 
HETATM   29  C13 UNL     1      11.881  12.468  34.260  1.00  0.00     0.153 C 
HETATM   30  N3  UNL     1      10.889  11.417  34.332  1.00  0.00    -0.357 N 
HETATM   31  C16 UNL     1      10.615  10.826  35.615  1.00  0.00     0.153 C 
HETATM   32  C17 UNL     1      11.831  10.980  36.525  1.00  0.00     0.257 C 
BRANCH  30  33
HETATM   33  C14 UNL     1      10.237  11.022  33.136  1.00  0.00     0.165 A 
HETATM   34  N4  UNL     1      10.559  11.330  31.890  1.00  0.00    -0.278 N 
HETATM   35  N5  UNL     1       9.869  10.904  30.915  1.00  0.00    -0.278 N 
ATOM     36  H4  UNL     1      11.372  11.919  31.711  1.00  0.00     0.189 HD
HETATM   37  C15 UNL     1       8.806  10.133  31.158  1.00  0.00     0.160 A 
ATOM     38  H5  UNL     1      10.123  11.146  29.957  1.00  0.00     0.189 HD
HETATM   39  N6  UNL     1       7.962   9.592  30.315  1.00  0.00    -0.379 N 
HETATM   40  S1  UNL     1       8.840  10.047  32.874  1.00  0.00    -0.016 SA
ATOM     41  H62 UNL     1       7.942   9.643  29.296  1.00  0.00     0.158 HD
ATOM     42  H61 UNL     1       7.150   9.003  30.500  1.00  0.00     0.158 HD
ENDBRANCH  30  33
ENDBRANCH  25  26
ENDBRANCH  24  25
ENDBRANCH  23  24
ENDBRANCH  22  23
ENDBRANCH   1  22
TORSDOF 12
ENDMDL
MODEL 2
REMARK VINA RESULT: -8.488547131      1.246      1.657
REMARK  12 active torsions:
REMARK  status: ('A' for Active; 'I' for Inactive)
REMARK    1  A    between atoms: C2_2  and  C3_3 
REMARK    2  A    between atoms: C3_3  and  C4_4 
REMARK    3  A    between atoms: C3_3  and  N7_31 
REMARK       I    between atoms: C4_4  and  N1_6 
REMARK    4  A    between atoms: N1_6  and  C5_8 
REMARK    5  A    between atoms: C5_8  and  C7_10 
REMARK    6  A    between atoms: C7_10  and  C8_11 
REMARK    7  A    between atoms: C8_11  and  C9_12 
REMARK    8  A    between atoms: C9_12  and  C10_13 
REMARK    9  A    between atoms: C10_13  and  N2_14 
REMARK   10  A    between atoms: N3_18  and  C14_19 
REMARK       I    between atoms: N7_31  and  C19_33 
REMARK   11  A    between atoms: C19_33  and  C20_35 
REMARK   12  A    between atoms: C20_35  and  N8_36 
REMARK       I    between atoms: N8_36  and  C22_38 
ROOT
HETATM    1  C5  UNL     1      15.940  14.907  34.924  1.00  0.00     0.080 C 
HETATM    2  C6  UNL     1      14.615  15.652  35.243  1.00  0.00     0.032 C 
ENDROOT
BRANCH   1   3
HETATM    3  N1  UNL     1      16.058  14.979  33.485  1.00  0.00    -0.352 N 
HETATM    4  C4  UNL     1      17.202  15.501  32.830  1.00  0.00     0.264 C 
HETATM    5  O1  UNL     1      18.140  15.924  33.575  1.00  0.00    -0.266 OA
ATOM      6  H1  UNL     1      15.283  14.638  32.916  1.00  0.00     0.163 HD
BRANCH   4   7
HETATM    7  C3  UNL     1      17.399  15.599  31.386  1.00  0.00     0.081 C 
BRANCH   7   8
HETATM    8  C2  UNL     1      16.859  14.516  30.543  1.00  0.00     0.059 C 
HETATM    9  C1  UNL     1      15.894  14.811  29.475  1.00  0.00     0.011 C 
ENDBRANCH   7   8
BRANCH   7  10
HETATM   10  N7  UNL     1      17.343  16.944  30.853  1.00  0.00    -0.320 N 
HETATM   11  C18 UNL     1      18.459  17.516  30.059  1.00  0.00     0.159 C 
HETATM   12  C19 UNL     1      16.249  17.828  31.022  1.00  0.00     0.241 C 
HETATM   13  O2  UNL     1      15.259  17.451  31.677  1.00  0.00    -0.271 OA
BRANCH  12  14
HETATM   14  C20 UNL     1      16.202  19.201  30.460  1.00  0.00     0.228 C 
BRANCH  14  15
HETATM   15  N8  UNL     1      16.367  20.205  31.491  1.00  0.00    -0.351 N 
HETATM   16  C21 UNL     1      17.332  20.122  32.564  1.00  0.00     0.152 C 
HETATM   17  C22 UNL     1      15.535  21.343  31.450  1.00  0.00     0.184 C 
HETATM   18  N9  UNL     1      14.252  21.226  31.444  1.00  0.00    -0.374 N 
HETATM   19  N10 UNL     1      16.088  22.645  31.414  1.00  0.00    -0.064 NA
ATOM     20  H92 UNL     1      13.854  20.287  31.471  1.00  0.00     0.158 HD
ATOM     21  H91 UNL     1      13.650  22.048  31.415  1.00  0.00     0.158 HD
ENDBRANCH  14  15
ENDBRANCH  12  14
ENDBRANCH   7  10
ENDBRANCH   4   7
ENDBRANCH   1   3
BRANCH   1  22
HETATM   22  C7  UNL     1      15.740  13.526  35.463  1.00  0.00     0.025 C 
BRANCH  22  23
HETATM   23  C8  UNL     1      15.024  13.556  36.773  1.00  0.00     0.004 C 
BRANCH  23  24
HETATM   24  C9  UNL     1      13.939  12.510  36.866  1.00  0.00     0.028 C 
BRANCH  24  25
HETATM   25  C10 UNL     1      12.654  13.164  37.255  1.00  0.00     0.237 C 
BRANCH  25  26
HETATM   26  N2  UNL     1      11.476  12.341  37.021  1.00  0.00    -0.068 N 
HETATM   27  C11 UNL     1      10.775  12.233  38.313  1.00  0.00     0.272 C 
HETATM   28  C12 UNL     1      10.587  13.105  36.174  1.00  0.00     0.257 C 
HETATM   29  C13 UNL     1      10.818  12.774  34.713  1.00  0.00     0.153 C 
HETATM   30  N3  UNL     1      10.499  11.377  34.515  1.00  0.00    -0.357 N 
HETATM   31  C16 UNL     1      10.702  10.469  35.613  1.00  0.00     0.153 C 
HETATM   32  C17 UNL     1      11.771  11.025  36.551  1.00  0.00     0.257 C 
BRANCH  30  33
HETATM   33  C14 UNL     1      10.003  10.971  33.250  1.00  0.00     0.165 A 
HETATM   34  N4  UNL     1      10.438  11.323  32.050  1.00  0.00    -0.278 N 
HETATM   35  N5  UNL     1       9.884  10.879  31.000  1.00  0.00    -0.278 N 
ATOM     36  H4  UNL     1      11.231  11.960  31.969  1.00  0.00     0.189 HD
HETATM   37  C15 UNL     1       8.848  10.045  31.115  1.00  0.00     0.160 A 
ATOM     38  H5  UNL     1      10.224  11.155  30.079  1.00  0.00     0.189 HD
HETATM   39  N6  UNL     1       8.131   9.476  30.177  1.00  0.00    -0.379 N 
HETATM   40  S1  UNL     1       8.702   9.925  32.823  1.00  0.00    -0.016 SA
ATOM     41  H62 UNL     1       8.218   9.547  29.163  1.00  0.00     0.158 HD
ATOM     42  H61 UNL     1       7.340   8.838  30.264  1.00  0.00     0.158 HD
ENDBRANCH  30  33
ENDBRANCH  25  26
ENDBRANCH  24  25
ENDBRANCH  23  24
ENDBRANCH  22  23
ENDBRANCH   1  22
TORSDOF 12
ENDMDL
MODEL 3
REMARK VINA RESULT: -8.484229261      2.922      5.238
REMARK  12 active torsions:
REMARK  status: ('A' for Active; 'I' for Inactive)
REMARK    1  A    between atoms: C2_2  and  C3_3 
REMARK    2  A    between atoms: C3_3  and  C4_4 
REMARK    3  A    between atoms: C3_3  and  N7_31 
REMARK       I    between atoms: C4_4  and  N1_6 
REMARK    4  A    between atoms: N1_6  and  C5_8 
REMARK    5  A    between atoms: C5_8  and  C7_10 
REMARK    6  A    between atoms: C7_10  and  C8_11 
REMARK    7  A    between atoms: C8_11  and  C9_12 
REMARK    8  A    between atoms: C9_12  and  C10_13 
REMARK    9  A    between atoms: C10_13  and  N2_14 
REMARK   10  A    between atoms: N3_18  and  C14_19 
REMARK       I    between atoms: N7_31  and  C19_33 
REMARK   11  A    between atoms: C19_33  and  C20_35 
REMARK   12  A    between atoms: C20_35  and  N8_36 
REMARK       I    between atoms: N8_36  and  C22_38 
ROOT
HETATM    1  C5  UNL     1      15.366  14.175  34.388  1.00  0.00     0.080 C 
HETATM    2  C6  UNL     1      16.160  14.347  35.712  1.00  0.00     0.032 C 
ENDROOT
BRANCH   1   3
HETATM    3  N1  UNL     1      15.710  15.341  33.607  1.00  0.00    -0.352 N 
HETATM    4  C4  UNL     1      16.044  15.276  32.229  1.00  0.00     0.264 C 
HETATM    5  O1  UNL     1      16.038  14.122  31.697  1.00  0.00    -0.266 OA
ATOM      6  H1  UNL     1      15.713  16.251  34.066  1.00  0.00     0.163 HD
BRANCH   4   7
HETATM    7  C3  UNL     1      16.392  16.407  31.373  1.00  0.00     0.081 C 
BRANCH   7   8
HETATM    8  C2  UNL     1      17.187  16.132  30.161  1.00  0.00     0.059 C 
HETATM    9  C1  UNL     1      18.641  16.347  30.157  1.00  0.00     0.011 C 
ENDBRANCH   7   8
BRANCH   7  10
HETATM   10  N7  UNL     1      15.379  17.437  31.282  1.00  0.00    -0.320 N 
HETATM   11  C18 UNL     1      13.982  17.124  30.891  1.00  0.00     0.159 C 
HETATM   12  C19 UNL     1      15.604  18.809  31.555  1.00  0.00     0.241 C 
HETATM   13  O2  UNL     1      16.744  19.183  31.889  1.00  0.00    -0.271 OA
BRANCH  12  14
HETATM   14  C20 UNL     1      14.551  19.852  31.468  1.00  0.00     0.228 C 
BRANCH  14  15
HETATM   15  N8  UNL     1      14.777  20.745  30.351  1.00  0.00    -0.351 N 
HETATM   16  C21 UNL     1      14.568  20.389  28.965  1.00  0.00     0.152 C 
HETATM   17  C22 UNL     1      15.229  22.053  30.626  1.00  0.00     0.184 C 
HETATM   18  N9  UNL     1      16.307  22.251  31.303  1.00  0.00    -0.374 N 
HETATM   19  N10 UNL     1      14.511  23.180  30.165  1.00  0.00    -0.064 NA
ATOM     20  H92 UNL     1      16.825  21.438  31.635  1.00  0.00     0.158 HD
ATOM     21  H91 UNL     1      16.635  23.196  31.502  1.00  0.00     0.158 HD
ENDBRANCH  14  15
ENDBRANCH  12  14
ENDBRANCH   7  10
ENDBRANCH   4   7
ENDBRANCH   1   3
BRANCH   1  22
HETATM   22  C7  UNL     1      13.932  14.109  34.809  1.00  0.00     0.025 C 
BRANCH  22  23
HETATM   23  C8  UNL     1      13.076  13.544  33.724  1.00  0.00     0.004 C 
BRANCH  23  24
HETATM   24  C9  UNL     1      11.911  12.746  34.260  1.00  0.00     0.028 C 
BRANCH  24  25
HETATM   25  C10 UNL     1      11.338  13.446  35.448  1.00  0.00     0.237 C 
BRANCH  25  26
HETATM   26  N2  UNL     1      10.958  12.556  36.534  1.00  0.00    -0.068 N 
HETATM   27  C11 UNL     1      10.251  11.418  35.919  1.00  0.00     0.272 C 
HETATM   28  C12 UNL     1      12.178  11.993  37.069  1.00  0.00     0.257 C 
HETATM   29  C13 UNL     1      12.685  12.817  38.236  1.00  0.00     0.153 C 
HETATM   30  N3  UNL     1      11.693  12.759  39.288  1.00  0.00    -0.357 N 
HETATM   31  C16 UNL     1      10.311  12.612  38.914  1.00  0.00     0.153 C 
HETATM   32  C17 UNL     1      10.097  13.156  37.504  1.00  0.00     0.257 C 
BRANCH  30  33
HETATM   33  C14 UNL     1      12.131  12.851  40.634  1.00  0.00     0.165 A 
HETATM   34  N4  UNL     1      13.340  13.153  41.081  1.00  0.00    -0.278 N 
HETATM   35  N5  UNL     1      13.584  13.189  42.324  1.00  0.00    -0.278 N 
ATOM     36  H4  UNL     1      14.086  13.359  40.416  1.00  0.00     0.189 HD
HETATM   37  C15 UNL     1      12.602  12.919  43.188  1.00  0.00     0.160 A 
ATOM     38  H5  UNL     1      14.518  13.422  42.661  1.00  0.00     0.189 HD
HETATM   39  N6  UNL     1      12.631  12.895  44.498  1.00  0.00    -0.379 N 
HETATM   40  S1  UNL     1      11.293  12.605  42.119  1.00  0.00    -0.016 SA
ATOM     41  H62 UNL     1      13.408  13.082  45.132  1.00  0.00     0.158 HD
ATOM     42  H61 UNL     1      11.882  12.689  45.158  1.00  0.00     0.158 HD
ENDBRANCH  30  33
ENDBRANCH  25  26
ENDBRANCH  24  25
ENDBRANCH  23  24
ENDBRANCH  22  23
ENDBRANCH   1  22
TORSDOF 12
ENDMDL
MODEL 4
REMARK VINA RESULT: -8.372760972      4.427      6.443
REMARK  12 active torsions:
REMARK  status: ('A' for Active; 'I' for Inactive)
REMARK    1  A    between atoms: C2_2  and  C3_3 
REMARK    2  A    between atoms: C3_3  and  C4_4 
REMARK    3  A    between atoms: C3_3  and  N7_31 
REMARK       I    between atoms: C4_4  and  N1_6 
REMARK    4  A    between atoms: N1_6  and  C5_8 
REMARK    5  A    between atoms: C5_8  and  C7_10 
REMARK    6  A    between atoms: C7_10  and  C8_11 
REMARK    7  A    between atoms: C8_11  and  C9_12 
REMARK    8  A    between atoms: C9_12  and  C10_13 
REMARK    9  A    between atoms: C10_13  and  N2_14 
REMARK   10  A    between atoms: N3_18  and  C14_19 
REMARK       I    between atoms: N7_31  and  C19_33 
REMARK   11  A    between atoms: C19_33  and  C20_35 
REMARK   12  A    between atoms: C20_35  and  N8_36 
REMARK       I    between atoms: N8_36  and  C22_38 
ROOT
HETATM    1  C5  UNL     1      15.128  14.193  34.572  1.00  0.00     0.080 C 
HETATM    2  C6  UNL     1      16.467  13.547  35.021  1.00  0.00     0.032 C 
ENDROOT
BRANCH   1   3
HETATM    3  N1  UNL     1      15.526  15.316  33.754  1.00  0.00    -0.352 N 
HETATM    4  C4  UNL     1      15.604  15.251  32.339  1.00  0.00     0.264 C 
HETATM    5  O1  UNL     1      15.314  14.136  31.805  1.00  0.00    -0.266 OA
ATOM      6  H1  UNL     1      15.760  16.195  34.215  1.00  0.00     0.163 HD
BRANCH   4   7
HETATM    7  C3  UNL     1      15.987  16.342  31.446  1.00  0.00     0.081 C 
BRANCH   7   8
HETATM    8  C2  UNL     1      16.695  15.994  30.200  1.00  0.00     0.059 C 
HETATM    9  C1  UNL     1      18.146  16.200  30.082  1.00  0.00     0.011 C 
ENDBRANCH   7   8
BRANCH   7  10
HETATM   10  N7  UNL     1      15.047  17.441  31.389  1.00  0.00    -0.320 N 
HETATM   11  C18 UNL     1      13.606  17.222  31.108  1.00  0.00     0.159 C 
HETATM   12  C19 UNL     1      15.389  18.800  31.597  1.00  0.00     0.241 C 
HETATM   13  O2  UNL     1      16.574  19.098  31.837  1.00  0.00    -0.271 OA
BRANCH  12  14
HETATM   14  C20 UNL     1      14.411  19.916  31.546  1.00  0.00     0.228 C 
BRANCH  14  15
HETATM   15  N8  UNL     1      14.654  20.787  30.416  1.00  0.00    -0.351 N 
HETATM   16  C21 UNL     1      14.393  20.431  29.039  1.00  0.00     0.152 C 
HETATM   17  C22 UNL     1      15.178  22.072  30.667  1.00  0.00     0.184 C 
HETATM   18  N9  UNL     1      16.281  22.222  31.316  1.00  0.00    -0.374 N 
HETATM   19  N10 UNL     1      14.507  23.231  30.213  1.00  0.00    -0.064 NA
ATOM     20  H92 UNL     1      16.765  21.386  31.643  1.00  0.00     0.158 HD
ATOM     21  H91 UNL     1      16.660  23.151  31.498  1.00  0.00     0.158 HD
ENDBRANCH  14  15
ENDBRANCH  12  14
ENDBRANCH   7  10
ENDBRANCH   4   7
ENDBRANCH   1   3
BRANCH   1  22
HETATM   22  C7  UNL     1      14.438  14.565  35.846  1.00  0.00     0.025 C 
BRANCH  22  23
HETATM   23  C8  UNL     1      14.392  13.410  36.792  1.00  0.00     0.004 C 
BRANCH  23  24
HETATM   24  C9  UNL     1      14.533  13.836  38.234  1.00  0.00     0.028 C 
BRANCH  24  25
HETATM   25  C10 UNL     1      13.773  12.890  39.104  1.00  0.00     0.237 C 
BRANCH  25  26
HETATM   26  N2  UNL     1      14.071  13.022  40.523  1.00  0.00    -0.068 N 
HETATM   27  C11 UNL     1      15.071  14.098  40.646  1.00  0.00     0.272 C 
HETATM   28  C12 UNL     1      12.881  13.541  41.161  1.00  0.00     0.257 C 
HETATM   29  C13 UNL     1      12.017  12.414  41.688  1.00  0.00     0.153 C 
HETATM   30  N3  UNL     1      12.769  11.710  42.703  1.00  0.00    -0.357 N 
HETATM   31  C16 UNL     1      14.203  11.669  42.582  1.00  0.00     0.153 C 
HETATM   32  C17 UNL     1      14.603  11.837  41.119  1.00  0.00     0.257 C 
BRANCH  30  33
HETATM   33  C14 UNL     1      12.059  11.094  43.765  1.00  0.00     0.165 A 
HETATM   34  N4  UNL     1      12.489  10.171  44.610  1.00  0.00    -0.278 N 
HETATM   35  N5  UNL     1      11.728   9.707  45.511  1.00  0.00    -0.278 N 
ATOM     36  H4  UNL     1      13.447   9.827  44.535  1.00  0.00     0.189 HD
HETATM   37  C15 UNL     1      10.476  10.163  45.602  1.00  0.00     0.160 A 
ATOM     38  H5  UNL     1      12.066   8.995  46.158  1.00  0.00     0.189 HD
HETATM   39  N6  UNL     1       9.529   9.827  46.443  1.00  0.00    -0.379 N 
HETATM   40  S1  UNL     1      10.440  11.304  44.317  1.00  0.00    -0.016 SA
ATOM     41  H62 UNL     1       9.551   9.150  47.206  1.00  0.00     0.158 HD
ATOM     42  H61 UNL     1       8.573  10.174  46.513  1.00  0.00     0.158 HD
ENDBRANCH  30  33
ENDBRANCH  25  26
ENDBRANCH  24  25
ENDBRANCH  23  24
ENDBRANCH  22  23
ENDBRANCH   1  22
TORSDOF 12
ENDMDL
MODEL 5
REMARK VINA RESULT: -8.357428701      4.637      6.723
REMARK  12 active torsions:
REMARK  status: ('A' for Active; 'I' for Inactive)
REMARK    1  A    between atoms: C2_2  and  C3_3 
REMARK    2  A    between atoms: C3_3  and  C4_4 
REMARK    3  A    between atoms: C3_3  and  N7_31 
REMARK       I    between atoms: C4_4  and  N1_6 
REMARK    4  A    between atoms: N1_6  and  C5_8 
REMARK    5  A    between atoms: C5_8  and  C7_10 
REMARK    6  A    between atoms: C7_10  and  C8_11 
REMARK    7  A    between atoms: C8_11  and  C9_12 
REMARK    8  A    between atoms: C9_12  and  C10_13 
REMARK    9  A    between atoms: C10_13  and  N2_14 
REMARK   10  A    between atoms: N3_18  and  C14_19 
REMARK       I    between atoms: N7_31  and  C19_33 
REMARK   11  A    between atoms: C19_33  and  C20_35 
REMARK   12  A    between atoms: C20_35  and  N8_36 
REMARK       I    between atoms: N8_36  and  C22_38 
ROOT
HETATM    1  C5  UNL     1      15.667  14.715  35.387  1.00  0.00     0.080 C 
HETATM    2  C6  UNL     1      14.286  15.424  35.343  1.00  0.00     0.032 C 
ENDROOT
BRANCH   1   3
HETATM    3  N1  UNL     1      16.065  14.612  34.002  1.00  0.00    -0.352 N 
HETATM    4  C4  UNL     1      17.348  14.999  33.536  1.00  0.00     0.264 C 
HETATM    5  O1  UNL     1      18.153  15.460  34.406  1.00  0.00    -0.266 OA
ATOM      6  H1  UNL     1      15.393  14.246  33.328  1.00  0.00     0.163 HD
BRANCH   4   7
HETATM    7  C3  UNL     1      17.827  14.917  32.159  1.00  0.00     0.081 C 
BRANCH   7   8
HETATM    8  C2  UNL     1      17.335  13.804  31.325  1.00  0.00     0.059 C 
HETATM    9  C1  UNL     1      16.176  13.988  30.441  1.00  0.00     0.011 C 
ENDBRANCH   7   8
BRANCH   7  10
HETATM   10  N7  UNL     1      18.028  16.194  31.508  1.00  0.00    -0.320 N 
HETATM   11  C18 UNL     1      19.277  16.504  30.767  1.00  0.00     0.159 C 
HETATM   12  C19 UNL     1      17.083  17.249  31.503  1.00  0.00     0.241 C 
HETATM   13  O2  UNL     1      16.000  17.098  32.099  1.00  0.00    -0.271 OA
BRANCH  12  14
HETATM   14  C20 UNL     1      17.301  18.550  30.821  1.00  0.00     0.228 C 
BRANCH  14  15
HETATM   15  N8  UNL     1      17.226  19.658  31.750  1.00  0.00    -0.351 N 
HETATM   16  C21 UNL     1      18.110  19.837  32.880  1.00  0.00     0.152 C 
HETATM   17  C22 UNL     1      16.227  20.633  31.544  1.00  0.00     0.184 C 
HETATM   18  N9  UNL     1      14.984  20.303  31.477  1.00  0.00    -0.374 N 
HETATM   19  N10 UNL     1      16.566  21.999  31.406  1.00  0.00    -0.064 NA
ATOM     20  H92 UNL     1      14.741  19.318  31.577  1.00  0.00     0.158 HD
ATOM     21  H91 UNL     1      14.262  21.008  31.328  1.00  0.00     0.158 HD
ENDBRANCH  14  15
ENDBRANCH  12  14
ENDBRANCH   7  10
ENDBRANCH   4   7
ENDBRANCH   1   3
BRANCH   1  22
HETATM   22  C7  UNL     1      15.402  13.404  36.057  1.00  0.00     0.025 C 
BRANCH  22  23
HETATM   23  C8  UNL     1      14.206  13.485  36.948  1.00  0.00     0.004 C 
BRANCH  23  24
HETATM   24  C9  UNL     1      14.574  13.747  38.389  1.00  0.00     0.028 C 
BRANCH  24  25
HETATM   25  C10 UNL     1      13.644  12.994  39.281  1.00  0.00     0.237 C 
BRANCH  25  26
HETATM   26  N2  UNL     1      14.017  13.023  40.688  1.00  0.00    -0.068 N 
HETATM   27  C11 UNL     1      15.092  14.025  40.817  1.00  0.00     0.272 C 
HETATM   28  C12 UNL     1      12.897  13.581  41.413  1.00  0.00     0.257 C 
HETATM   29  C13 UNL     1      11.985  12.483  41.922  1.00  0.00     0.153 C 
HETATM   30  N3  UNL     1      12.737  11.674  42.857  1.00  0.00    -0.357 N 
HETATM   31  C16 UNL     1      14.157  11.548  42.660  1.00  0.00     0.153 C 
HETATM   32  C17 UNL     1      14.496  11.774  41.189  1.00  0.00     0.257 C 
BRANCH  30  33
HETATM   33  C14 UNL     1      12.038  11.045  43.919  1.00  0.00     0.165 A 
HETATM   34  N4  UNL     1      12.498  10.159  44.789  1.00  0.00    -0.278 N 
HETATM   35  N5  UNL     1      11.744   9.676  45.686  1.00  0.00    -0.278 N 
ATOM     36  H4  UNL     1      13.472   9.861  44.736  1.00  0.00     0.189 HD
HETATM   37  C15 UNL     1      10.471  10.073  45.748  1.00  0.00     0.160 A 
ATOM     38  H5  UNL     1      12.105   8.993  46.352  1.00  0.00     0.189 HD
HETATM   39  N6  UNL     1       9.526   9.707  46.580  1.00  0.00    -0.379 N 
HETATM   40  S1  UNL     1      10.402  11.186  44.441  1.00  0.00    -0.016 SA
ATOM     41  H62 UNL     1       9.567   9.047  47.356  1.00  0.00     0.158 HD
ATOM     42  H61 UNL     1       8.554  10.010  46.628  1.00  0.00     0.158 HD
ENDBRANCH  30  33
ENDBRANCH  25  26
ENDBRANCH  24  25
ENDBRANCH  23  24
ENDBRANCH  22  23
ENDBRANCH   1  22
TORSDOF 12
ENDMDL
