MODEL 1
REMARK VINA RESULT: -6.037796435      0.000      0.000
REMARK  8 active torsions:
REMARK  status: ('A' for Active; 'I' for Inactive)
REMARK    1  A    between atoms: N1_1  and  C1_5 
REMARK    2  A    between atoms: C1_5  and  C2_6 
REMARK    3  A    between atoms: C2_6  and  C3_7 
REMARK    4  A    between atoms: C3_7  and  N2_8 
REMARK    5  A    between atoms: C5_13  and  N4_14 
REMARK    6  A    between atoms: N4_14  and  N5_16 
REMARK    7  A    between atoms: N5_16  and  C6_18 
REMARK    8  A    between atoms: C6_18  and  C7_19 
ROOT
HETATM    1  N2  UNL     1     -13.357 -22.046  15.837  1.00  0.00    -0.240 N 
HETATM    2  N3  UNL     1     -12.099 -21.870  15.424  1.00  0.00    -0.257 N 
ATOM      3  H3  UNL     1     -11.935 -21.488  14.492  1.00  0.00     0.190 HD
HETATM    4  C4  UNL     1     -11.055 -22.176  16.185  1.00  0.00     0.305 A 
HETATM    5  O1  UNL     1      -9.865 -22.003  15.778  1.00  0.00    -0.263 OA
HETATM    6  C5  UNL     1     -11.292 -22.696  17.448  1.00  0.00     0.194 A 
HETATM    7  N7  UNL     1     -12.577 -22.871  17.858  1.00  0.00    -0.288 N 
ATOM      8  H7  UNL     1     -12.761 -23.253  18.786  1.00  0.00     0.172 HD
HETATM    9  C12 UNL     1     -13.607 -22.549  17.058  1.00  0.00     0.342 A 
HETATM   10  O2  UNL     1     -14.774 -22.728  17.482  1.00  0.00    -0.245 OA
ENDROOT
BRANCH   6  11
HETATM   11  N4  UNL     1     -10.334 -23.016  18.239  1.00  0.00    -0.285 N 
ATOM     12  H4  UNL     1      -9.738 -23.808  17.999  1.00  0.00     0.188 HD
BRANCH  11  13
HETATM   13  N5  UNL     1     -10.082 -22.315  19.414  1.00  0.00    -0.330 N 
ATOM     14  H5  UNL     1     -10.857 -22.040  20.018  1.00  0.00     0.180 HD
BRANCH  13  15
HETATM   15  C6  UNL     1      -8.737 -21.975  19.783  1.00  0.00     0.179 C 
BRANCH  15  16
HETATM   16  C7  UNL     1      -8.060 -21.148  18.749  1.00  0.00    -0.024 A 
HETATM   17  C8  UNL     1      -6.847 -21.534  18.244  1.00  0.00     0.011 A 
HETATM   18  C9  UNL     1      -6.247 -20.748  17.289  1.00  0.00     0.018 A 
HETATM   19  C10 UNL     1      -6.836 -19.596  16.836  1.00  0.00     0.087 A 
HETATM   20  N6  UNL     1      -8.012 -19.255  17.348  1.00  0.00    -0.375 N 
HETATM   21  C11 UNL     1      -8.636 -19.992  18.285  1.00  0.00     0.096 A 
ATOM     22  H6  UNL     1      -8.460 -18.400  17.019  1.00  0.00     0.164 HD
ENDBRANCH  15  16
ENDBRANCH  13  15
ENDBRANCH  11  13
ENDBRANCH   6  11
BRANCH   1  23
HETATM   23  C3  UNL     1     -14.412 -21.684  14.943  1.00  0.00     0.155 C 
BRANCH  23  24
HETATM   24  C2  UNL     1     -14.552 -22.641  13.777  1.00  0.00     0.049 C 
BRANCH  24  25
HETATM   25  C1  UNL     1     -15.718 -23.575  14.129  1.00  0.00     0.231 C 
BRANCH  25  26
HETATM   26  N1  UNL     1     -16.601 -22.912  15.072  1.00  0.00    -0.079 N 
ATOM     27  H13 UNL     1     -17.434 -23.465  15.275  1.00  0.00     0.274 HD
ATOM     28  H12 UNL     1     -16.210 -22.886  16.014  1.00  0.00     0.274 HD
ATOM     29  H11 UNL     1     -16.832 -21.981  14.724  1.00  0.00     0.274 HD
ENDBRANCH  25  26
ENDBRANCH  24  25
ENDBRANCH  23  24
ENDBRANCH   1  23
TORSDOF 8
ENDMDL
MODEL 2
REMARK VINA RESULT: -5.910664572      2.087      3.316
REMARK  8 active torsions:
REMARK  status: ('A' for Active; 'I' for Inactive)
REMARK    1  A    between atoms: N1_1  and  C1_5 
REMARK    2  A    between atoms: C1_5  and  C2_6 
REMARK    3  A    between atoms: C2_6  and  C3_7 
REMARK    4  A    between atoms: C3_7  and  N2_8 
REMARK    5  A    between atoms: C5_13  and  N4_14 
REMARK    6  A    between atoms: N4_14  and  N5_16 
REMARK    7  A    between atoms: N5_16  and  C6_18 
REMARK    8  A    between atoms: C6_18  and  C7_19 
ROOT
HETATM    1  N2  UNL     1     -15.740 -23.006  15.734  1.00  0.00    -0.240 N 
HETATM    2  N3  UNL     1     -15.207 -23.205  14.526  1.00  0.00    -0.257 N 
ATOM      3  H3  UNL     1     -15.647 -23.876  13.897  1.00  0.00     0.190 HD
HETATM    4  C4  UNL     1     -14.121 -22.558  14.116  1.00  0.00     0.305 A 
HETATM    5  O1  UNL     1     -13.626 -22.757  12.965  1.00  0.00    -0.263 OA
HETATM    6  C5  UNL     1     -13.531 -21.650  14.982  1.00  0.00     0.194 A 
HETATM    7  N7  UNL     1     -14.083 -21.456  16.210  1.00  0.00    -0.288 N 
ATOM      8  H7  UNL     1     -13.657 -20.790  16.854  1.00  0.00     0.172 HD
HETATM    9  C12 UNL     1     -15.182 -22.130  16.587  1.00  0.00     0.342 A 
HETATM   10  O2  UNL     1     -15.654 -21.916  17.730  1.00  0.00    -0.245 OA
ENDROOT
BRANCH   6  11
HETATM   11  N4  UNL     1     -12.481 -20.988  14.657  1.00  0.00    -0.285 N 
ATOM     12  H4  UNL     1     -12.478 -20.465  13.782  1.00  0.00     0.188 HD
BRANCH  11  13
HETATM   13  N5  UNL     1     -11.346 -20.963  15.461  1.00  0.00    -0.330 N 
ATOM     14  H5  UNL     1     -10.978 -20.070  15.791  1.00  0.00     0.180 HD
BRANCH  13  15
HETATM   15  C6  UNL     1     -10.690 -22.184  15.830  1.00  0.00     0.179 C 
BRANCH  15  16
HETATM   16  C7  UNL     1      -9.383 -21.943  16.496  1.00  0.00    -0.024 A 
HETATM   17  C8  UNL     1      -8.820 -20.694  16.478  1.00  0.00     0.011 A 
HETATM   18  C9  UNL     1      -7.611 -20.505  17.103  1.00  0.00     0.018 A 
HETATM   19  C10 UNL     1      -6.963 -21.531  17.739  1.00  0.00     0.087 A 
HETATM   20  N6  UNL     1      -7.539 -22.727  17.736  1.00  0.00    -0.375 N 
HETATM   21  C11 UNL     1      -8.721 -22.960  17.138  1.00  0.00     0.096 A 
ATOM     22  H6  UNL     1      -7.068 -23.499  18.207  1.00  0.00     0.164 HD
ENDBRANCH  15  16
ENDBRANCH  13  15
ENDBRANCH  11  13
ENDBRANCH   6  11
BRANCH   1  23
HETATM   23  C3  UNL     1     -16.910 -23.750  16.080  1.00  0.00     0.155 C 
BRANCH  23  24
HETATM   24  C2  UNL     1     -17.754 -24.114  14.876  1.00  0.00     0.049 C 
BRANCH  24  25
HETATM   25  C1  UNL     1     -19.216 -23.923  15.306  1.00  0.00     0.231 C 
BRANCH  25  26
HETATM   26  N1  UNL     1     -19.416 -22.554  15.743  1.00  0.00    -0.079 N 
ATOM     27  H13 UNL     1     -19.144 -22.416  16.717  1.00  0.00     0.274 HD
ATOM     28  H12 UNL     1     -18.750 -21.911  15.314  1.00  0.00     0.274 HD
ATOM     29  H11 UNL     1     -20.383 -22.280  15.571  1.00  0.00     0.274 HD
ENDBRANCH  25  26
ENDBRANCH  24  25
ENDBRANCH  23  24
ENDBRANCH   1  23
TORSDOF 8
ENDMDL
MODEL 3
REMARK VINA RESULT: -5.828108668      1.613      1.830
REMARK  8 active torsions:
REMARK  status: ('A' for Active; 'I' for Inactive)
REMARK    1  A    between atoms: N1_1  and  C1_5 
REMARK    2  A    between atoms: C1_5  and  C2_6 
REMARK    3  A    between atoms: C2_6  and  C3_7 
REMARK    4  A    between atoms: C3_7  and  N2_8 
REMARK    5  A    between atoms: C5_13  and  N4_14 
REMARK    6  A    between atoms: N4_14  and  N5_16 
REMARK    7  A    between atoms: N5_16  and  C6_18 
REMARK    8  A    between atoms: C6_18  and  C7_19 
ROOT
HETATM    1  N2  UNL     1     -11.874 -23.363  16.055  1.00  0.00    -0.240 N 
HETATM    2  N3  UNL     1     -10.652 -23.813  15.761  1.00  0.00    -0.257 N 
ATOM      3  H3  UNL     1     -10.380 -23.896  14.781  1.00  0.00     0.190 HD
HETATM    4  C4  UNL     1      -9.779 -24.158  16.700  1.00  0.00     0.305 A 
HETATM    5  O1  UNL     1      -8.621 -24.585  16.405  1.00  0.00    -0.263 OA
HETATM    6  C5  UNL     1     -10.162 -24.042  18.028  1.00  0.00     0.194 A 
HETATM    7  N7  UNL     1     -11.409 -23.581  18.316  1.00  0.00    -0.288 N 
ATOM      8  H7  UNL     1     -11.700 -23.492  19.289  1.00  0.00     0.172 HD
HETATM    9  C12 UNL     1     -12.263 -23.243  17.336  1.00  0.00     0.342 A 
HETATM   10  O2  UNL     1     -13.402 -22.823  17.652  1.00  0.00    -0.245 OA
ENDROOT
BRANCH   6  11
HETATM   11  N4  UNL     1      -9.373 -24.356  18.990  1.00  0.00    -0.285 N 
ATOM     12  H4  UNL     1      -9.707 -24.991  19.715  1.00  0.00     0.188 HD
BRANCH  11  13
HETATM   13  N5  UNL     1      -8.077 -23.858  19.075  1.00  0.00    -0.330 N 
ATOM     14  H5  UNL     1      -7.303 -24.390  18.678  1.00  0.00     0.180 HD
BRANCH  13  15
HETATM   15  C6  UNL     1      -7.823 -22.600  19.718  1.00  0.00     0.179 C 
BRANCH  15  16
HETATM   16  C7  UNL     1      -7.634 -21.495  18.741  1.00  0.00    -0.024 A 
HETATM   17  C8  UNL     1      -6.472 -21.403  18.021  1.00  0.00     0.011 A 
HETATM   18  C9  UNL     1      -6.329 -20.370  17.126  1.00  0.00     0.018 A 
HETATM   19  C10 UNL     1      -7.318 -19.439  16.941  1.00  0.00     0.087 A 
HETATM   20  N6  UNL     1      -8.429 -19.562  17.656  1.00  0.00    -0.375 N 
HETATM   21  C11 UNL     1      -8.614 -20.556  18.543  1.00  0.00     0.096 A 
ATOM     22  H6  UNL     1      -9.173 -18.876  17.526  1.00  0.00     0.164 HD
ENDBRANCH  15  16
ENDBRANCH  13  15
ENDBRANCH  11  13
ENDBRANCH   6  11
BRANCH   1  23
HETATM   23  C3  UNL     1     -12.739 -23.016  14.972  1.00  0.00     0.155 C 
BRANCH  23  24
HETATM   24  C2  UNL     1     -12.761 -21.528  14.687  1.00  0.00     0.049 C 
BRANCH  24  25
HETATM   25  C1  UNL     1     -14.216 -21.182  14.341  1.00  0.00     0.231 C 
BRANCH  25  26
HETATM   26  N1  UNL     1     -15.025 -21.237  15.545  1.00  0.00    -0.079 N 
ATOM     27  H13 UNL     1     -15.650 -22.044  15.553  1.00  0.00     0.274 HD
ATOM     28  H12 UNL     1     -14.473 -21.473  16.371  1.00  0.00     0.274 HD
ATOM     29  H11 UNL     1     -15.530 -20.358  15.656  1.00  0.00     0.274 HD
ENDBRANCH  25  26
ENDBRANCH  24  25
ENDBRANCH  23  24
ENDBRANCH   1  23
TORSDOF 8
ENDMDL
MODEL 4
REMARK VINA RESULT: -5.825800558      0.976      1.873
REMARK  8 active torsions:
REMARK  status: ('A' for Active; 'I' for Inactive)
REMARK    1  A    between atoms: N1_1  and  C1_5 
REMARK    2  A    between atoms: C1_5  and  C2_6 
REMARK    3  A    between atoms: C2_6  and  C3_7 
REMARK    4  A    between atoms: C3_7  and  N2_8 
REMARK    5  A    between atoms: C5_13  and  N4_14 
REMARK    6  A    between atoms: N4_14  and  N5_16 
REMARK    7  A    between atoms: N5_16  and  C6_18 
REMARK    8  A    between atoms: C6_18  and  C7_19 
ROOT
HETATM    1  N2  UNL     1     -12.804 -21.832  15.609  1.00  0.00    -0.240 N 
HETATM    2  N3  UNL     1     -13.232 -22.296  16.785  1.00  0.00    -0.257 N 
ATOM      3  H3  UNL     1     -14.234 -22.298  16.980  1.00  0.00     0.190 HD
HETATM    4  C4  UNL     1     -12.398 -22.754  17.711  1.00  0.00     0.305 A 
HETATM    5  O1  UNL     1     -12.820 -23.192  18.825  1.00  0.00    -0.263 OA
HETATM    6  C5  UNL     1     -11.039 -22.744  17.435  1.00  0.00     0.194 A 
HETATM    7  N7  UNL     1     -10.615 -22.269  16.233  1.00  0.00    -0.288 N 
ATOM      8  H7  UNL     1      -9.617 -22.257  16.020  1.00  0.00     0.172 HD
HETATM    9  C12 UNL     1     -11.491 -21.814  15.322  1.00  0.00     0.342 A 
HETATM   10  O2  UNL     1     -11.051 -21.386  14.227  1.00  0.00    -0.245 OA
ENDROOT
BRANCH   6  11
HETATM   11  N4  UNL     1     -10.173 -23.169  18.280  1.00  0.00    -0.285 N 
ATOM     12  H4  UNL     1      -9.677 -24.039  18.084  1.00  0.00     0.188 HD
BRANCH  11  13
HETATM   13  N5  UNL     1      -9.888 -22.481  19.455  1.00  0.00    -0.330 N 
ATOM     14  H5  UNL     1     -10.642 -22.247  20.101  1.00  0.00     0.180 HD
BRANCH  13  15
HETATM   15  C6  UNL     1      -8.540 -22.098  19.765  1.00  0.00     0.179 C 
BRANCH  15  16
HETATM   16  C7  UNL     1      -7.955 -21.207  18.728  1.00  0.00    -0.024 A 
HETATM   17  C8  UNL     1      -6.748 -21.514  18.158  1.00  0.00     0.011 A 
HETATM   18  C9  UNL     1      -6.235 -20.669  17.202  1.00  0.00     0.018 A 
HETATM   19  C10 UNL     1      -6.901 -19.537  16.813  1.00  0.00     0.087 A 
HETATM   20  N6  UNL     1      -8.068 -19.274  17.387  1.00  0.00    -0.375 N 
HETATM   21  C11 UNL     1      -8.610 -20.070  18.326  1.00  0.00     0.096 A 
ATOM     22  H6  UNL     1      -8.575 -18.434  17.105  1.00  0.00     0.164 HD
ENDBRANCH  15  16
ENDBRANCH  13  15
ENDBRANCH  11  13
ENDBRANCH   6  11
BRANCH   1  23
HETATM   23  C3  UNL     1     -13.783 -21.362  14.678  1.00  0.00     0.155 C 
BRANCH  23  24
HETATM   24  C2  UNL     1     -15.171 -21.897  14.962  1.00  0.00     0.049 C 
BRANCH  24  25
HETATM   25  C1  UNL     1     -15.400 -23.042  13.965  1.00  0.00     0.231 C 
BRANCH  25  26
HETATM   26  N1  UNL     1     -16.686 -23.661  14.226  1.00  0.00    -0.079 N 
ATOM     27  H13 UNL     1     -16.592 -24.578  14.663  1.00  0.00     0.274 HD
ATOM     28  H12 UNL     1     -17.194 -23.193  14.978  1.00  0.00     0.274 HD
ATOM     29  H11 UNL     1     -17.226 -23.700  13.362  1.00  0.00     0.274 HD
ENDBRANCH  25  26
ENDBRANCH  24  25
ENDBRANCH  23  24
ENDBRANCH   1  23
TORSDOF 8
ENDMDL
MODEL 5
REMARK VINA RESULT: -5.818452053      1.855      2.193
REMARK  8 active torsions:
REMARK  status: ('A' for Active; 'I' for Inactive)
REMARK    1  A    between atoms: N1_1  and  C1_5 
REMARK    2  A    between atoms: C1_5  and  C2_6 
REMARK    3  A    between atoms: C2_6  and  C3_7 
REMARK    4  A    between atoms: C3_7  and  N2_8 
REMARK    5  A    between atoms: C5_13  and  N4_14 
REMARK    6  A    between atoms: N4_14  and  N5_16 
REMARK    7  A    between atoms: N5_16  and  C6_18 
REMARK    8  A    between atoms: C6_18  and  C7_19 
ROOT
HETATM    1  N2  UNL     1     -12.955 -23.244  14.973  1.00  0.00    -0.240 N 
HETATM    2  N3  UNL     1     -12.535 -24.453  15.353  1.00  0.00    -0.257 N 
ATOM      3  H3  UNL     1     -13.179 -25.242  15.286  1.00  0.00     0.190 HD
HETATM    4  C4  UNL     1     -11.309 -24.663  15.817  1.00  0.00     0.305 A 
HETATM    5  O1  UNL     1     -10.925 -25.819  16.175  1.00  0.00    -0.263 OA
HETATM    6  C5  UNL     1     -10.445 -23.582  15.905  1.00  0.00     0.194 A 
HETATM    7  N7  UNL     1     -10.883 -22.355  15.515  1.00  0.00    -0.288 N 
ATOM      8  H7  UNL     1     -10.255 -21.554  15.576  1.00  0.00     0.172 HD
HETATM    9  C12 UNL     1     -12.132 -22.184  15.051  1.00  0.00     0.342 A 
HETATM   10  O2  UNL     1     -12.489 -21.032  14.703  1.00  0.00    -0.245 OA
ENDROOT
BRANCH   6  11
HETATM   11  N4  UNL     1      -9.246 -23.708  16.344  1.00  0.00    -0.285 N 
ATOM     12  H4  UNL     1      -8.468 -23.594  15.694  1.00  0.00     0.188 HD
BRANCH  11  13
HETATM   13  N5  UNL     1      -8.974 -23.994  17.678  1.00  0.00    -0.330 N 
ATOM     14  H5  UNL     1      -8.853 -24.962  17.975  1.00  0.00     0.180 HD
BRANCH  13  15
HETATM   15  C6  UNL     1      -8.862 -22.934  18.640  1.00  0.00     0.179 C 
BRANCH  15  16
HETATM   16  C7  UNL     1      -8.186 -21.734  18.081  1.00  0.00    -0.024 A 
HETATM   17  C8  UNL     1      -6.879 -21.806  17.674  1.00  0.00     0.011 A 
HETATM   18  C9  UNL     1      -6.283 -20.679  17.162  1.00  0.00     0.018 A 
HETATM   19  C10 UNL     1      -6.964 -19.494  17.051  1.00  0.00     0.087 A 
HETATM   20  N6  UNL     1      -8.228 -19.464  17.454  1.00  0.00    -0.375 N 
HETATM   21  C11 UNL     1      -8.853 -20.541  17.962  1.00  0.00     0.096 A 
ATOM     22  H6  UNL     1      -8.746 -18.588  17.376  1.00  0.00     0.164 HD
ENDBRANCH  15  16
ENDBRANCH  13  15
ENDBRANCH  11  13
ENDBRANCH   6  11
BRANCH   1  23
HETATM   23  C3  UNL     1     -14.293 -23.121  14.486  1.00  0.00     0.155 C 
BRANCH  23  24
HETATM   24  C2  UNL     1     -15.333 -23.509  15.517  1.00  0.00     0.049 C 
BRANCH  24  25
HETATM   25  C1  UNL     1     -15.523 -22.279  16.416  1.00  0.00     0.231 C 
BRANCH  25  26
HETATM   26  N1  UNL     1     -15.494 -21.077  15.602  1.00  0.00    -0.079 N 
ATOM     27  H13 UNL     1     -16.395 -20.885  15.165  1.00  0.00     0.274 HD
ATOM     28  H12 UNL     1     -15.422 -20.230  16.167  1.00  0.00     0.274 HD
ATOM     29  H11 UNL     1     -14.741 -21.149  14.917  1.00  0.00     0.274 HD
ENDBRANCH  25  26
ENDBRANCH  24  25
ENDBRANCH  23  24
ENDBRANCH   1  23
TORSDOF 8
ENDMDL
