MODEL 1
REMARK VINA RESULT: -6.058088022      0.000      0.000
REMARK  7 active torsions:
REMARK  status: ('A' for Active; 'I' for Inactive)
REMARK    1  A    between atoms: C2_2  and  C3_3 
REMARK    2  A    between atoms: C3_3  and  N1_4 
REMARK    3  A    between atoms: C7_14  and  N4_15 
REMARK    4  A    between atoms: N4_15  and  C8_17 
REMARK    5  A    between atoms: N5_19  and  C10_20 
REMARK    6  A    between atoms: C10_20  and  C11_21 
REMARK    7  A    between atoms: C11_21  and  N6_22 
ROOT
HETATM    1  N1  UNL     1      -8.429 -21.369  17.924  1.00  0.00    -0.279 N 
HETATM    2  C4  UNL     1      -7.802 -22.109  18.840  1.00  0.00     0.331 A 
HETATM    3  O1  UNL     1      -6.868 -21.672  19.566  1.00  0.00    -0.246 OA
HETATM    4  N2  UNL     1      -8.185 -23.389  19.000  1.00  0.00    -0.273 N 
ATOM      5  H2  UNL     1      -7.722 -23.977  19.693  1.00  0.00     0.173 HD
HETATM    6  C5  UNL     1      -9.175 -23.894  18.248  1.00  0.00     0.280 A 
HETATM    7  O2  UNL     1      -9.528 -25.110  18.408  1.00  0.00    -0.265 OA
HETATM    8  C6  UNL     1      -9.829 -23.136  17.298  1.00  0.00     0.162 A 
HETATM    9  N3  UNL     1     -10.821 -23.354  16.425  1.00  0.00    -0.182 N 
ATOM     10  H3  UNL     1     -11.314 -24.239  16.313  1.00  0.00     0.184 HD
HETATM   11  C7  UNL     1     -11.072 -22.240  15.719  1.00  0.00     0.682 A 
HETATM   12  N7  UNL     1     -10.209 -21.323  16.175  1.00  0.00    -0.174 N 
ATOM     13  H7  UNL     1     -10.152 -20.364  15.830  1.00  0.00     0.186 HD
HETATM   14  C12 UNL     1      -9.429 -21.828  17.144  1.00  0.00     0.160 A 
ENDROOT
BRANCH  11  15
HETATM   15  N4  UNL     1     -12.062 -22.118  14.706  1.00  0.00    -0.192 N 
ATOM     16  H4  UNL     1     -11.983 -22.703  13.874  1.00  0.00     0.180 HD
BRANCH  15  17
HETATM   17  C8  UNL     1     -13.165 -21.214  14.802  1.00  0.00     0.365 A 
HETATM   18  C9  UNL     1     -14.440 -21.393  14.142  1.00  0.00     0.332 A 
HETATM   19  N5  UNL     1     -14.299 -21.674  15.530  1.00  0.00     0.119 N 
BRANCH  19  20
HETATM   20  C10 UNL     1     -14.434 -22.933  16.132  1.00  0.00     0.302 C 
BRANCH  20  21
HETATM   21  C11 UNL     1     -14.274 -23.024  17.612  1.00  0.00     0.260 C 
BRANCH  21  22
HETATM   22  N6  UNL     1     -14.316 -21.644  18.126  1.00  0.00    -0.078 N 
ATOM     23  H63 UNL     1     -13.393 -21.215  18.205  1.00  0.00     0.274 HD
ATOM     24  H62 UNL     1     -14.708 -20.978  17.461  1.00  0.00     0.274 HD
ATOM     25  H61 UNL     1     -14.823 -21.677  19.010  1.00  0.00     0.274 HD
ENDBRANCH  21  22
ENDBRANCH  20  21
ENDBRANCH  19  20
ENDBRANCH  15  17
ENDBRANCH  11  15
BRANCH   1  26
HETATM   26  C3  UNL     1      -8.023 -19.981  17.743  1.00  0.00     0.162 C 
BRANCH  26  27
HETATM   27  C2  UNL     1      -7.067 -19.834  16.621  1.00  0.00    -0.017 C 
HETATM   28  C1  UNL     1      -5.784 -20.155  16.717  1.00  0.00     0.008 C 
ENDBRANCH  26  27
ENDBRANCH   1  26
TORSDOF 7
ENDMDL
MODEL 2
REMARK VINA RESULT: -5.835383679      1.577      1.617
REMARK  7 active torsions:
REMARK  status: ('A' for Active; 'I' for Inactive)
REMARK    1  A    between atoms: C2_2  and  C3_3 
REMARK    2  A    between atoms: C3_3  and  N1_4 
REMARK    3  A    between atoms: C7_14  and  N4_15 
REMARK    4  A    between atoms: N4_15  and  C8_17 
REMARK    5  A    between atoms: N5_19  and  C10_20 
REMARK    6  A    between atoms: C10_20  and  C11_21 
REMARK    7  A    between atoms: C11_21  and  N6_22 
ROOT
HETATM    1  N1  UNL     1      -8.366 -21.916  18.502  1.00  0.00    -0.279 N 
HETATM    2  C4  UNL     1      -8.290 -21.815  19.830  1.00  0.00     0.331 A 
HETATM    3  O1  UNL     1      -7.201 -21.698  20.457  1.00  0.00    -0.246 OA
HETATM    4  N2  UNL     1      -9.433 -21.837  20.540  1.00  0.00    -0.273 N 
ATOM      5  H2  UNL     1      -9.402 -21.762  21.557  1.00  0.00     0.173 HD
HETATM    6  C5  UNL     1     -10.613 -21.959  19.913  1.00  0.00     0.280 A 
HETATM    7  O2  UNL     1     -11.689 -21.980  20.598  1.00  0.00    -0.265 OA
HETATM    8  C6  UNL     1     -10.701 -22.065  18.540  1.00  0.00     0.162 A 
HETATM    9  N3  UNL     1     -11.700 -22.193  17.658  1.00  0.00    -0.182 N 
ATOM     10  H3  UNL     1     -12.690 -22.240  17.902  1.00  0.00     0.184 HD
HETATM   11  C7  UNL     1     -11.214 -22.252  16.408  1.00  0.00     0.682 A 
HETATM   12  N7  UNL     1      -9.884 -22.158  16.535  1.00  0.00    -0.174 N 
ATOM     13  H7  UNL     1      -9.228 -22.173  15.754  1.00  0.00     0.186 HD
HETATM   14  C12 UNL     1      -9.525 -22.040  17.824  1.00  0.00     0.160 A 
ENDROOT
BRANCH  11  15
HETATM   15  N4  UNL     1     -11.998 -22.389  15.230  1.00  0.00    -0.192 N 
ATOM     16  H4  UNL     1     -11.786 -23.154  14.589  1.00  0.00     0.180 HD
BRANCH  15  17
HETATM   17  C8  UNL     1     -13.070 -21.502  14.903  1.00  0.00     0.365 A 
HETATM   18  C9  UNL     1     -14.099 -21.776  13.924  1.00  0.00     0.332 A 
HETATM   19  N5  UNL     1     -14.372 -21.905  15.315  1.00  0.00     0.119 N 
BRANCH  19  20
HETATM   20  C10 UNL     1     -14.691 -23.095  15.983  1.00  0.00     0.302 C 
BRANCH  20  21
HETATM   21  C11 UNL     1     -15.313 -22.996  17.335  1.00  0.00     0.260 C 
BRANCH  21  22
HETATM   22  N6  UNL     1     -15.291 -21.570  17.705  1.00  0.00    -0.078 N 
ATOM     23  H63 UNL     1     -14.484 -21.069  17.332  1.00  0.00     0.274 HD
ATOM     24  H62 UNL     1     -16.009 -21.020  17.235  1.00  0.00     0.274 HD
ATOM     25  H61 UNL     1     -15.354 -21.532  18.722  1.00  0.00     0.274 HD
ENDBRANCH  21  22
ENDBRANCH  20  21
ENDBRANCH  19  20
ENDBRANCH  15  17
ENDBRANCH  11  15
BRANCH   1  26
HETATM   26  C3  UNL     1      -7.135 -21.891  17.722  1.00  0.00     0.162 C 
BRANCH  26  27
HETATM   27  C2  UNL     1      -6.742 -20.507  17.368  1.00  0.00    -0.017 C 
HETATM   28  C1  UNL     1      -5.673 -20.223  16.637  1.00  0.00     0.008 C 
ENDBRANCH  26  27
ENDBRANCH   1  26
TORSDOF 7
ENDMDL
MODEL 3
REMARK VINA RESULT: -5.829720803      4.200      7.906
REMARK  7 active torsions:
REMARK  status: ('A' for Active; 'I' for Inactive)
REMARK    1  A    between atoms: C2_2  and  C3_3 
REMARK    2  A    between atoms: C3_3  and  N1_4 
REMARK    3  A    between atoms: C7_14  and  N4_15 
REMARK    4  A    between atoms: N4_15  and  C8_17 
REMARK    5  A    between atoms: N5_19  and  C10_20 
REMARK    6  A    between atoms: C10_20  and  C11_21 
REMARK    7  A    between atoms: C11_21  and  N6_22 
ROOT
HETATM    1  N1  UNL     1      -8.431 -20.966  18.576  1.00  0.00    -0.279 N 
HETATM    2  C4  UNL     1      -9.334 -20.128  18.062  1.00  0.00     0.331 A 
HETATM    3  O1  UNL     1      -9.407 -19.854  16.833  1.00  0.00    -0.246 OA
HETATM    4  N2  UNL     1     -10.214 -19.545  18.896  1.00  0.00    -0.273 N 
ATOM      5  H2  UNL     1     -10.914 -18.901  18.529  1.00  0.00     0.173 HD
HETATM    6  C5  UNL     1     -10.171 -19.810  20.212  1.00  0.00     0.280 A 
HETATM    7  O2  UNL     1     -11.011 -19.250  20.992  1.00  0.00    -0.265 OA
HETATM    8  C6  UNL     1      -9.241 -20.674  20.751  1.00  0.00     0.162 A 
HETATM    9  N3  UNL     1      -8.961 -21.122  21.982  1.00  0.00    -0.182 N 
ATOM     10  H3  UNL     1      -9.462 -20.853  22.828  1.00  0.00     0.184 HD
HETATM   11  C7  UNL     1      -7.924 -21.974  21.942  1.00  0.00     0.682 A 
HETATM   12  N7  UNL     1      -7.566 -22.044  20.654  1.00  0.00    -0.174 N 
ATOM     13  H7  UNL     1      -6.799 -22.616  20.300  1.00  0.00     0.186 HD
HETATM   14  C12 UNL     1      -8.346 -21.265  19.888  1.00  0.00     0.160 A 
ENDROOT
BRANCH  11  15
HETATM   15  N4  UNL     1      -7.363 -22.634  23.070  1.00  0.00    -0.192 N 
ATOM     16  H4  UNL     1      -7.335 -23.654  23.073  1.00  0.00     0.180 HD
BRANCH  15  17
HETATM   17  C8  UNL     1      -6.837 -21.933  24.198  1.00  0.00     0.365 A 
HETATM   18  C9  UNL     1      -6.053 -22.536  25.254  1.00  0.00     0.332 A 
HETATM   19  N5  UNL     1      -5.423 -21.765  24.236  1.00  0.00     0.119 N 
BRANCH  19  20
HETATM   20  C10 UNL     1      -4.513 -22.246  23.286  1.00  0.00     0.302 C 
BRANCH  20  21
HETATM   21  C11 UNL     1      -3.475 -23.218  23.736  1.00  0.00     0.260 C 
BRANCH  21  22
HETATM   22  N6  UNL     1      -2.256 -22.437  24.007  1.00  0.00    -0.078 N 
ATOM     23  H63 UNL     1      -1.929 -22.520  24.970  1.00  0.00     0.274 HD
ATOM     24  H62 UNL     1      -1.424 -22.817  23.558  1.00  0.00     0.274 HD
ATOM     25  H61 UNL     1      -2.460 -21.475  23.732  1.00  0.00     0.274 HD
ENDBRANCH  21  22
ENDBRANCH  20  21
ENDBRANCH  19  20
ENDBRANCH  15  17
ENDBRANCH  11  15
BRANCH   1  26
HETATM   26  C3  UNL     1      -7.474 -21.604  17.681  1.00  0.00     0.162 C 
BRANCH  26  27
HETATM   27  C2  UNL     1      -6.220 -20.823  17.577  1.00  0.00    -0.017 C 
HETATM   28  C1  UNL     1      -5.857 -20.178  16.477  1.00  0.00     0.008 C 
ENDBRANCH  26  27
ENDBRANCH   1  26
TORSDOF 7
ENDMDL
MODEL 4
REMARK VINA RESULT: -5.773936477      3.455      7.157
REMARK  7 active torsions:
REMARK  status: ('A' for Active; 'I' for Inactive)
REMARK    1  A    between atoms: C2_2  and  C3_3 
REMARK    2  A    between atoms: C3_3  and  N1_4 
REMARK    3  A    between atoms: C7_14  and  N4_15 
REMARK    4  A    between atoms: N4_15  and  C8_17 
REMARK    5  A    between atoms: N5_19  and  C10_20 
REMARK    6  A    between atoms: C10_20  and  C11_21 
REMARK    7  A    between atoms: C11_21  and  N6_22 
ROOT
HETATM    1  N1  UNL     1      -8.582 -21.094  17.482  1.00  0.00    -0.279 N 
HETATM    2  C4  UNL     1      -9.340 -21.435  16.439  1.00  0.00     0.331 A 
HETATM    3  O1  UNL     1      -9.647 -20.637  15.512  1.00  0.00    -0.246 OA
HETATM    4  N2  UNL     1      -9.802 -22.697  16.369  1.00  0.00    -0.273 N 
ATOM      5  H2  UNL     1     -10.384 -22.984  15.582  1.00  0.00     0.173 HD
HETATM    6  C5  UNL     1      -9.498 -23.579  17.334  1.00  0.00     0.280 A 
HETATM    7  O2  UNL     1      -9.943 -24.772  17.257  1.00  0.00    -0.265 OA
HETATM    8  C6  UNL     1      -8.715 -23.234  18.417  1.00  0.00     0.162 A 
HETATM    9  N3  UNL     1      -8.257 -23.873  19.501  1.00  0.00    -0.182 N 
ATOM     10  H3  UNL     1      -8.445 -24.851  19.724  1.00  0.00     0.184 HD
HETATM   11  C7  UNL     1      -7.517 -23.042  20.252  1.00  0.00     0.682 A 
HETATM   12  N7  UNL     1      -7.527 -21.869  19.607  1.00  0.00    -0.174 N 
ATOM     13  H7  UNL     1      -7.048 -21.029  19.933  1.00  0.00     0.186 HD
HETATM   14  C12 UNL     1      -8.248 -21.941  18.477  1.00  0.00     0.160 A 
ENDROOT
BRANCH  11  15
HETATM   15  N4  UNL     1      -6.879 -23.392  21.474  1.00  0.00    -0.192 N 
ATOM     16  H4  UNL     1      -6.395 -24.289  21.532  1.00  0.00     0.180 HD
BRANCH  15  17
HETATM   17  C8  UNL     1      -6.885 -22.544  22.624  1.00  0.00     0.365 A 
HETATM   18  C9  UNL     1      -6.744 -23.003  23.989  1.00  0.00     0.332 A 
HETATM   19  N5  UNL     1      -5.647 -22.401  23.312  1.00  0.00     0.119 N 
BRANCH  19  20
HETATM   20  C10 UNL     1      -4.442 -23.033  22.975  1.00  0.00     0.302 C 
BRANCH  20  21
HETATM   21  C11 UNL     1      -3.454 -23.288  24.064  1.00  0.00     0.260 C 
BRANCH  21  22
HETATM   22  N6  UNL     1      -2.331 -22.361  23.838  1.00  0.00    -0.078 N 
ATOM     23  H63 UNL     1      -1.421 -22.822  23.838  1.00  0.00     0.274 HD
ATOM     24  H62 UNL     1      -2.290 -22.001  22.885  1.00  0.00     0.274 HD
ATOM     25  H61 UNL     1      -2.413 -21.628  24.543  1.00  0.00     0.274 HD
ENDBRANCH  21  22
ENDBRANCH  20  21
ENDBRANCH  19  20
ENDBRANCH  15  17
ENDBRANCH  11  15
BRANCH   1  26
HETATM   26  C3  UNL     1      -8.075 -19.730  17.567  1.00  0.00     0.162 C 
BRANCH  26  27
HETATM   27  C2  UNL     1      -6.892 -19.532  16.696  1.00  0.00    -0.017 C 
HETATM   28  C1  UNL     1      -5.779 -20.242  16.815  1.00  0.00     0.008 C 
ENDBRANCH  26  27
ENDBRANCH   1  26
TORSDOF 7
ENDMDL
MODEL 5
REMARK VINA RESULT: -5.721385873      3.445      5.725
REMARK  7 active torsions:
REMARK  status: ('A' for Active; 'I' for Inactive)
REMARK    1  A    between atoms: C2_2  and  C3_3 
REMARK    2  A    between atoms: C3_3  and  N1_4 
REMARK    3  A    between atoms: C7_14  and  N4_15 
REMARK    4  A    between atoms: N4_15  and  C8_17 
REMARK    5  A    between atoms: N5_19  and  C10_20 
REMARK    6  A    between atoms: C10_20  and  C11_21 
REMARK    7  A    between atoms: C11_21  and  N6_22 
ROOT
HETATM    1  N1  UNL     1      -8.631 -21.348  17.466  1.00  0.00    -0.279 N 
HETATM    2  C4  UNL     1      -9.445 -20.353  17.110  1.00  0.00     0.331 A 
HETATM    3  O1  UNL     1      -9.313 -19.166  17.517  1.00  0.00    -0.246 OA
HETATM    4  N2  UNL     1     -10.462 -20.628  16.273  1.00  0.00    -0.273 N 
ATOM      5  H2  UNL     1     -11.100 -19.885  15.985  1.00  0.00     0.173 HD
HETATM    6  C5  UNL     1     -10.639 -21.878  15.816  1.00  0.00     0.280 A 
HETATM    7  O2  UNL     1     -11.608 -22.125  15.024  1.00  0.00    -0.265 OA
HETATM    8  C6  UNL     1      -9.802 -22.912  16.180  1.00  0.00     0.162 A 
HETATM    9  N3  UNL     1      -9.727 -24.219  15.898  1.00  0.00    -0.182 N 
ATOM     10  H3  UNL     1     -10.369 -24.720  15.285  1.00  0.00     0.184 HD
HETATM   11  C7  UNL     1      -8.685 -24.774  16.538  1.00  0.00     0.682 A 
HETATM   12  N7  UNL     1      -8.114 -23.778  17.227  1.00  0.00    -0.174 N 
ATOM     13  H7  UNL     1      -7.291 -23.886  17.821  1.00  0.00     0.186 HD
HETATM   14  C12 UNL     1      -8.765 -22.619  17.036  1.00  0.00     0.160 A 
ENDROOT
BRANCH  11  15
HETATM   15  N4  UNL     1      -8.314 -26.145  16.464  1.00  0.00    -0.192 N 
ATOM     16  H4  UNL     1      -8.347 -26.705  17.315  1.00  0.00     0.180 HD
BRANCH  15  17
HETATM   17  C8  UNL     1      -7.899 -26.772  15.248  1.00  0.00     0.365 A 
HETATM   18  C9  UNL     1      -6.530 -27.100  14.914  1.00  0.00     0.332 A 
HETATM   19  N5  UNL     1      -7.429 -28.111  15.356  1.00  0.00     0.119 N 
BRANCH  19  20
HETATM   20  C10 UNL     1      -7.317 -28.850  16.542  1.00  0.00     0.302 C 
BRANCH  20  21
HETATM   21  C11 UNL     1      -6.019 -28.807  17.276  1.00  0.00     0.260 C 
BRANCH  21  22
HETATM   22  N6  UNL     1      -6.306 -28.239  18.605  1.00  0.00    -0.078 N 
ATOM     23  H63 UNL     1      -5.485 -28.186  19.207  1.00  0.00     0.274 HD
ATOM     24  H62 UNL     1      -6.511 -27.241  18.581  1.00  0.00     0.274 HD
ATOM     25  H61 UNL     1      -7.063 -28.797  19.002  1.00  0.00     0.274 HD
ENDBRANCH  21  22
ENDBRANCH  20  21
ENDBRANCH  19  20
ENDBRANCH  15  17
ENDBRANCH  11  15
BRANCH   1  26
HETATM   26  C3  UNL     1      -7.524 -21.061  18.372  1.00  0.00     0.162 C 
BRANCH  26  27
HETATM   27  C2  UNL     1      -6.235 -20.974  17.647  1.00  0.00    -0.017 C 
HETATM   28  C1  UNL     1      -5.981 -20.053  16.728  1.00  0.00     0.008 C 
ENDBRANCH  26  27
ENDBRANCH   1  26
TORSDOF 7
ENDMDL
