MODEL 1
REMARK VINA RESULT: -6.293168330      0.000      0.000
REMARK  7 active torsions:
REMARK  status: ('A' for Active; 'I' for Inactive)
REMARK    1  A    between atoms: N1_1  and  C1_4 
REMARK    2  A    between atoms: C3_8  and  C4_9 
REMARK    3  A    between atoms: C4_9  and  C5_10 
REMARK    4  A    between atoms: C5_10  and  C6_12 
REMARK    5  A    between atoms: C6_12  and  N3_13 
REMARK    6  A    between atoms: C8_15  and  C9_16 
REMARK    7  A    between atoms: C9_16  and  C10_17 
ROOT
HETATM    1  C5  UNL     1     -12.067 -22.448  14.735  1.00  0.00     0.150 C 
HETATM    2  O1  UNL     1     -11.469 -21.477  14.300  1.00  0.00    -0.296 OA
ENDROOT
BRANCH   1   3
HETATM    3  C4  UNL     1     -13.375 -22.781  14.127  1.00  0.00     0.125 C 
BRANCH   3   4
HETATM    4  C3  UNL     1     -14.458 -22.727  15.112  1.00  0.00     0.033 A 
HETATM    5  C2  UNL     1     -14.959 -21.517  15.575  1.00  0.00     0.119 A 
HETATM    6  N2  UNL     1     -15.951 -21.526  16.477  1.00  0.00    -0.201 N 
HETATM    7  C1  UNL     1     -16.507 -22.641  16.979  1.00  0.00     0.678 A 
ATOM      8  H2  UNL     1     -16.305 -20.627  16.804  1.00  0.00     0.183 HD
HETATM    9  N7  UNL     1     -16.032 -23.820  16.541  1.00  0.00    -0.156 N 
HETATM   10  C11 UNL     1     -15.038 -23.865  15.635  1.00  0.00     0.267 A 
ATOM     11  H7  UNL     1     -16.430 -24.689  16.899  1.00  0.00     0.187 HD
HETATM   12  O3  UNL     1     -14.580 -24.978  15.213  1.00  0.00    -0.267 OA
BRANCH   7  13
HETATM   13  N1  UNL     1     -17.471 -22.578  17.856  1.00  0.00    -0.234 N 
ATOM     14  H12 UNL     1     -17.462 -21.889  18.608  1.00  0.00     0.174 HD
ATOM     15  H11 UNL     1     -18.264 -23.218  17.815  1.00  0.00     0.174 HD
ENDBRANCH   7  13
ENDBRANCH   3   4
ENDBRANCH   1   3
BRANCH   1  16
HETATM   16  C6  UNL     1     -11.457 -23.232  15.836  1.00  0.00     0.228 C 
BRANCH  16  17
HETATM   17  N3  UNL     1     -10.510 -22.414  16.567  1.00  0.00    -0.280 N 
HETATM   18  C7  UNL     1      -9.183 -22.603  16.684  1.00  0.00     0.139 A 
HETATM   19  C8  UNL     1      -8.640 -21.587  17.474  1.00  0.00     0.052 A 
HETATM   20  N5  UNL     1      -9.703 -20.820  17.798  1.00  0.00    -0.289 N 
HETATM   21  N6  UNL     1     -10.789 -21.324  17.255  1.00  0.00    -0.240 N 
ATOM     22  H5  UNL     1      -9.668 -19.979  18.376  1.00  0.00     0.188 HD
ATOM     23  H6  UNL     1     -11.723 -20.926  17.352  1.00  0.00     0.208 HD
BRANCH  19  24
HETATM   24  C9  UNL     1      -7.220 -21.394  17.867  1.00  0.00     0.159 C 
BRANCH  24  25
HETATM   25  C10 UNL     1      -6.613 -20.231  17.191  1.00  0.00     0.236 C 
HETATM   26  N4  UNL     1      -7.339 -19.065  16.841  1.00  0.00    -0.062 NA
HETATM   27  O2  UNL     1      -5.388 -20.259  16.903  1.00  0.00    -0.277 OA
ENDBRANCH  24  25
ENDBRANCH  19  24
ENDBRANCH  16  17
ENDBRANCH   1  16
TORSDOF 7
ENDMDL
MODEL 2
REMARK VINA RESULT: -6.276270279      0.970      1.400
REMARK  7 active torsions:
REMARK  status: ('A' for Active; 'I' for Inactive)
REMARK    1  A    between atoms: N1_1  and  C1_4 
REMARK    2  A    between atoms: C3_8  and  C4_9 
REMARK    3  A    between atoms: C4_9  and  C5_10 
REMARK    4  A    between atoms: C5_10  and  C6_12 
REMARK    5  A    between atoms: C6_12  and  N3_13 
REMARK    6  A    between atoms: C8_15  and  C9_16 
REMARK    7  A    between atoms: C9_16  and  C10_17 
ROOT
HETATM    1  C5  UNL     1     -12.071 -22.515  14.692  1.00  0.00     0.150 C 
HETATM    2  O1  UNL     1     -11.509 -21.505  14.299  1.00  0.00    -0.296 OA
ENDROOT
BRANCH   1   3
HETATM    3  C4  UNL     1     -13.331 -22.907  14.021  1.00  0.00     0.125 C 
BRANCH   3   4
HETATM    4  C3  UNL     1     -14.448 -22.973  14.965  1.00  0.00     0.033 A 
HETATM    5  C2  UNL     1     -14.889 -24.183  15.486  1.00  0.00     0.119 A 
HETATM    6  N2  UNL     1     -15.917 -24.186  16.346  1.00  0.00    -0.201 N 
HETATM    7  C1  UNL     1     -16.567 -23.082  16.751  1.00  0.00     0.678 A 
ATOM      8  H2  UNL     1     -16.225 -25.084  16.718  1.00  0.00     0.183 HD
HETATM    9  N7  UNL     1     -16.153 -21.903  16.256  1.00  0.00    -0.156 N 
HETATM   10  C11 UNL     1     -15.125 -21.847  15.389  1.00  0.00     0.267 A 
ATOM     11  H7  UNL     1     -16.622 -21.043  16.540  1.00  0.00     0.187 HD
HETATM   12  O3  UNL     1     -14.724 -20.734  14.914  1.00  0.00    -0.267 OA
BRANCH   7  13
HETATM   13  N1  UNL     1     -17.561 -23.156  17.593  1.00  0.00    -0.234 N 
ATOM     14  H12 UNL     1     -18.413 -22.610  17.461  1.00  0.00     0.174 HD
ATOM     15  H11 UNL     1     -17.516 -23.764  18.410  1.00  0.00     0.174 HD
ENDBRANCH   7  13
ENDBRANCH   3   4
ENDBRANCH   1   3
BRANCH   1  16
HETATM   16  C6  UNL     1     -11.468 -23.285  15.807  1.00  0.00     0.228 C 
BRANCH  16  17
HETATM   17  N3  UNL     1     -10.491 -22.471  16.504  1.00  0.00    -0.280 N 
HETATM   18  C7  UNL     1      -9.164 -22.676  16.587  1.00  0.00     0.139 A 
HETATM   19  C8  UNL     1      -8.587 -21.660  17.352  1.00  0.00     0.052 A 
HETATM   20  N5  UNL     1      -9.631 -20.877  17.698  1.00  0.00    -0.289 N 
HETATM   21  N6  UNL     1     -10.737 -21.372  17.189  1.00  0.00    -0.240 N 
ATOM     22  H5  UNL     1      -9.570 -20.031  18.266  1.00  0.00     0.188 HD
ATOM     23  H6  UNL     1     -11.663 -20.961  17.309  1.00  0.00     0.208 HD
BRANCH  19  24
HETATM   24  C9  UNL     1      -7.154 -21.482  17.704  1.00  0.00     0.159 C 
BRANCH  24  25
HETATM   25  C10 UNL     1      -6.587 -20.257  17.106  1.00  0.00     0.236 C 
HETATM   26  N4  UNL     1      -7.351 -19.095  16.834  1.00  0.00    -0.062 NA
HETATM   27  O2  UNL     1      -5.362 -20.227  16.816  1.00  0.00    -0.277 OA
ENDBRANCH  24  25
ENDBRANCH  19  24
ENDBRANCH  16  17
ENDBRANCH   1  16
TORSDOF 7
ENDMDL
MODEL 3
REMARK VINA RESULT: -6.147415720      2.350      7.467
REMARK  7 active torsions:
REMARK  status: ('A' for Active; 'I' for Inactive)
REMARK    1  A    between atoms: N1_1  and  C1_4 
REMARK    2  A    between atoms: C3_8  and  C4_9 
REMARK    3  A    between atoms: C4_9  and  C5_10 
REMARK    4  A    between atoms: C5_10  and  C6_12 
REMARK    5  A    between atoms: C6_12  and  N3_13 
REMARK    6  A    between atoms: C8_15  and  C9_16 
REMARK    7  A    between atoms: C9_16  and  C10_17 
ROOT
HETATM    1  C5  UNL     1     -10.768 -21.733  19.133  1.00  0.00     0.150 C 
HETATM    2  O1  UNL     1     -11.904 -21.707  19.579  1.00  0.00    -0.296 OA
ENDROOT
BRANCH   1   3
HETATM    3  C4  UNL     1      -9.783 -20.788  19.703  1.00  0.00     0.125 C 
BRANCH   3   4
HETATM    4  C3  UNL     1      -8.610 -20.642  18.837  1.00  0.00     0.033 A 
HETATM    5  C2  UNL     1      -7.533 -21.515  18.920  1.00  0.00     0.119 A 
HETATM    6  N2  UNL     1      -6.485 -21.335  18.103  1.00  0.00    -0.201 N 
HETATM    7  C1  UNL     1      -6.397 -20.352  17.191  1.00  0.00     0.678 A 
ATOM      8  H2  UNL     1      -5.704 -21.986  18.180  1.00  0.00     0.183 HD
HETATM    9  N7  UNL     1      -7.432 -19.499  17.099  1.00  0.00    -0.156 N 
HETATM   10  C11 UNL     1      -8.507 -19.637  17.896  1.00  0.00     0.267 A 
ATOM     11  H7  UNL     1      -7.401 -18.740  16.418  1.00  0.00     0.187 HD
HETATM   12  O3  UNL     1      -9.494 -18.834  17.816  1.00  0.00    -0.267 OA
BRANCH   7  13
HETATM   13  N1  UNL     1      -5.346 -20.234  16.426  1.00  0.00    -0.234 N 
ATOM     14  H12 UNL     1      -5.195 -20.853  15.630  1.00  0.00     0.174 HD
ATOM     15  H11 UNL     1      -4.643 -19.518  16.604  1.00  0.00     0.174 HD
ENDBRANCH   7  13
ENDBRANCH   3   4
ENDBRANCH   1   3
BRANCH   1  16
HETATM   16  C6  UNL     1     -10.442 -22.701  18.057  1.00  0.00     0.228 C 
BRANCH  16  17
HETATM   17  N3  UNL     1     -11.093 -22.312  16.821  1.00  0.00    -0.280 N 
HETATM   18  C7  UNL     1     -11.987 -23.021  16.109  1.00  0.00     0.139 A 
HETATM   19  C8  UNL     1     -12.367 -22.285  14.984  1.00  0.00     0.052 A 
HETATM   20  N5  UNL     1     -11.658 -21.140  15.085  1.00  0.00    -0.289 N 
HETATM   21  N6  UNL     1     -10.918 -21.179  16.171  1.00  0.00    -0.240 N 
ATOM     22  H5  UNL     1     -11.692 -20.366  14.422  1.00  0.00     0.188 HD
ATOM     23  H6  UNL     1     -10.292 -20.431  16.471  1.00  0.00     0.208 HD
BRANCH  19  24
HETATM   24  C9  UNL     1     -13.330 -22.673  13.920  1.00  0.00     0.159 C 
BRANCH  24  25
HETATM   25  C10 UNL     1     -14.689 -22.166  14.194  1.00  0.00     0.236 C 
HETATM   26  N4  UNL     1     -15.867 -22.905  13.921  1.00  0.00    -0.062 NA
HETATM   27  O2  UNL     1     -14.826 -21.019  14.694  1.00  0.00    -0.277 OA
ENDBRANCH  24  25
ENDBRANCH  19  24
ENDBRANCH  16  17
ENDBRANCH   1  16
TORSDOF 7
ENDMDL
MODEL 4
REMARK VINA RESULT: -6.125023330      1.302      1.495
REMARK  7 active torsions:
REMARK  status: ('A' for Active; 'I' for Inactive)
REMARK    1  A    between atoms: N1_1  and  C1_4 
REMARK    2  A    between atoms: C3_8  and  C4_9 
REMARK    3  A    between atoms: C4_9  and  C5_10 
REMARK    4  A    between atoms: C5_10  and  C6_12 
REMARK    5  A    between atoms: C6_12  and  N3_13 
REMARK    6  A    between atoms: C8_15  and  C9_16 
REMARK    7  A    between atoms: C9_16  and  C10_17 
ROOT
HETATM    1  C5  UNL     1     -12.039 -21.653  14.959  1.00  0.00     0.150 C 
HETATM    2  O1  UNL     1     -11.161 -21.492  14.127  1.00  0.00    -0.296 OA
ENDROOT
BRANCH   1   3
HETATM    3  C4  UNL     1     -13.329 -20.960  14.743  1.00  0.00     0.125 C 
BRANCH   3   4
HETATM    4  C3  UNL     1     -14.461 -21.883  14.844  1.00  0.00     0.033 A 
HETATM    5  C2  UNL     1     -15.322 -21.859  15.934  1.00  0.00     0.119 A 
HETATM    6  N2  UNL     1     -16.343 -22.727  15.977  1.00  0.00    -0.201 N 
HETATM    7  C1  UNL     1     -16.601 -23.638  15.024  1.00  0.00     0.678 A 
ATOM      8  H2  UNL     1     -16.963 -22.693  16.785  1.00  0.00     0.183 HD
HETATM    9  N7  UNL     1     -15.777 -23.674  13.963  1.00  0.00    -0.156 N 
HETATM   10  C11 UNL     1     -14.737 -22.824  13.872  1.00  0.00     0.267 A 
ATOM     11  H7  UNL     1     -15.941 -24.353  13.219  1.00  0.00     0.187 HD
HETATM   12  O3  UNL     1     -13.950 -22.849  12.870  1.00  0.00    -0.267 OA
BRANCH   7  13
HETATM   13  N1  UNL     1     -17.614 -24.454  15.128  1.00  0.00    -0.234 N 
ATOM     14  H12 UNL     1     -18.516 -24.241  14.702  1.00  0.00     0.174 HD
ATOM     15  H11 UNL     1     -17.533 -25.332  15.640  1.00  0.00     0.174 HD
ENDBRANCH   7  13
ENDBRANCH   3   4
ENDBRANCH   1   3
BRANCH   1  16
HETATM   16  C6  UNL     1     -11.768 -22.524  16.129  1.00  0.00     0.228 C 
BRANCH  16  17
HETATM   17  N3  UNL     1     -10.633 -22.018  16.876  1.00  0.00    -0.280 N 
HETATM   18  C7  UNL     1      -9.328 -22.226  16.623  1.00  0.00     0.139 A 
HETATM   19  C8  UNL     1      -8.561 -21.562  17.583  1.00  0.00     0.052 A 
HETATM   20  N5  UNL     1      -9.475 -20.973  18.384  1.00  0.00    -0.289 N 
HETATM   21  N6  UNL     1     -10.683 -21.255  17.950  1.00  0.00    -0.240 N 
ATOM     22  H5  UNL     1      -9.261 -20.399  19.200  1.00  0.00     0.188 HD
ATOM     23  H6  UNL     1     -11.545 -20.927  18.385  1.00  0.00     0.208 HD
BRANCH  19  24
HETATM   24  C9  UNL     1      -7.080 -21.512  17.696  1.00  0.00     0.159 C 
BRANCH  24  25
HETATM   25  C10 UNL     1      -6.522 -20.273  17.118  1.00  0.00     0.236 C 
HETATM   26  N4  UNL     1      -7.283 -19.094  16.921  1.00  0.00    -0.062 NA
HETATM   27  O2  UNL     1      -5.311 -20.247  16.777  1.00  0.00    -0.277 OA
ENDBRANCH  24  25
ENDBRANCH  19  24
ENDBRANCH  16  17
ENDBRANCH   1  16
TORSDOF 7
ENDMDL
MODEL 5
REMARK VINA RESULT: -6.112021769      2.053      3.087
REMARK  7 active torsions:
REMARK  status: ('A' for Active; 'I' for Inactive)
REMARK    1  A    between atoms: N1_1  and  C1_4 
REMARK    2  A    between atoms: C3_8  and  C4_9 
REMARK    3  A    between atoms: C4_9  and  C5_10 
REMARK    4  A    between atoms: C5_10  and  C6_12 
REMARK    5  A    between atoms: C6_12  and  N3_13 
REMARK    6  A    between atoms: C8_15  and  C9_16 
REMARK    7  A    between atoms: C9_16  and  C10_17 
ROOT
HETATM    1  C5  UNL     1     -10.719 -24.928  17.059  1.00  0.00     0.150 C 
HETATM    2  O1  UNL     1     -10.791 -26.146  17.071  1.00  0.00    -0.296 OA
ENDROOT
BRANCH   1   3
HETATM    3  C4  UNL     1     -10.541 -24.262  15.749  1.00  0.00     0.125 C 
BRANCH   3   4
HETATM    4  C3  UNL     1     -11.690 -23.420  15.411  1.00  0.00     0.033 A 
HETATM    5  C2  UNL     1     -12.960 -23.957  15.243  1.00  0.00     0.119 A 
HETATM    6  N2  UNL     1     -13.977 -23.141  14.933  1.00  0.00    -0.201 N 
HETATM    7  C1  UNL     1     -13.858 -21.813  14.769  1.00  0.00     0.678 A 
ATOM      8  H2  UNL     1     -14.901 -23.555  14.815  1.00  0.00     0.183 HD
HETATM    9  N7  UNL     1     -12.635 -21.277  14.928  1.00  0.00    -0.156 N 
HETATM   10  C11 UNL     1     -11.581 -22.054  15.239  1.00  0.00     0.267 A 
ATOM     11  H7  UNL     1     -12.505 -20.272  14.811  1.00  0.00     0.187 HD
HETATM   12  O3  UNL     1     -10.417 -21.557  15.393  1.00  0.00    -0.267 OA
BRANCH   7  13
HETATM   13  N1  UNL     1     -14.891 -21.075  14.468  1.00  0.00    -0.234 N 
ATOM     14  H12 UNL     1     -15.572 -21.373  13.769  1.00  0.00     0.174 HD
ATOM     15  H11 UNL     1     -15.047 -20.176  14.922  1.00  0.00     0.174 HD
ENDBRANCH   7  13
ENDBRANCH   3   4
ENDBRANCH   1   3
BRANCH   1  16
HETATM   16  C6  UNL     1     -10.812 -24.191  18.343  1.00  0.00     0.228 C 
BRANCH  16  17
HETATM   17  N3  UNL     1      -9.911 -23.056  18.334  1.00  0.00    -0.280 N 
HETATM   18  C7  UNL     1      -8.575 -23.072  18.174  1.00  0.00     0.139 A 
HETATM   19  C8  UNL     1      -8.088 -21.764  18.230  1.00  0.00     0.052 A 
HETATM   20  N5  UNL     1      -9.192 -21.011  18.426  1.00  0.00    -0.289 N 
HETATM   21  N6  UNL     1     -10.249 -21.791  18.484  1.00  0.00    -0.240 N 
ATOM     22  H5  UNL     1      -9.203 -19.994  18.516  1.00  0.00     0.188 HD
ATOM     23  H6  UNL     1     -11.204 -21.460  18.626  1.00  0.00     0.208 HD
BRANCH  19  24
HETATM   24  C9  UNL     1      -6.680 -21.306  18.101  1.00  0.00     0.159 C 
BRANCH  24  25
HETATM   25  C10 UNL     1      -6.534 -20.250  17.080  1.00  0.00     0.236 C 
HETATM   26  N4  UNL     1      -7.413 -19.144  16.970  1.00  0.00    -0.062 NA
HETATM   27  O2  UNL     1      -5.584 -20.321  16.257  1.00  0.00    -0.277 OA
ENDBRANCH  24  25
ENDBRANCH  19  24
ENDBRANCH  16  17
ENDBRANCH   1  16
TORSDOF 7
ENDMDL
