MODEL 1
REMARK VINA RESULT: -4.370507608      0.000      0.000
REMARK  1 active torsions:
REMARK  status: ('A' for Active; 'I' for Inactive)
REMARK    1  A    between atoms: C3_4  and  N2_5 
REMARK       I    between atoms: N2_5  and  C4_7 
ROOT
HETATM    1  N2  UNL     1       5.152  -8.330  21.632  1.00  0.00    -0.357 N 
ATOM      2  H2  UNL     1       5.001  -8.768  20.724  1.00  0.00     0.162 HD
HETATM    3  C4  UNL     1       4.298  -7.268  21.988  1.00  0.00     0.182 C 
HETATM    4  N3  UNL     1       3.162  -7.551  22.506  1.00  0.00    -0.374 N 
ATOM      5  H31 UNL     1       2.543  -6.783  22.763  1.00  0.00     0.158 HD
ATOM      6  H32 UNL     1       2.897  -8.526  22.650  1.00  0.00     0.158 HD
HETATM    7  N4  UNL     1       4.662  -5.919  21.789  1.00  0.00    -0.064 NA
ENDROOT
BRANCH   1   8
HETATM    8  C3  UNL     1       6.215  -8.845  22.442  1.00  0.00     0.140 C 
HETATM    9  C2  UNL     1       6.622 -10.223  21.965  1.00  0.00     0.298 C 
HETATM   10  N1  UNL     1       6.739 -10.651  23.352  1.00  0.00     0.088 N 
HETATM   11  C1  UNL     1       8.063 -10.489  23.912  1.00  0.00     0.310 C 
HETATM   12  C5  UNL     1       5.806  -9.591  23.687  1.00  0.00     0.298 C 
ENDBRANCH   1   8
TORSDOF 1
ENDMDL
MODEL 2
REMARK VINA RESULT: -4.370052588      2.759      5.080
REMARK  1 active torsions:
REMARK  status: ('A' for Active; 'I' for Inactive)
REMARK    1  A    between atoms: C3_4  and  N2_5 
REMARK       I    between atoms: N2_5  and  C4_7 
ROOT
HETATM    1  N2  UNL     1       9.566 -10.256  23.255  1.00  0.00    -0.357 N 
ATOM      2  H2  UNL     1       9.654 -11.248  23.033  1.00  0.00     0.162 HD
HETATM    3  C4  UNL     1      10.758  -9.522  23.411  1.00  0.00     0.182 C 
HETATM    4  N3  UNL     1      11.328  -9.060  22.362  1.00  0.00    -0.374 N 
ATOM      5  H31 UNL     1      12.190  -8.528  22.475  1.00  0.00     0.158 HD
ATOM      6  H32 UNL     1      10.917  -9.229  21.444  1.00  0.00     0.158 HD
HETATM    7  N4  UNL     1      11.327  -9.287  24.681  1.00  0.00    -0.064 NA
ENDROOT
BRANCH   1   8
HETATM    8  C3  UNL     1       8.242  -9.725  23.381  1.00  0.00     0.140 C 
HETATM    9  C2  UNL     1       7.347 -10.707  24.106  1.00  0.00     0.298 C 
HETATM   10  N1  UNL     1       6.275 -10.393  23.171  1.00  0.00     0.088 N 
HETATM   11  C1  UNL     1       5.403  -9.324  23.609  1.00  0.00     0.310 C 
HETATM   12  C5  UNL     1       7.303  -9.989  22.231  1.00  0.00     0.298 C 
ENDBRANCH   1   8
TORSDOF 1
ENDMDL
MODEL 3
REMARK VINA RESULT: -4.306652808      2.029      3.425
REMARK  1 active torsions:
REMARK  status: ('A' for Active; 'I' for Inactive)
REMARK    1  A    between atoms: C3_4  and  N2_5 
REMARK       I    between atoms: N2_5  and  C4_7 
ROOT
HETATM    1  N2  UNL     1       7.271  -9.665  22.520  1.00  0.00    -0.357 N 
ATOM      2  H2  UNL     1       8.026 -10.120  23.035  1.00  0.00     0.162 HD
HETATM    3  C4  UNL     1       7.619  -8.964  21.349  1.00  0.00     0.182 C 
HETATM    4  N3  UNL     1       7.732  -9.625  20.258  1.00  0.00    -0.374 N 
ATOM      5  H31 UNL     1       7.984  -9.118  19.410  1.00  0.00     0.158 HD
ATOM      6  H32 UNL     1       7.572 -10.632  20.255  1.00  0.00     0.158 HD
HETATM    7  N4  UNL     1       7.840  -7.570  21.353  1.00  0.00    -0.064 NA
ENDROOT
BRANCH   1   8
HETATM    8  C3  UNL     1       5.946  -9.793  23.047  1.00  0.00     0.140 C 
HETATM    9  C2  UNL     1       5.098  -8.607  22.638  1.00  0.00     0.298 C 
HETATM   10  N1  UNL     1       4.520  -8.581  23.974  1.00  0.00     0.088 N 
HETATM   11  C1  UNL     1       3.308  -9.360  24.110  1.00  0.00     0.310 C 
HETATM   12  C5  UNL     1       5.723  -9.248  24.436  1.00  0.00     0.298 C 
ENDBRANCH   1   8
TORSDOF 1
ENDMDL
MODEL 4
REMARK VINA RESULT: -4.303822534      6.307      7.790
REMARK  1 active torsions:
REMARK  status: ('A' for Active; 'I' for Inactive)
REMARK    1  A    between atoms: C3_4  and  N2_5 
REMARK       I    between atoms: N2_5  and  C4_7 
ROOT
HETATM    1  N2  UNL     1      13.120  -9.720  21.986  1.00  0.00    -0.357 N 
ATOM      2  H2  UNL     1      13.600  -9.117  21.318  1.00  0.00     0.162 HD
HETATM    3  C4  UNL     1      12.085  -9.145  22.748  1.00  0.00     0.182 C 
HETATM    4  N3  UNL     1      10.916  -9.079  22.231  1.00  0.00    -0.374 N 
ATOM      5  H31 UNL     1      10.166  -8.663  22.782  1.00  0.00     0.158 HD
ATOM      6  H32 UNL     1      10.755  -9.438  21.290  1.00  0.00     0.158 HD
HETATM    7  N4  UNL     1      12.306  -8.649  24.051  1.00  0.00    -0.064 NA
ENDROOT
BRANCH   1   8
HETATM    8  C3  UNL     1      13.555 -11.082  22.071  1.00  0.00     0.140 C 
HETATM    9  C2  UNL     1      12.643 -11.871  22.987  1.00  0.00     0.298 C 
HETATM   10  N1  UNL     1      13.810 -12.542  23.543  1.00  0.00     0.088 N 
HETATM   11  C1  UNL     1      14.156 -13.778  22.875  1.00  0.00     0.310 C 
HETATM   12  C5  UNL     1      14.588 -11.390  23.125  1.00  0.00     0.298 C 
ENDBRANCH   1   8
TORSDOF 1
ENDMDL
MODEL 5
REMARK VINA RESULT: -4.269916752      7.105      8.467
REMARK  1 active torsions:
REMARK  status: ('A' for Active; 'I' for Inactive)
REMARK    1  A    between atoms: C3_4  and  N2_5 
REMARK       I    between atoms: N2_5  and  C4_7 
ROOT
HETATM    1  N2  UNL     1      14.094  -9.404  23.296  1.00  0.00    -0.357 N 
ATOM      2  H2  UNL     1      14.855  -8.740  23.153  1.00  0.00     0.162 HD
HETATM    3  C4  UNL     1      12.882  -9.151  22.624  1.00  0.00     0.182 C 
HETATM    4  N3  UNL     1      12.767  -9.544  21.411  1.00  0.00    -0.374 N 
ATOM      5  H31 UNL     1      11.890  -9.361  20.925  1.00  0.00     0.158 HD
ATOM      6  H32 UNL     1      13.543 -10.026  20.957  1.00  0.00     0.158 HD
HETATM    7  N4  UNL     1      11.808  -8.485  23.251  1.00  0.00    -0.064 NA
ENDROOT
BRANCH   1   8
HETATM    8  C3  UNL     1      14.346 -10.516  24.161  1.00  0.00     0.140 C 
HETATM    9  C2  UNL     1      15.171 -11.565  23.447  1.00  0.00     0.298 C 
HETATM   10  N1  UNL     1      14.345 -12.602  24.050  1.00  0.00     0.088 N 
HETATM   11  C1  UNL     1      14.854 -13.106  25.308  1.00  0.00     0.310 C 
HETATM   12  C5  UNL     1      13.300 -11.603  24.176  1.00  0.00     0.298 C 
ENDBRANCH   1   8
TORSDOF 1
ENDMDL
