MODEL 1
REMARK VINA RESULT: -4.335383747      0.000      0.000
REMARK  2 active torsions:
REMARK  status: ('A' for Active; 'I' for Inactive)
REMARK    1  A    between atoms: N2_4  and  C2_6 
REMARK    2  A    between atoms: C4_8  and  C5_9 
ROOT
HETATM    1  C2  UNL     1       6.754  -9.780  22.413  1.00  0.00     0.108 A 
HETATM    2  C3  UNL     1       6.602 -10.224  20.988  1.00  0.00     0.039 A 
HETATM    3  C4  UNL     1       6.941  -8.784  21.346  1.00  0.00     0.050 A 
ENDROOT
BRANCH   1   4
HETATM    4  N2  UNL     1       5.587  -9.869  23.202  1.00  0.00    -0.336 N 
HETATM    5  N1  UNL     1       4.818  -8.938  23.471  1.00  0.00    -0.345 N 
HETATM    6  C1  UNL     1       3.672  -9.173  24.283  1.00  0.00     0.167 C 
ATOM      7  H1  UNL     1       5.006  -8.002  23.111  1.00  0.00     0.179 HD
ATOM      8  H2  UNL     1       5.356 -10.786  23.585  1.00  0.00     0.180 HD
ENDBRANCH   1   4
BRANCH   3   9
HETATM    9  C5  UNL     1       8.322  -8.328  21.030  1.00  0.00     0.059 C 
HETATM   10  N3  UNL     1       9.275  -8.499  21.860  1.00  0.00    -0.411 N 
ATOM     11  H32 UNL     1       9.071  -8.956  22.749  1.00  0.00     0.155 HD
ATOM     12  H31 UNL     1      10.222  -8.186  21.644  1.00  0.00     0.155 HD
ENDBRANCH   3   9
TORSDOF 2
ENDMDL
MODEL 2
REMARK VINA RESULT: -4.204842752      3.686      5.135
REMARK  2 active torsions:
REMARK  status: ('A' for Active; 'I' for Inactive)
REMARK    1  A    between atoms: N2_4  and  C2_6 
REMARK    2  A    between atoms: C4_8  and  C5_9 
ROOT
HETATM    1  C2  UNL     1      11.105  -8.936  22.721  1.00  0.00     0.108 A 
HETATM    2  C3  UNL     1      11.398  -9.258  24.156  1.00  0.00     0.039 A 
HETATM    3  C4  UNL     1      11.784 -10.205  23.029  1.00  0.00     0.050 A 
ENDROOT
BRANCH   1   4
HETATM    4  N2  UNL     1       9.736  -8.844  22.389  1.00  0.00    -0.336 N 
HETATM    5  N1  UNL     1       9.276  -8.542  21.281  1.00  0.00    -0.345 N 
HETATM    6  C1  UNL     1       7.866  -8.486  21.086  1.00  0.00     0.167 C 
ATOM      7  H1  UNL     1       9.907  -8.333  20.506  1.00  0.00     0.179 HD
ATOM      8  H2  UNL     1       9.065  -9.044  23.130  1.00  0.00     0.180 HD
ENDBRANCH   1   4
BRANCH   3   9
HETATM    9  C5  UNL     1      13.238 -10.325  22.732  1.00  0.00     0.059 C 
HETATM   10  N3  UNL     1      13.656 -11.083  21.795  1.00  0.00    -0.411 N 
ATOM     11  H32 UNL     1      12.971 -11.608  21.251  1.00  0.00     0.155 HD
ATOM     12  H31 UNL     1      14.652 -11.166  21.592  1.00  0.00     0.155 HD
ENDBRANCH   3   9
TORSDOF 2
ENDMDL
MODEL 3
REMARK VINA RESULT: -4.139221993      1.740      4.041
REMARK  2 active torsions:
REMARK  status: ('A' for Active; 'I' for Inactive)
REMARK    1  A    between atoms: N2_4  and  C2_6 
REMARK    2  A    between atoms: C4_8  and  C5_9 
ROOT
HETATM    1  C2  UNL     1       7.514  -8.969  21.381  1.00  0.00     0.108 A 
HETATM    2  C3  UNL     1       6.588 -10.113  21.092  1.00  0.00     0.039 A 
HETATM    3  C4  UNL     1       6.209  -9.003  22.062  1.00  0.00     0.050 A 
ENDROOT
BRANCH   1   4
HETATM    4  N2  UNL     1       8.730  -9.319  22.007  1.00  0.00    -0.336 N 
HETATM    5  N1  UNL     1       9.696  -8.568  22.188  1.00  0.00    -0.345 N 
HETATM    6  C1  UNL     1      10.867  -9.056  22.837  1.00  0.00     0.167 C 
ATOM      7  H1  UNL     1       9.654  -7.598  21.873  1.00  0.00     0.179 HD
ATOM      8  H2  UNL     1       8.821 -10.278  22.341  1.00  0.00     0.180 HD
ENDBRANCH   1   4
BRANCH   3   9
HETATM    9  C5  UNL     1       5.147  -8.062  21.611  1.00  0.00     0.059 C 
HETATM   10  N3  UNL     1       4.335  -7.541  22.445  1.00  0.00    -0.411 N 
ATOM     11  H32 UNL     1       4.428  -7.784  23.432  1.00  0.00     0.155 HD
ATOM     12  H31 UNL     1       3.606  -6.897  22.136  1.00  0.00     0.155 HD
ENDBRANCH   3   9
TORSDOF 2
ENDMDL
MODEL 4
REMARK VINA RESULT: -4.098714976      1.370      4.143
REMARK  2 active torsions:
REMARK  status: ('A' for Active; 'I' for Inactive)
REMARK    1  A    between atoms: N2_4  and  C2_6 
REMARK    2  A    between atoms: C4_8  and  C5_9 
ROOT
HETATM    1  C2  UNL     1       7.510  -8.884  21.667  1.00  0.00     0.108 A 
HETATM    2  C3  UNL     1       6.858 -10.083  21.045  1.00  0.00     0.039 A 
HETATM    3  C4  UNL     1       6.695  -9.761  22.524  1.00  0.00     0.050 A 
ENDROOT
BRANCH   1   4
HETATM    4  N2  UNL     1       8.922  -8.892  21.660  1.00  0.00    -0.336 N 
HETATM    5  N1  UNL     1       9.653  -8.935  22.657  1.00  0.00    -0.345 N 
HETATM    6  C1  UNL     1      11.069  -8.937  22.502  1.00  0.00     0.167 C 
ATOM      7  H1  UNL     1       9.242  -8.970  23.590  1.00  0.00     0.179 HD
ATOM      8  H2  UNL     1       9.381  -8.859  20.750  1.00  0.00     0.180 HD
ENDBRANCH   1   4
BRANCH   3   9
HETATM    9  C5  UNL     1       5.352  -9.286  22.957  1.00  0.00     0.059 C 
HETATM   10  N3  UNL     1       5.111  -9.026  24.181  1.00  0.00    -0.411 N 
ATOM     11  H32 UNL     1       5.860  -9.151  24.862  1.00  0.00     0.155 HD
ATOM     12  H31 UNL     1       4.191  -8.701  24.477  1.00  0.00     0.155 HD
ENDBRANCH   3   9
TORSDOF 2
ENDMDL
MODEL 5
REMARK VINA RESULT: -4.086944257      4.001      5.382
REMARK  2 active torsions:
REMARK  status: ('A' for Active; 'I' for Inactive)
REMARK    1  A    between atoms: N2_4  and  C2_6 
REMARK    2  A    between atoms: C4_8  and  C5_9 
ROOT
HETATM    1  C2  UNL     1      11.294  -9.262  23.117  1.00  0.00     0.108 A 
HETATM    2  C3  UNL     1      11.006 -10.620  23.684  1.00  0.00     0.039 A 
HETATM    3  C4  UNL     1      12.303 -10.319  22.947  1.00  0.00     0.050 A 
ENDROOT
BRANCH   1   4
HETATM    4  N2  UNL     1      10.425  -8.839  22.088  1.00  0.00    -0.336 N 
HETATM    5  N1  UNL     1       9.194  -8.742  22.170  1.00  0.00    -0.345 N 
HETATM    6  C1  UNL     1       8.438  -8.301  21.048  1.00  0.00     0.167 C 
ATOM      7  H1  UNL     1       8.722  -8.977  23.044  1.00  0.00     0.179 HD
ATOM      8  H2  UNL     1      10.850  -8.592  21.195  1.00  0.00     0.180 HD
ENDBRANCH   1   4
BRANCH   3   9
HETATM    9  C5  UNL     1      13.540 -10.263  23.774  1.00  0.00     0.059 C 
HETATM   10  N3  UNL     1      14.501  -9.483  23.467  1.00  0.00    -0.411 N 
ATOM     11  H32 UNL     1      14.405  -8.896  22.639  1.00  0.00     0.155 HD
ATOM     12  H31 UNL     1      15.348  -9.445  24.034  1.00  0.00     0.155 HD
ENDBRANCH   3   9
TORSDOF 2
ENDMDL
