MODEL 1
REMARK VINA RESULT: -3.697346851      0.000      0.000
REMARK  1 active torsions:
REMARK  status: ('A' for Active; 'I' for Inactive)
REMARK    1  A    between atoms: C1_2  and  N1_3 
ROOT
HETATM    1  N1  UNL     1      30.807   4.494  28.264  1.00  0.00    -0.272 NA
HETATM    2  C2  UNL     1      30.023   5.176  29.159  1.00  0.00     0.082 A 
HETATM    3  C3  UNL     1      29.103   6.353  28.907  1.00  0.00     0.023 C 
HETATM    4  C4  UNL     1      30.491   7.023  28.765  1.00  0.00     0.023 C 
HETATM    5  C5  UNL     1      30.679   5.807  27.885  1.00  0.00     0.082 A 
ENDROOT
BRANCH   1   6
HETATM    6  C1  UNL     1      32.154   4.070  28.594  1.00  0.00     0.142 C 
HETATM    7  S1  UNL     1      33.296   4.578  27.942  1.00  0.00    -0.080 SA
ENDBRANCH   1   6
TORSDOF 1
ENDMDL
MODEL 2
REMARK VINA RESULT: -3.648184196      1.369      1.906
REMARK  1 active torsions:
REMARK  status: ('A' for Active; 'I' for Inactive)
REMARK    1  A    between atoms: C1_2  and  N1_3 
ROOT
HETATM    1  N1  UNL     1      31.443   6.496  28.447  1.00  0.00    -0.272 NA
HETATM    2  C2  UNL     1      30.768   7.148  27.446  1.00  0.00     0.082 A 
HETATM    3  C3  UNL     1      29.851   8.350  27.551  1.00  0.00     0.023 C 
HETATM    4  C4  UNL     1      28.970   7.247  28.183  1.00  0.00     0.023 C 
HETATM    5  C5  UNL     1      30.269   7.024  28.926  1.00  0.00     0.082 A 
ENDROOT
BRANCH   1   6
HETATM    6  C1  UNL     1      31.538   5.050  28.488  1.00  0.00     0.142 C 
HETATM    7  S1  UNL     1      32.714   4.352  28.146  1.00  0.00    -0.080 SA
ENDBRANCH   1   6
TORSDOF 1
ENDMDL
MODEL 3
REMARK VINA RESULT: -3.571459241      2.396      2.925
REMARK  1 active torsions:
REMARK  status: ('A' for Active; 'I' for Inactive)
REMARK    1  A    between atoms: C1_2  and  N1_3 
ROOT
HETATM    1  N1  UNL     1      31.166   7.105  28.617  1.00  0.00    -0.272 NA
HETATM    2  C2  UNL     1      29.924   6.666  28.999  1.00  0.00     0.082 A 
HETATM    3  C3  UNL     1      29.543   5.347  29.639  1.00  0.00     0.023 C 
HETATM    4  C4  UNL     1      29.868   4.894  28.196  1.00  0.00     0.023 C 
HETATM    5  C5  UNL     1      31.085   5.739  28.503  1.00  0.00     0.082 A 
ENDROOT
BRANCH   1   6
HETATM    6  C1  UNL     1      31.374   7.822  27.373  1.00  0.00     0.142 C 
HETATM    7  S1  UNL     1      30.473   8.793  26.892  1.00  0.00    -0.080 SA
ENDBRANCH   1   6
TORSDOF 1
ENDMDL
MODEL 4
REMARK VINA RESULT: -3.534562572      0.925      1.009
REMARK  1 active torsions:
REMARK  status: ('A' for Active; 'I' for Inactive)
REMARK    1  A    between atoms: C1_2  and  N1_3 
ROOT
HETATM    1  N1  UNL     1      30.533   5.419  27.851  1.00  0.00    -0.272 NA
HETATM    2  C2  UNL     1      29.533   6.111  28.487  1.00  0.00     0.082 A 
HETATM    3  C3  UNL     1      29.022   7.509  28.204  1.00  0.00     0.023 C 
HETATM    4  C4  UNL     1      30.398   7.817  28.842  1.00  0.00     0.023 C 
HETATM    5  C5  UNL     1      30.792   6.767  27.826  1.00  0.00     0.082 A 
ENDROOT
BRANCH   1   6
HETATM    6  C1  UNL     1      31.491   4.615  28.585  1.00  0.00     0.142 C 
HETATM    7  S1  UNL     1      32.807   4.394  28.131  1.00  0.00    -0.080 SA
ENDBRANCH   1   6
TORSDOF 1
ENDMDL
MODEL 5
REMARK VINA RESULT: -3.503197683      1.266      1.848
REMARK  1 active torsions:
REMARK  status: ('A' for Active; 'I' for Inactive)
REMARK    1  A    between atoms: C1_2  and  N1_3 
ROOT
HETATM    1  N1  UNL     1      31.104   6.366  28.856  1.00  0.00    -0.272 NA
HETATM    2  C2  UNL     1      30.644   7.651  28.718  1.00  0.00     0.082 A 
HETATM    3  C3  UNL     1      29.391   8.274  29.297  1.00  0.00     0.023 C 
HETATM    4  C4  UNL     1      28.790   7.353  28.208  1.00  0.00     0.023 C 
HETATM    5  C5  UNL     1      29.732   6.390  28.898  1.00  0.00     0.082 A 
ENDROOT
BRANCH   1   6
HETATM    6  C1  UNL     1      31.680   5.636  27.743  1.00  0.00     0.142 C 
HETATM    7  S1  UNL     1      32.698   4.674  27.905  1.00  0.00    -0.080 SA
ENDBRANCH   1   6
TORSDOF 1
ENDMDL
