MODEL 1
REMARK VINA RESULT: -4.058979845      0.000      0.000
REMARK  2 active torsions:
REMARK  status: ('A' for Active; 'I' for Inactive)
REMARK    1  A    between atoms: N1_6  and  C7_8 
REMARK    2  A    between atoms: C7_8  and  O1_9 
ROOT
HETATM    1  C1  UNL     1      31.671   4.913  28.244  1.00  0.00     0.014 C 
HETATM    2  C2  UNL     1      31.413   6.082  28.249  1.00  0.00    -0.084 C 
HETATM    3  C3  UNL     1      31.114   7.495  28.235  1.00  0.00     0.271 C 
HETATM    4  C4  UNL     1      30.854   8.044  26.826  1.00  0.00     0.074 C 
HETATM    5  C5  UNL     1      29.927   8.978  27.601  1.00  0.00     0.244 C 
HETATM    6  N1  UNL     1      29.790   7.895  28.579  1.00  0.00    -0.036 N 
HETATM    7  C6  UNL     1      28.723   6.983  28.237  1.00  0.00     0.276 C 
ENDROOT
BRANCH   6   8
HETATM    8  C7  UNL     1      29.582   8.355  29.938  1.00  0.00     0.402 C 
BRANCH   8   9
HETATM    9  O1  UNL     1      28.425   7.867  30.508  1.00  0.00    -0.374 OA
ATOM     10  H1  UNL     1      28.381   6.918  30.511  1.00  0.00     0.211 HD
ENDBRANCH   8   9
ENDBRANCH   6   8
TORSDOF 2
ENDMDL
MODEL 2
REMARK VINA RESULT: -3.989831332      1.102      1.102
REMARK  2 active torsions:
REMARK  status: ('A' for Active; 'I' for Inactive)
REMARK    1  A    between atoms: N1_6  and  C7_8 
REMARK    2  A    between atoms: C7_8  and  O1_9 
ROOT
HETATM    1  C1  UNL     1      29.823   4.948  28.406  1.00  0.00     0.014 C 
HETATM    2  C2  UNL     1      30.154   6.078  28.624  1.00  0.00    -0.084 C 
HETATM    3  C3  UNL     1      30.571   7.438  28.870  1.00  0.00     0.271 C 
HETATM    4  C4  UNL     1      31.022   8.172  27.600  1.00  0.00     0.074 C 
HETATM    5  C5  UNL     1      30.462   9.372  28.361  1.00  0.00     0.244 C 
HETATM    6  N1  UNL     1      29.555   8.426  29.019  1.00  0.00    -0.036 N 
HETATM    7  C6  UNL     1      28.337   8.227  28.268  1.00  0.00     0.276 C 
ENDROOT
BRANCH   6   8
HETATM    8  C7  UNL     1      29.204   8.798  30.375  1.00  0.00     0.402 C 
BRANCH   8   9
HETATM    9  O1  UNL     1      27.914   8.452  30.718  1.00  0.00    -0.374 OA
ATOM     10  H1  UNL     1      27.738   7.523  30.627  1.00  0.00     0.211 HD
ENDBRANCH   8   9
ENDBRANCH   6   8
TORSDOF 2
ENDMDL
MODEL 3
REMARK VINA RESULT: -3.784514271      2.028      3.507
REMARK  2 active torsions:
REMARK  status: ('A' for Active; 'I' for Inactive)
REMARK    1  A    between atoms: N1_6  and  C7_8 
REMARK    2  A    between atoms: C7_8  and  O1_9 
ROOT
HETATM    1  C1  UNL     1      31.140  10.347  30.739  1.00  0.00     0.014 C 
HETATM    2  C2  UNL     1      30.557   9.419  30.256  1.00  0.00    -0.084 C 
HETATM    3  C3  UNL     1      29.835   8.309  29.681  1.00  0.00     0.271 C 
HETATM    4  C4  UNL     1      28.490   8.717  29.062  1.00  0.00     0.074 C 
HETATM    5  C5  UNL     1      28.822   7.558  28.125  1.00  0.00     0.244 C 
HETATM    6  N1  UNL     1      30.233   7.855  28.390  1.00  0.00    -0.036 N 
HETATM    7  C6  UNL     1      30.760   8.849  27.484  1.00  0.00     0.276 C 
ENDROOT
BRANCH   6   8
HETATM    8  C7  UNL     1      31.095   6.691  28.347  1.00  0.00     0.402 C 
BRANCH   8   9
HETATM    9  O1  UNL     1      32.280   6.916  27.679  1.00  0.00    -0.374 OA
ATOM     10  H1  UNL     1      32.885   7.466  28.163  1.00  0.00     0.211 HD
ENDBRANCH   8   9
ENDBRANCH   6   8
TORSDOF 2
ENDMDL
MODEL 4
REMARK VINA RESULT: -3.729441744      1.155      3.085
REMARK  2 active torsions:
REMARK  status: ('A' for Active; 'I' for Inactive)
REMARK    1  A    between atoms: N1_6  and  C7_8 
REMARK    2  A    between atoms: C7_8  and  O1_9 
ROOT
HETATM    1  C1  UNL     1      28.575  10.852  27.352  1.00  0.00     0.014 C 
HETATM    2  C2  UNL     1      29.067   9.763  27.437  1.00  0.00    -0.084 C 
HETATM    3  C3  UNL     1      29.672   8.454  27.519  1.00  0.00     0.271 C 
HETATM    4  C4  UNL     1      31.137   8.435  27.059  1.00  0.00     0.074 C 
HETATM    5  C5  UNL     1      31.219   7.327  28.107  1.00  0.00     0.244 C 
HETATM    6  N1  UNL     1      30.121   8.010  28.796  1.00  0.00    -0.036 N 
HETATM    7  C6  UNL     1      30.597   9.024  29.709  1.00  0.00     0.276 C 
ENDROOT
BRANCH   6   8
HETATM    8  C7  UNL     1      29.238   7.117  29.521  1.00  0.00     0.402 C 
BRANCH   8   9
HETATM    9  O1  UNL     1      28.501   7.755  30.497  1.00  0.00    -0.374 OA
ATOM     10  H1  UNL     1      28.994   8.419  30.965  1.00  0.00     0.211 HD
ENDBRANCH   8   9
ENDBRANCH   6   8
TORSDOF 2
ENDMDL
MODEL 5
REMARK VINA RESULT: -3.727016473      2.288      2.919
REMARK  2 active torsions:
REMARK  status: ('A' for Active; 'I' for Inactive)
REMARK    1  A    between atoms: N1_6  and  C7_8 
REMARK    2  A    between atoms: C7_8  and  O1_9 
ROOT
HETATM    1  C1  UNL     1      29.526   5.606  29.627  1.00  0.00     0.014 C 
HETATM    2  C2  UNL     1      29.329   6.503  28.859  1.00  0.00    -0.084 C 
HETATM    3  C3  UNL     1      29.069   7.585  27.939  1.00  0.00     0.271 C 
HETATM    4  C4  UNL     1      28.069   8.615  28.483  1.00  0.00     0.074 C 
HETATM    5  C5  UNL     1      28.914   9.557  27.629  1.00  0.00     0.244 C 
HETATM    6  N1  UNL     1      30.029   8.635  27.861  1.00  0.00    -0.036 N 
HETATM    7  C6  UNL     1      30.752   8.948  29.072  1.00  0.00     0.276 C 
ENDROOT
BRANCH   6   8
HETATM    8  C7  UNL     1      30.975   8.571  26.765  1.00  0.00     0.402 C 
BRANCH   8   9
HETATM    9  O1  UNL     1      32.290   8.549  27.180  1.00  0.00    -0.374 OA
ATOM     10  H1  UNL     1      32.532   7.740  27.615  1.00  0.00     0.211 HD
ENDBRANCH   8   9
ENDBRANCH   6   8
TORSDOF 2
ENDMDL
