MODEL 1
REMARK VINA RESULT: -4.294743710      0.000      0.000
REMARK  1 active torsions:
REMARK  status: ('A' for Active; 'I' for Inactive)
REMARK    1  A    between atoms: N2_6  and  C5_7 
ROOT
HETATM    1  C1  UNL     1      29.995   8.039  29.737  1.00  0.00     0.273 C 
HETATM    2  N1  UNL     1      30.057   7.562  28.375  1.00  0.00    -0.062 N 
HETATM    3  C2  UNL     1      29.567   8.664  27.532  1.00  0.00     0.273 C 
HETATM    4  C3  UNL     1      31.382   7.209  27.951  1.00  0.00     0.252 C 
HETATM    5  C4  UNL     1      31.318   5.743  27.566  1.00  0.00     0.126 C 
HETATM    6  N2  UNL     1      30.084   5.247  28.135  1.00  0.00    -0.254 NA
HETATM    7  C6  UNL     1      29.247   6.401  28.179  1.00  0.00     0.334 C 
ENDROOT
BRANCH   6   8
HETATM    8  C5  UNL     1      30.300   4.619  29.368  1.00  0.00     0.145 C 
HETATM    9  N3  UNL     1      31.216   3.764  29.519  1.00  0.00    -0.399 N 
ATOM     10  H32 UNL     1      31.802   3.538  28.716  1.00  0.00     0.156 HD
ATOM     11  H31 UNL     1      31.374   3.307  30.416  1.00  0.00     0.156 HD
ENDBRANCH   6   8
TORSDOF 1
ENDMDL
MODEL 2
REMARK VINA RESULT: -4.201539619      1.483      1.759
REMARK  1 active torsions:
REMARK  status: ('A' for Active; 'I' for Inactive)
REMARK    1  A    between atoms: N2_6  and  C5_7 
ROOT
HETATM    1  C1  UNL     1      29.321   5.723  29.892  1.00  0.00     0.273 C 
HETATM    2  N1  UNL     1      29.683   6.369  28.651  1.00  0.00    -0.062 N 
HETATM    3  C2  UNL     1      28.487   7.103  28.208  1.00  0.00     0.273 C 
HETATM    4  C3  UNL     1      30.772   7.295  28.782  1.00  0.00     0.252 C 
HETATM    5  C4  UNL     1      31.860   6.791  27.854  1.00  0.00     0.126 C 
HETATM    6  N2  UNL     1      31.495   5.428  27.534  1.00  0.00    -0.254 NA
HETATM    7  C6  UNL     1      30.073   5.425  27.652  1.00  0.00     0.334 C 
ENDROOT
BRANCH   6   8
HETATM    8  C5  UNL     1      32.164   4.509  28.352  1.00  0.00     0.145 C 
HETATM    9  N3  UNL     1      32.682   3.461  27.876  1.00  0.00    -0.399 N 
ATOM     10  H32 UNL     1      32.602   3.296  26.873  1.00  0.00     0.156 HD
ATOM     11  H31 UNL     1      33.169   2.792  28.471  1.00  0.00     0.156 HD
ENDBRANCH   6   8
TORSDOF 1
ENDMDL
MODEL 3
REMARK VINA RESULT: -4.176369677      1.331      2.368
REMARK  1 active torsions:
REMARK  status: ('A' for Active; 'I' for Inactive)
REMARK    1  A    between atoms: N2_6  and  C5_7 
ROOT
HETATM    1  C1  UNL     1      28.950   8.280  27.747  1.00  0.00     0.273 C 
HETATM    2  N1  UNL     1      29.448   7.641  28.944  1.00  0.00    -0.062 N 
HETATM    3  C2  UNL     1      28.949   8.443  30.073  1.00  0.00     0.273 C 
HETATM    4  C3  UNL     1      28.996   6.287  29.102  1.00  0.00     0.252 C 
HETATM    5  C4  UNL     1      30.248   5.434  29.145  1.00  0.00     0.126 C 
HETATM    6  N2  UNL     1      31.309   6.277  28.641  1.00  0.00    -0.254 NA
HETATM    7  C6  UNL     1      30.875   7.596  28.971  1.00  0.00     0.334 C 
ENDROOT
BRANCH   6   8
HETATM    8  C5  UNL     1      31.546   6.050  27.279  1.00  0.00     0.145 C 
HETATM    9  N3  UNL     1      32.452   5.263  26.892  1.00  0.00    -0.399 N 
ATOM     10  H32 UNL     1      33.015   4.789  27.599  1.00  0.00     0.156 HD
ATOM     11  H31 UNL     1      32.625   5.097  25.901  1.00  0.00     0.156 HD
ENDBRANCH   6   8
TORSDOF 1
ENDMDL
MODEL 4
REMARK VINA RESULT: -4.023928090      1.263      2.119
REMARK  1 active torsions:
REMARK  status: ('A' for Active; 'I' for Inactive)
REMARK    1  A    between atoms: N2_6  and  C5_7 
ROOT
HETATM    1  C1  UNL     1      30.139   8.756  26.877  1.00  0.00     0.273 C 
HETATM    2  N1  UNL     1      29.711   8.331  28.191  1.00  0.00    -0.062 N 
HETATM    3  C2  UNL     1      29.178   9.531  28.855  1.00  0.00     0.273 C 
HETATM    4  C3  UNL     1      28.688   7.324  28.163  1.00  0.00     0.252 C 
HETATM    5  C4  UNL     1      29.266   6.126  28.892  1.00  0.00     0.126 C 
HETATM    6  N2  UNL     1      30.690   6.367  28.965  1.00  0.00    -0.254 NA
HETATM    7  C6  UNL     1      30.791   7.790  28.954  1.00  0.00     0.334 C 
ENDROOT
BRANCH   6   8
HETATM    8  C5  UNL     1      31.378   5.712  27.937  1.00  0.00     0.145 C 
HETATM    9  N3  UNL     1      31.413   4.452  27.868  1.00  0.00    -0.399 N 
ATOM     10  H32 UNL     1      30.924   3.916  28.584  1.00  0.00     0.156 HD
ATOM     11  H31 UNL     1      31.914   3.975  27.119  1.00  0.00     0.156 HD
ENDBRANCH   6   8
TORSDOF 1
ENDMDL
MODEL 5
REMARK VINA RESULT: -3.973972166      1.228      1.343
REMARK  1 active torsions:
REMARK  status: ('A' for Active; 'I' for Inactive)
REMARK    1  A    between atoms: N2_6  and  C5_7 
ROOT
HETATM    1  C1  UNL     1      30.519   8.717  29.292  1.00  0.00     0.273 C 
HETATM    2  N1  UNL     1      30.503   8.009  28.032  1.00  0.00    -0.062 N 
HETATM    3  C2  UNL     1      30.503   9.041  26.983  1.00  0.00     0.273 C 
HETATM    4  C3  UNL     1      31.639   7.153  27.841  1.00  0.00     0.252 C 
HETATM    5  C4  UNL     1      31.081   5.754  27.666  1.00  0.00     0.126 C 
HETATM    6  N2  UNL     1      29.714   5.822  28.134  1.00  0.00    -0.254 NA
HETATM    7  C6  UNL     1      29.346   7.181  27.902  1.00  0.00     0.334 C 
ENDROOT
BRANCH   6   8
HETATM    8  C5  UNL     1      29.601   5.392  29.462  1.00  0.00     0.145 C 
HETATM    9  N3  UNL     1      28.629   5.742  30.186  1.00  0.00    -0.399 N 
ATOM     10  H32 UNL     1      27.918   6.351  29.780  1.00  0.00     0.156 HD
ATOM     11  H31 UNL     1      28.546   5.429  31.153  1.00  0.00     0.156 HD
ENDBRANCH   6   8
TORSDOF 1
ENDMDL
