MODEL 1
REMARK VINA RESULT: -6.056081834      0.000      0.000
REMARK  5 active torsions:
REMARK  status: ('A' for Active; 'I' for Inactive)
REMARK    1  A    between atoms: O1_1  and  C1_3 
REMARK    2  A    between atoms: C1_3  and  C2_4 
REMARK    3  A    between atoms: C4_9  and  O2_10 
REMARK    4  A    between atoms: C5_12  and  O3_13 
REMARK    5  A    between atoms: C6_15  and  O4_16 
ROOT
HETATM    1  C2  UNL     1      31.552   5.261  28.073  1.00  0.00     0.132 C 
HETATM    2  N1  UNL     1      31.673   6.501  27.385  1.00  0.00    -0.397 N 
ATOM      3  H1  UNL     1      32.476   6.702  26.789  1.00  0.00     0.155 HD
HETATM    4  C3  UNL     1      30.626   7.446  27.565  1.00  0.00     0.181 C 
HETATM    5 BR1  UNL     1      31.320   9.193  27.085  1.00  0.00    -0.066 Br
HETATM    6  C4  UNL     1      30.116   7.559  28.977  1.00  0.00     0.182 C 
HETATM    7  C5  UNL     1      29.700   6.153  29.405  1.00  0.00     0.180 C 
HETATM    8  C6  UNL     1      30.962   5.355  29.445  1.00  0.00     0.173 C 
ENDROOT
BRANCH   1   9
HETATM    9  C1  UNL     1      32.932   4.646  28.190  1.00  0.00     0.191 C 
BRANCH   9  10
HETATM   10  O1  UNL     1      32.911   3.274  28.009  1.00  0.00    -0.399 OA
ATOM     11  H1  UNL     1      33.784   2.912  27.912  1.00  0.00     0.209 HD
ENDBRANCH   9  10
ENDBRANCH   1   9
BRANCH   8  12
HETATM   12  O4  UNL     1      30.736   4.034  29.885  1.00  0.00    -0.391 OA
ATOM     13  H4  UNL     1      30.039   4.073  30.530  1.00  0.00     0.210 HD
ENDBRANCH   8  12
BRANCH   7  14
HETATM   14  O3  UNL     1      28.792   5.705  28.455  1.00  0.00    -0.390 OA
ATOM     15  H3  UNL     1      28.412   4.906  28.800  1.00  0.00     0.210 HD
ENDBRANCH   7  14
BRANCH   6  16
HETATM   16  O2  UNL     1      31.108   8.072  29.782  1.00  0.00    -0.390 OA
ATOM     17  H2  UNL     1      30.765   8.809  30.275  1.00  0.00     0.210 HD
ENDBRANCH   6  16
TORSDOF 5
ENDMDL
MODEL 2
REMARK VINA RESULT: -5.536249248      1.800      2.315
REMARK  5 active torsions:
REMARK  status: ('A' for Active; 'I' for Inactive)
REMARK    1  A    between atoms: O1_1  and  C1_3 
REMARK    2  A    between atoms: C1_3  and  C2_4 
REMARK    3  A    between atoms: C4_9  and  O2_10 
REMARK    4  A    between atoms: C5_12  and  O3_13 
REMARK    5  A    between atoms: C6_15  and  O4_16 
ROOT
HETATM    1  C2  UNL     1      29.654   6.619  28.488  1.00  0.00     0.132 C 
HETATM    2  N1  UNL     1      30.328   7.615  27.728  1.00  0.00    -0.397 N 
ATOM      3  H1  UNL     1      30.958   7.367  26.965  1.00  0.00     0.155 HD
HETATM    4  C3  UNL     1      30.085   8.971  28.079  1.00  0.00     0.181 C 
HETATM    5 BR1  UNL     1      31.547  10.034  27.374  1.00  0.00    -0.066 Br
HETATM    6  C4  UNL     1      30.034   9.238  29.559  1.00  0.00     0.182 C 
HETATM    7  C5  UNL     1      28.978   8.298  30.137  1.00  0.00     0.180 C 
HETATM    8  C6  UNL     1      29.521   6.920  29.948  1.00  0.00     0.173 C 
ENDROOT
BRANCH   1   9
HETATM    9  C1  UNL     1      30.412   5.314  28.339  1.00  0.00     0.191 C 
BRANCH   9  10
HETATM   10  O1  UNL     1      29.566   4.236  28.151  1.00  0.00    -0.399 OA
ATOM     11  H1  UNL     1      28.935   4.391  27.458  1.00  0.00     0.209 HD
ENDBRANCH   9  10
ENDBRANCH   1   9
BRANCH   8  12
HETATM   12  O4  UNL     1      28.666   5.938  30.492  1.00  0.00    -0.391 OA
ATOM     13  H4  UNL     1      28.899   5.846  31.408  1.00  0.00     0.210 HD
ENDBRANCH   8  12
BRANCH   7  14
HETATM   14  O3  UNL     1      27.809   8.536  29.426  1.00  0.00    -0.390 OA
ATOM     15  H3  UNL     1      27.147   7.964  29.798  1.00  0.00     0.210 HD
ENDBRANCH   7  14
BRANCH   6  16
HETATM   16  O2  UNL     1      31.278   9.019  30.107  1.00  0.00    -0.390 OA
ATOM     17  H2  UNL     1      31.345   9.483  30.934  1.00  0.00     0.210 HD
ENDBRANCH   6  16
TORSDOF 5
ENDMDL
MODEL 3
REMARK VINA RESULT: -5.011608816      2.990      3.975
REMARK  5 active torsions:
REMARK  status: ('A' for Active; 'I' for Inactive)
REMARK    1  A    between atoms: O1_1  and  C1_3 
REMARK    2  A    between atoms: C1_3  and  C2_4 
REMARK    3  A    between atoms: C4_9  and  O2_10 
REMARK    4  A    between atoms: C5_12  and  O3_13 
REMARK    5  A    between atoms: C6_15  and  O4_16 
ROOT
HETATM    1  C2  UNL     1      29.624   7.114  29.875  1.00  0.00     0.132 C 
HETATM    2  N1  UNL     1      28.461   7.875  30.179  1.00  0.00    -0.397 N 
ATOM      3  H1  UNL     1      27.562   7.427  30.357  1.00  0.00     0.155 HD
HETATM    4  C3  UNL     1      28.607   9.289  30.224  1.00  0.00     0.181 C 
HETATM    5 BR1  UNL     1      26.844  10.071  30.009  1.00  0.00    -0.066 Br
HETATM    6  C4  UNL     1      29.469   9.867  29.134  1.00  0.00     0.182 C 
HETATM    7  C5  UNL     1      30.815   9.149  29.213  1.00  0.00     0.180 C 
HETATM    8  C6  UNL     1      30.532   7.726  28.856  1.00  0.00     0.173 C 
ENDROOT
BRANCH   1   9
HETATM    9  C1  UNL     1      29.182   5.757  29.364  1.00  0.00     0.191 C 
BRANCH   9  10
HETATM   10  O1  UNL     1      27.970   5.817  28.699  1.00  0.00    -0.399 OA
ATOM     11  H1  UNL     1      27.539   4.971  28.661  1.00  0.00     0.209 HD
ENDBRANCH   9  10
ENDBRANCH   1   9
BRANCH   8  12
HETATM   12  O4  UNL     1      31.707   6.946  28.833  1.00  0.00    -0.391 OA
ATOM     13  H4  UNL     1      32.215   7.233  28.083  1.00  0.00     0.210 HD
ENDBRANCH   8  12
BRANCH   7  14
HETATM   14  O3  UNL     1      31.272   9.313  30.514  1.00  0.00    -0.390 OA
ATOM     15  H3  UNL     1      32.189   9.067  30.511  1.00  0.00     0.210 HD
ENDBRANCH   7  14
BRANCH   6  16
HETATM   16  O2  UNL     1      28.854   9.681  27.916  1.00  0.00    -0.390 OA
ATOM     17  H2  UNL     1      28.112   9.096  28.023  1.00  0.00     0.210 HD
ENDBRANCH   6  16
TORSDOF 5
ENDMDL
MODEL 4
REMARK VINA RESULT: -4.929002943      3.121      4.667
REMARK  5 active torsions:
REMARK  status: ('A' for Active; 'I' for Inactive)
REMARK    1  A    between atoms: O1_1  and  C1_3 
REMARK    2  A    between atoms: C1_3  and  C2_4 
REMARK    3  A    between atoms: C4_9  and  O2_10 
REMARK    4  A    between atoms: C5_12  and  O3_13 
REMARK    5  A    between atoms: C6_15  and  O4_16 
ROOT
HETATM    1  C2  UNL     1      28.576   9.449  29.081  1.00  0.00     0.132 C 
HETATM    2  N1  UNL     1      29.188  10.060  27.951  1.00  0.00    -0.397 N 
ATOM      3  H1  UNL     1      28.655  10.646  27.308  1.00  0.00     0.155 HD
HETATM    4  C3  UNL     1      30.576   9.818  27.758  1.00  0.00     0.181 C 
HETATM    5 BR1  UNL     1      30.986  10.192  25.899  1.00  0.00    -0.066 Br
HETATM    6  C4  UNL     1      31.010   8.400  28.018  1.00  0.00     0.182 C 
HETATM    7  C5  UNL     1      30.560   8.058  29.437  1.00  0.00     0.180 C 
HETATM    8  C6  UNL     1      29.066   8.072  29.399  1.00  0.00     0.173 C 
ENDROOT
BRANCH   1   9
HETATM    9  C1  UNL     1      27.082   9.376  28.829  1.00  0.00     0.191 C 
BRANCH   9  10
HETATM   10  O1  UNL     1      26.350   9.441  30.002  1.00  0.00    -0.399 OA
ATOM     11  H1  UNL     1      25.518   9.883  29.881  1.00  0.00     0.209 HD
ENDBRANCH   9  10
ENDBRANCH   1   9
BRANCH   8  12
HETATM   12  O4  UNL     1      28.505   7.714  30.643  1.00  0.00    -0.391 OA
ATOM     13  H4  UNL     1      27.875   7.024  30.474  1.00  0.00     0.210 HD
ENDBRANCH   8  12
BRANCH   7  14
HETATM   14  O3  UNL     1      31.102   9.031  30.266  1.00  0.00    -0.390 OA
ATOM     15  H3  UNL     1      30.401   9.317  30.841  1.00  0.00     0.210 HD
ENDBRANCH   7  14
BRANCH   6  16
HETATM   16  O2  UNL     1      30.440   7.569  27.080  1.00  0.00    -0.390 OA
ATOM     17  H2  UNL     1      29.801   7.006  27.503  1.00  0.00     0.210 HD
ENDBRANCH   6  16
TORSDOF 5
ENDMDL
MODEL 5
REMARK VINA RESULT: -4.922864764      1.936      3.137
REMARK  5 active torsions:
REMARK  status: ('A' for Active; 'I' for Inactive)
REMARK    1  A    between atoms: O1_1  and  C1_3 
REMARK    2  A    between atoms: C1_3  and  C2_4 
REMARK    3  A    between atoms: C4_9  and  O2_10 
REMARK    4  A    between atoms: C5_12  and  O3_13 
REMARK    5  A    between atoms: C6_15  and  O4_16 
ROOT
HETATM    1  C2  UNL     1      29.991   6.186  29.486  1.00  0.00     0.132 C 
HETATM    2  N1  UNL     1      29.991   7.589  29.725  1.00  0.00    -0.397 N 
ATOM      3  H1  UNL     1      29.314   8.023  30.352  1.00  0.00     0.155 HD
HETATM    4  C3  UNL     1      30.977   8.360  29.049  1.00  0.00     0.181 C 
HETATM    5 BR1  UNL     1      30.371  10.203  29.026  1.00  0.00    -0.066 Br
HETATM    6  C4  UNL     1      31.210   7.966  27.615  1.00  0.00     0.182 C 
HETATM    7  C5  UNL     1      31.550   6.477  27.620  1.00  0.00     0.180 C 
HETATM    8  C6  UNL     1      30.310   5.783  28.081  1.00  0.00     0.173 C 
ENDROOT
BRANCH   1   9
HETATM    9  C1  UNL     1      28.618   5.646  29.837  1.00  0.00     0.191 C 
BRANCH   9  10
HETATM   10  O1  UNL     1      27.802   5.533  28.725  1.00  0.00    -0.399 OA
ATOM     11  H1  UNL     1      27.154   4.845  28.825  1.00  0.00     0.209 HD
ENDBRANCH   9  10
ENDBRANCH   1   9
BRANCH   8  12
HETATM   12  O4  UNL     1      30.461   4.380  28.082  1.00  0.00    -0.391 OA
ATOM     13  H4  UNL     1      30.611   4.118  27.181  1.00  0.00     0.210 HD
ENDBRANCH   8  12
BRANCH   7  14
HETATM   14  O3  UNL     1      32.625   6.322  28.485  1.00  0.00    -0.390 OA
ATOM     15  H3  UNL     1      32.426   6.838  29.258  1.00  0.00     0.210 HD
ENDBRANCH   7  14
BRANCH   6  16
HETATM   16  O2  UNL     1      30.080   8.236  26.877  1.00  0.00    -0.390 OA
ATOM     17  H2  UNL     1      29.542   8.867  27.342  1.00  0.00     0.210 HD
ENDBRANCH   6  16
TORSDOF 5
ENDMDL
