MODEL 1
REMARK VINA RESULT: -5.301968680      0.000      0.000
REMARK  4 active torsions:
REMARK  status: ('A' for Active; 'I' for Inactive)
REMARK    1  A    between atoms: O1_1  and  C1_3 
REMARK    2  A    between atoms: C2_7  and  O2_8 
REMARK    3  A    between atoms: C3_10  and  O3_11 
REMARK    4  A    between atoms: C5_15  and  O4_16 
ROOT
HETATM    1  C1  UNL     1      31.442   6.619  28.561  1.00  0.00     0.352 C 
HETATM    2  N1  UNL     1      30.408   5.712  29.018  1.00  0.00    -0.018 N 
ATOM      3  H11 UNL     1      30.776   4.893  29.504  1.00  0.00     0.283 HD
ATOM      4  H12 UNL     1      29.946   5.212  28.259  1.00  0.00     0.283 HD
HETATM    5  C2  UNL     1      29.493   6.501  29.829  1.00  0.00     0.352 C 
HETATM    6  C3  UNL     1      28.806   7.565  29.016  1.00  0.00     0.191 C 
HETATM    7  C4  UNL     1      29.837   8.436  28.356  1.00  0.00     0.124 C 
HETATM    8 BR1  UNL     1      30.774   9.411  29.758  1.00  0.00    -0.086 Br
HETATM    9  C5  UNL     1      30.889   7.634  27.612  1.00  0.00     0.191 C 
ENDROOT
BRANCH   1  10
HETATM   10  O1  UNL     1      32.530   5.924  28.076  1.00  0.00    -0.368 OA
ATOM     11  H1  UNL     1      32.276   5.059  27.778  1.00  0.00     0.212 HD
ENDBRANCH   1  10
BRANCH   9  12
HETATM   12  O4  UNL     1      31.927   8.547  27.315  1.00  0.00    -0.390 OA
ATOM     13  H4  UNL     1      32.591   8.454  27.989  1.00  0.00     0.210 HD
ENDBRANCH   9  12
BRANCH   5  14
HETATM   14  O2  UNL     1      28.630   5.732  30.574  1.00  0.00    -0.368 OA
ATOM     15  H2  UNL     1      28.647   5.941  31.500  1.00  0.00     0.212 HD
ENDBRANCH   5  14
BRANCH   6  16
HETATM   16  O3  UNL     1      27.844   7.086  28.164  1.00  0.00    -0.390 OA
ATOM     17  H3  UNL     1      27.520   7.729  27.545  1.00  0.00     0.210 HD
ENDBRANCH   6  16
TORSDOF 4
ENDMDL
MODEL 2
REMARK VINA RESULT: -5.018817357      1.791      3.368
REMARK  4 active torsions:
REMARK  status: ('A' for Active; 'I' for Inactive)
REMARK    1  A    between atoms: O1_1  and  C1_3 
REMARK    2  A    between atoms: C2_7  and  O2_8 
REMARK    3  A    between atoms: C3_10  and  O3_11 
REMARK    4  A    between atoms: C5_15  and  O4_16 
ROOT
HETATM    1  C1  UNL     1      30.250   5.927  28.561  1.00  0.00     0.352 C 
HETATM    2  N1  UNL     1      31.480   6.646  28.295  1.00  0.00    -0.018 N 
ATOM      3  H11 UNL     1      32.024   6.247  27.530  1.00  0.00     0.283 HD
ATOM      4  H12 UNL     1      32.182   6.528  29.025  1.00  0.00     0.283 HD
HETATM    5  C2  UNL     1      31.107   8.036  28.074  1.00  0.00     0.352 C 
HETATM    6  C3  UNL     1      30.502   8.652  29.306  1.00  0.00     0.191 C 
HETATM    7  C4  UNL     1      29.321   7.836  29.748  1.00  0.00     0.124 C 
HETATM    8 BR1  UNL     1      27.941   8.004  28.382  1.00  0.00    -0.086 Br
HETATM    9  C5  UNL     1      29.641   6.356  29.857  1.00  0.00     0.191 C 
ENDROOT
BRANCH   1  10
HETATM   10  O1  UNL     1      30.440   4.565  28.449  1.00  0.00    -0.368 OA
ATOM     11  H1  UNL     1      30.678   4.326  27.561  1.00  0.00     0.212 HD
ENDBRANCH   1  10
BRANCH   9  12
HETATM   12  O4  UNL     1      28.394   5.703  29.978  1.00  0.00    -0.390 OA
ATOM     13  H4  UNL     1      27.926   6.110  30.698  1.00  0.00     0.210 HD
ENDBRANCH   9  12
BRANCH   5  14
HETATM   14  O2  UNL     1      32.119   8.785  27.521  1.00  0.00    -0.368 OA
ATOM     15  H2  UNL     1      32.984   8.452  27.725  1.00  0.00     0.212 HD
ENDBRANCH   5  14
BRANCH   6  16
HETATM   16  O3  UNL     1      31.407   8.918  30.302  1.00  0.00    -0.390 OA
ATOM     17  H3  UNL     1      31.291   9.764  30.716  1.00  0.00     0.210 HD
ENDBRANCH   6  16
TORSDOF 4
ENDMDL
MODEL 3
REMARK VINA RESULT: -5.017467101      1.961      3.083
REMARK  4 active torsions:
REMARK  status: ('A' for Active; 'I' for Inactive)
REMARK    1  A    between atoms: O1_1  and  C1_3 
REMARK    2  A    between atoms: C2_7  and  O2_8 
REMARK    3  A    between atoms: C3_10  and  O3_11 
REMARK    4  A    between atoms: C5_15  and  O4_16 
ROOT
HETATM    1  C1  UNL     1      29.162   7.541  29.749  1.00  0.00     0.352 C 
HETATM    2  N1  UNL     1      29.120   6.092  29.724  1.00  0.00    -0.018 N 
ATOM      3  H11 UNL     1      28.184   5.714  29.869  1.00  0.00     0.283 HD
ATOM      4  H12 UNL     1      29.558   5.662  30.538  1.00  0.00     0.283 HD
HETATM    5  C2  UNL     1      29.719   5.682  28.462  1.00  0.00     0.352 C 
HETATM    6  C3  UNL     1      31.169   6.074  28.382  1.00  0.00     0.191 C 
HETATM    7  C4  UNL     1      31.301   7.556  28.590  1.00  0.00     0.124 C 
HETATM    8 BR1  UNL     1      30.464   8.444  27.071  1.00  0.00    -0.086 Br
HETATM    9  C5  UNL     1      30.570   8.039  29.829  1.00  0.00     0.191 C 
ENDROOT
BRANCH   1  10
HETATM   10  O1  UNL     1      28.328   8.043  30.726  1.00  0.00    -0.368 OA
ATOM     11  H1  UNL     1      28.539   8.948  30.920  1.00  0.00     0.212 HD
ENDBRANCH   1  10
BRANCH   9  12
HETATM   12  O4  UNL     1      30.528   9.448  29.724  1.00  0.00    -0.390 OA
ATOM     13  H4  UNL     1      29.697   9.681  29.326  1.00  0.00     0.210 HD
ENDBRANCH   9  12
BRANCH   5  14
HETATM   14  O2  UNL     1      29.486   4.361  28.157  1.00  0.00    -0.368 OA
ATOM     15  H2  UNL     1      30.159   3.981  27.606  1.00  0.00     0.212 HD
ENDBRANCH   5  14
BRANCH   6  16
HETATM   16  O3  UNL     1      31.999   5.319  29.171  1.00  0.00    -0.390 OA
ATOM     17  H3  UNL     1      32.546   4.711  28.688  1.00  0.00     0.210 HD
ENDBRANCH   6  16
TORSDOF 4
ENDMDL
MODEL 4
REMARK VINA RESULT: -5.010325866      2.341      3.275
REMARK  4 active torsions:
REMARK  status: ('A' for Active; 'I' for Inactive)
REMARK    1  A    between atoms: O1_1  and  C1_3 
REMARK    2  A    between atoms: C2_7  and  O2_8 
REMARK    3  A    between atoms: C3_10  and  O3_11 
REMARK    4  A    between atoms: C5_15  and  O4_16 
ROOT
HETATM    1  C1  UNL     1      28.953   8.845  30.623  1.00  0.00     0.352 C 
HETATM    2  N1  UNL     1      28.731   7.422  30.458  1.00  0.00    -0.018 N 
ATOM      3  H11 UNL     1      27.833   7.109  30.827  1.00  0.00     0.283 HD
ATOM      4  H12 UNL     1      29.323   6.849  31.058  1.00  0.00     0.283 HD
HETATM    5  C2  UNL     1      28.902   7.139  29.040  1.00  0.00     0.352 C 
HETATM    6  C3  UNL     1      30.309   7.413  28.584  1.00  0.00     0.191 C 
HETATM    7  C4  UNL     1      30.672   8.836  28.902  1.00  0.00     0.124 C 
HETATM    8 BR1  UNL     1      29.559   9.992  27.796  1.00  0.00    -0.086 Br
HETATM    9  C5  UNL     1      30.377   9.206  30.344  1.00  0.00     0.191 C 
ENDROOT
BRANCH   1  10
HETATM   10  O1  UNL     1      28.490   9.278  31.848  1.00  0.00    -0.368 OA
ATOM     11  H1  UNL     1      29.147   9.799  32.296  1.00  0.00     0.212 HD
ENDBRANCH   1  10
BRANCH   9  12
HETATM   12  O4  UNL     1      30.479  10.614  30.406  1.00  0.00    -0.390 OA
ATOM     13  H4  UNL     1      30.701  10.846  31.301  1.00  0.00     0.210 HD
ENDBRANCH   9  12
BRANCH   5  14
HETATM   14  O2  UNL     1      28.435   5.897  28.677  1.00  0.00    -0.368 OA
ATOM     15  H2  UNL     1      27.765   5.565  29.261  1.00  0.00     0.212 HD
ENDBRANCH   5  14
BRANCH   6  16
HETATM   16  O3  UNL     1      31.227   6.489  29.012  1.00  0.00    -0.390 OA
ATOM     17  H3  UNL     1      31.019   5.594  28.771  1.00  0.00     0.210 HD
ENDBRANCH   6  16
TORSDOF 4
ENDMDL
MODEL 5
REMARK VINA RESULT: -4.980396075      2.238      3.427
REMARK  4 active torsions:
REMARK  status: ('A' for Active; 'I' for Inactive)
REMARK    1  A    between atoms: O1_1  and  C1_3 
REMARK    2  A    between atoms: C2_7  and  O2_8 
REMARK    3  A    between atoms: C3_10  and  O3_11 
REMARK    4  A    between atoms: C5_15  and  O4_16 
ROOT
HETATM    1  C1  UNL     1      29.588   6.191  29.756  1.00  0.00     0.352 C 
HETATM    2  N1  UNL     1      29.623   7.636  29.862  1.00  0.00    -0.018 N 
ATOM      3  H11 UNL     1      29.478   7.975  30.813  1.00  0.00     0.283 HD
ATOM      4  H12 UNL     1      28.815   8.092  29.440  1.00  0.00     0.283 HD
HETATM    5  C2  UNL     1      30.891   8.062  29.286  1.00  0.00     0.352 C 
HETATM    6  C3  UNL     1      30.973   7.734  27.820  1.00  0.00     0.191 C 
HETATM    7  C4  UNL     1      30.754   6.261  27.622  1.00  0.00     0.124 C 
HETATM    8 BR1  UNL     1      32.262   5.325  28.425  1.00  0.00    -0.086 Br
HETATM    9  C5  UNL     1      29.508   5.756  28.328  1.00  0.00     0.191 C 
ENDROOT
BRANCH   1  10
HETATM   10  O1  UNL     1      28.603   5.661  30.564  1.00  0.00    -0.368 OA
ATOM     11  H1  UNL     1      28.975   5.073  31.211  1.00  0.00     0.212 HD
ENDBRANCH   1  10
BRANCH   9  12
HETATM   12  O4  UNL     1      29.603   4.345  28.308  1.00  0.00    -0.390 OA
ATOM     13  H4  UNL     1      30.367   4.118  27.791  1.00  0.00     0.210 HD
ENDBRANCH   9  12
BRANCH   5  14
HETATM   14  O2  UNL     1      31.205   9.369  29.577  1.00  0.00    -0.368 OA
ATOM     15  H2  UNL     1      32.140   9.528  29.616  1.00  0.00     0.212 HD
ENDBRANCH   5  14
BRANCH   6  16
HETATM   16  O3  UNL     1      30.193   8.531  27.022  1.00  0.00    -0.390 OA
ATOM     17  H3  UNL     1      30.680   9.184  26.532  1.00  0.00     0.210 HD
ENDBRANCH   6  16
TORSDOF 4
ENDMDL
