MODEL 1
REMARK VINA RESULT: -4.880107179      0.000      0.000
REMARK  5 active torsions:
REMARK  status: ('A' for Active; 'I' for Inactive)
REMARK    1  A    between atoms: O1_1  and  C1_3 
REMARK    2  A    between atoms: C1_3  and  C2_4 
REMARK    3  A    between atoms: C2_4  and  O2_5 
REMARK    4  A    between atoms: C4_8  and  O3_9 
REMARK    5  A    between atoms: C5_11  and  O4_12 
ROOT
HETATM    1  C2  UNL     1      30.375   9.126  29.895  1.00  0.00     0.152 C 
HETATM    2  C3  UNL     1      30.702   7.754  29.424  1.00  0.00     0.097 C 
HETATM    3  C4  UNL     1      30.215   7.426  28.050  1.00  0.00     0.154 C 
HETATM    4  C5  UNL     1      30.718   8.524  27.116  1.00  0.00     0.180 C 
HETATM    5  C6  UNL     1      29.981   9.777  27.608  1.00  0.00     0.183 C 
HETATM    6 BR1  UNL     1      30.097  11.222  26.378  1.00  0.00    -0.066 Br
HETATM    7  N1  UNL     1      30.528  10.113  28.879  1.00  0.00    -0.374 N 
ATOM      8  H1  UNL     1      30.998  11.001  29.051  1.00  0.00     0.157 HD
ENDROOT
BRANCH   1   9
HETATM    9  C1  UNL     1      29.011   9.278  30.501  1.00  0.00     0.224 C 
BRANCH   9  10
HETATM   10  O1  UNL     1      28.406   8.121  30.877  1.00  0.00    -0.396 OA
ATOM     11  H1  UNL     1      28.062   7.590  30.169  1.00  0.00     0.209 HD
ENDBRANCH   9  10
ENDBRANCH   1   9
BRANCH   1  12
HETATM   12  O2  UNL     1      31.302   9.434  30.920  1.00  0.00    -0.369 OA
ATOM     13  H2  UNL     1      32.026   8.827  30.817  1.00  0.00     0.212 HD
ENDBRANCH   1  12
BRANCH   3  14
HETATM   14  O3  UNL     1      28.848   7.288  27.962  1.00  0.00    -0.393 OA
ATOM     15  H3  UNL     1      28.567   6.672  27.295  1.00  0.00     0.210 HD
ENDBRANCH   3  14
BRANCH   4  16
HETATM   16  O4  UNL     1      32.087   8.688  27.358  1.00  0.00    -0.390 OA
ATOM     17  H4  UNL     1      32.196   8.849  28.288  1.00  0.00     0.210 HD
ENDBRANCH   4  16
TORSDOF 5
ENDMDL
MODEL 2
REMARK VINA RESULT: -4.823891631      1.304      1.391
REMARK  5 active torsions:
REMARK  status: ('A' for Active; 'I' for Inactive)
REMARK    1  A    between atoms: O1_1  and  C1_3 
REMARK    2  A    between atoms: C1_3  and  C2_4 
REMARK    3  A    between atoms: C2_4  and  O2_5 
REMARK    4  A    between atoms: C4_8  and  O3_9 
REMARK    5  A    between atoms: C5_11  and  O4_12 
ROOT
HETATM    1  C2  UNL     1      29.368   9.113  30.090  1.00  0.00     0.152 C 
HETATM    2  C3  UNL     1      29.335   7.630  30.193  1.00  0.00     0.097 C 
HETATM    3  C4  UNL     1      29.244   6.908  28.888  1.00  0.00     0.154 C 
HETATM    4  C5  UNL     1      30.372   7.430  28.001  1.00  0.00     0.180 C 
HETATM    5  C6  UNL     1      29.996   8.900  27.773  1.00  0.00     0.183 C 
HETATM    6 BR1  UNL     1      31.001   9.701  26.371  1.00  0.00    -0.066 Br
HETATM    7  N1  UNL     1      30.177   9.577  29.013  1.00  0.00    -0.374 N 
ATOM      8  H1  UNL     1      30.841  10.342  29.122  1.00  0.00     0.157 HD
ENDROOT
BRANCH   1   9
HETATM    9  C1  UNL     1      28.023   9.769  29.988  1.00  0.00     0.224 C 
BRANCH   9  10
HETATM   10  O1  UNL     1      26.971   9.014  30.401  1.00  0.00    -0.396 OA
ATOM     11  H1  UNL     1      26.541   9.311  31.195  1.00  0.00     0.209 HD
ENDBRANCH   9  10
ENDBRANCH   1   9
BRANCH   1  12
HETATM   12  O2  UNL     1      29.954   9.590  31.288  1.00  0.00    -0.369 OA
ATOM     13  H2  UNL     1      29.655  10.486  31.392  1.00  0.00     0.212 HD
ENDBRANCH   1  12
BRANCH   3  14
HETATM   14  O3  UNL     1      28.023   7.037  28.264  1.00  0.00    -0.393 OA
ATOM     15  H3  UNL     1      27.743   7.938  28.151  1.00  0.00     0.210 HD
ENDBRANCH   3  14
BRANCH   4  16
HETATM   16  O4  UNL     1      31.553   7.383  28.751  1.00  0.00    -0.390 OA
ATOM     17  H4  UNL     1      31.311   7.222  29.656  1.00  0.00     0.210 HD
ENDBRANCH   4  16
TORSDOF 5
ENDMDL
MODEL 3
REMARK VINA RESULT: -4.769727601      1.607      3.538
REMARK  5 active torsions:
REMARK  status: ('A' for Active; 'I' for Inactive)
REMARK    1  A    between atoms: O1_1  and  C1_3 
REMARK    2  A    between atoms: C1_3  and  C2_4 
REMARK    3  A    between atoms: C2_4  and  O2_5 
REMARK    4  A    between atoms: C4_8  and  O3_9 
REMARK    5  A    between atoms: C5_11  and  O4_12 
ROOT
HETATM    1  C2  UNL     1      29.171   7.593  28.783  1.00  0.00     0.152 C 
HETATM    2  C3  UNL     1      29.351   7.578  30.258  1.00  0.00     0.097 C 
HETATM    3  C4  UNL     1      29.703   8.897  30.865  1.00  0.00     0.154 C 
HETATM    4  C5  UNL     1      28.662   9.907  30.390  1.00  0.00     0.180 C 
HETATM    5  C6  UNL     1      28.904   9.986  28.877  1.00  0.00     0.183 C 
HETATM    6 BR1  UNL     1      28.026  11.468  28.073  1.00  0.00    -0.066 Br
HETATM    7  N1  UNL     1      28.477   8.747  28.319  1.00  0.00    -0.374 N 
ATOM      8  H1  UNL     1      27.725   8.690  27.634  1.00  0.00     0.157 HD
ENDROOT
BRANCH   1   9
HETATM    9  C1  UNL     1      30.438   7.453  27.991  1.00  0.00     0.224 C 
BRANCH   9  10
HETATM   10  O1  UNL     1      31.557   7.198  28.719  1.00  0.00    -0.396 OA
ATOM     11  H1  UNL     1      32.145   6.549  28.351  1.00  0.00     0.209 HD
ENDBRANCH   9  10
ENDBRANCH   1   9
BRANCH   1  12
HETATM   12  O2  UNL     1      28.374   6.467  28.460  1.00  0.00    -0.369 OA
ATOM     13  H2  UNL     1      28.840   5.707  28.788  1.00  0.00     0.212 HD
ENDBRANCH   1  12
BRANCH   3  14
HETATM   14  O3  UNL     1      30.978   9.323  30.568  1.00  0.00    -0.393 OA
ATOM     15  H3  UNL     1      31.296  10.012  31.141  1.00  0.00     0.210 HD
ENDBRANCH   3  14
BRANCH   4  16
HETATM   16  O4  UNL     1      27.399   9.346  30.611  1.00  0.00    -0.390 OA
ATOM     17  H4  UNL     1      27.378   9.031  31.508  1.00  0.00     0.210 HD
ENDBRANCH   4  16
TORSDOF 5
ENDMDL
MODEL 4
REMARK VINA RESULT: -4.727389202      2.546      3.304
REMARK  5 active torsions:
REMARK  status: ('A' for Active; 'I' for Inactive)
REMARK    1  A    between atoms: O1_1  and  C1_3 
REMARK    2  A    between atoms: C1_3  and  C2_4 
REMARK    3  A    between atoms: C2_4  and  O2_5 
REMARK    4  A    between atoms: C4_8  and  O3_9 
REMARK    5  A    between atoms: C5_11  and  O4_12 
ROOT
HETATM    1  C2  UNL     1      28.415   8.802  29.526  1.00  0.00     0.152 C 
HETATM    2  C3  UNL     1      29.426   9.698  28.906  1.00  0.00     0.097 C 
HETATM    3  C4  UNL     1      30.839   9.224  29.012  1.00  0.00     0.154 C 
HETATM    4  C5  UNL     1      30.881   7.797  28.472  1.00  0.00     0.180 C 
HETATM    5  C6  UNL     1      30.026   7.010  29.474  1.00  0.00     0.183 C 
HETATM    6 BR1  UNL     1      30.229   5.129  29.289  1.00  0.00    -0.066 Br
HETATM    7  N1  UNL     1      28.675   7.422  29.288  1.00  0.00    -0.374 N 
ATOM      8  H1  UNL     1      27.943   6.772  29.003  1.00  0.00     0.157 HD
ENDROOT
BRANCH   1   9
HETATM    9  C1  UNL     1      28.216   8.998  31.000  1.00  0.00     0.224 C 
BRANCH   9  10
HETATM   10  O1  UNL     1      28.743  10.141  31.515  1.00  0.00    -0.396 OA
ATOM     11  H1  UNL     1      28.238  10.548  32.208  1.00  0.00     0.209 HD
ENDBRANCH   9  10
ENDBRANCH   1   9
BRANCH   1  12
HETATM   12  O2  UNL     1      27.174   9.105  28.914  1.00  0.00    -0.369 OA
ATOM     13  H2  UNL     1      26.821   9.852  29.383  1.00  0.00     0.212 HD
ENDBRANCH   1  12
BRANCH   3  14
HETATM   14  O3  UNL     1      31.353   9.286  30.288  1.00  0.00    -0.393 OA
ATOM     15  H3  UNL     1      32.177   9.757  30.348  1.00  0.00     0.210 HD
ENDBRANCH   3  14
BRANCH   4  16
HETATM   16  O4  UNL     1      30.229   7.797  27.233  1.00  0.00    -0.390 OA
ATOM     17  H4  UNL     1      29.334   7.512  27.380  1.00  0.00     0.210 HD
ENDBRANCH   4  16
TORSDOF 5
ENDMDL
MODEL 5
REMARK VINA RESULT: -4.705045920      2.255      3.371
REMARK  5 active torsions:
REMARK  status: ('A' for Active; 'I' for Inactive)
REMARK    1  A    between atoms: O1_1  and  C1_3 
REMARK    2  A    between atoms: C1_3  and  C2_4 
REMARK    3  A    between atoms: C2_4  and  O2_5 
REMARK    4  A    between atoms: C4_8  and  O3_9 
REMARK    5  A    between atoms: C5_11  and  O4_12 
ROOT
HETATM    1  C2  UNL     1      29.787   8.039  28.838  1.00  0.00     0.152 C 
HETATM    2  C3  UNL     1      28.417   8.611  28.768  1.00  0.00     0.097 C 
HETATM    3  C4  UNL     1      27.980   9.353  29.989  1.00  0.00     0.154 C 
HETATM    4  C5  UNL     1      29.056  10.392  30.298  1.00  0.00     0.180 C 
HETATM    5  C6  UNL     1      30.281   9.540  30.657  1.00  0.00     0.183 C 
HETATM    6 BR1  UNL     1      31.660  10.557  31.482  1.00  0.00    -0.066 Br
HETATM    7  N1  UNL     1      30.724   8.915  29.457  1.00  0.00    -0.374 N 
ATOM      8  H1  UNL     1      31.651   9.084  29.067  1.00  0.00     0.157 HD
ENDROOT
BRANCH   1   9
HETATM    9  C1  UNL     1      29.879   6.699  29.507  1.00  0.00     0.224 C 
BRANCH   9  10
HETATM   10  O1  UNL     1      28.692   6.080  29.743  1.00  0.00    -0.396 OA
ATOM     11  H1  UNL     1      27.930   6.500  29.361  1.00  0.00     0.209 HD
ENDBRANCH   9  10
ENDBRANCH   1   9
BRANCH   1  12
HETATM   12  O2  UNL     1      30.215   7.846  27.502  1.00  0.00    -0.369 OA
ATOM     13  H2  UNL     1      29.769   7.068  27.189  1.00  0.00     0.212 HD
ENDBRANCH   1  12
BRANCH   3  14
HETATM   14  O3  UNL     1      27.744   8.545  31.078  1.00  0.00    -0.393 OA
ATOM     15  H3  UNL     1      27.108   8.899  31.689  1.00  0.00     0.210 HD
ENDBRANCH   3  14
BRANCH   4  16
HETATM   16  O4  UNL     1      29.326  11.084  29.112  1.00  0.00    -0.390 OA
ATOM     17  H4  UNL     1      28.913  10.607  28.401  1.00  0.00     0.210 HD
ENDBRANCH   4  16
TORSDOF 5
ENDMDL
