MODEL 1
REMARK VINA RESULT: -5.834813446      0.000      0.000
REMARK  4 active torsions:
REMARK  status: ('A' for Active; 'I' for Inactive)
REMARK    1  A    between atoms: O1_1  and  C1_3 
REMARK    2  A    between atoms: C2_5  and  O3_6 
REMARK    3  A    between atoms: C3_8  and  O4_9 
REMARK    4  A    between atoms: C5_13  and  O5_14 
ROOT
HETATM    1  C1  UNL     1      31.619   5.313  27.847  1.00  0.00     0.289 C 
HETATM    2  O2  UNL     1      31.730   4.824  29.150  1.00  0.00    -0.327 OA
HETATM    3  C2  UNL     1      30.395   4.630  29.576  1.00  0.00     0.289 C 
HETATM    4  C3  UNL     1      29.853   5.999  29.890  1.00  0.00     0.190 C 
HETATM    5  C4  UNL     1      29.993   6.983  28.788  1.00  0.00     0.125 C 
HETATM    6 BR1  UNL     1      30.396   8.715  29.593  1.00  0.00    -0.086 Br
HETATM    7  C5  UNL     1      31.030   6.683  27.778  1.00  0.00     0.190 C 
ENDROOT
BRANCH   1   8
HETATM    8  O1  UNL     1      32.926   5.294  27.319  1.00  0.00    -0.368 OA
ATOM      9  H1  UNL     1      32.951   5.986  26.668  1.00  0.00     0.212 HD
ENDBRANCH   1   8
BRANCH   7  10
HETATM   10  O5  UNL     1      32.099   7.599  27.843  1.00  0.00    -0.389 OA
ATOM     11  H5  UNL     1      31.740   8.462  27.669  1.00  0.00     0.210 HD
ENDBRANCH   7  10
BRANCH   3  12
HETATM   12  O3  UNL     1      30.445   3.914  30.765  1.00  0.00    -0.368 OA
ATOM     13  H3  UNL     1      30.941   3.122  30.592  1.00  0.00     0.212 HD
ENDBRANCH   3  12
BRANCH   4  14
HETATM   14  O4  UNL     1      28.511   5.906  30.286  1.00  0.00    -0.389 OA
ATOM     15  H4  UNL     1      28.327   6.541  30.969  1.00  0.00     0.210 HD
ENDBRANCH   4  14
TORSDOF 4
ENDMDL
MODEL 2
REMARK VINA RESULT: -5.443148396      1.847      3.353
REMARK  4 active torsions:
REMARK  status: ('A' for Active; 'I' for Inactive)
REMARK    1  A    between atoms: O1_1  and  C1_3 
REMARK    2  A    between atoms: C2_5  and  O3_6 
REMARK    3  A    between atoms: C3_8  and  O4_9 
REMARK    4  A    between atoms: C5_13  and  O5_14 
ROOT
HETATM    1  C1  UNL     1      29.416   7.159  30.115  1.00  0.00     0.289 C 
HETATM    2  O2  UNL     1      28.915   6.214  29.217  1.00  0.00    -0.327 OA
HETATM    3  C2  UNL     1      30.047   5.464  28.818  1.00  0.00     0.289 C 
HETATM    4  C3  UNL     1      30.800   6.330  27.842  1.00  0.00     0.190 C 
HETATM    5  C4  UNL     1      31.129   7.685  28.352  1.00  0.00     0.125 C 
HETATM    6 BR1  UNL     1      30.958   8.931  26.859  1.00  0.00    -0.086 Br
HETATM    7  C5  UNL     1      30.298   8.178  29.470  1.00  0.00     0.190 C 
ENDROOT
BRANCH   1   8
HETATM    8  O1  UNL     1      28.286   7.763  30.702  1.00  0.00    -0.368 OA
ATOM      9  H1  UNL     1      27.590   7.119  30.643  1.00  0.00     0.212 HD
ENDBRANCH   1   8
BRANCH   7  10
HETATM   10  O5  UNL     1      29.473   9.250  29.073  1.00  0.00    -0.389 OA
ATOM     11  H5  UNL     1      29.433   9.857  29.802  1.00  0.00     0.210 HD
ENDBRANCH   7  10
BRANCH   3  12
HETATM   12  O3  UNL     1      29.579   4.357  28.123  1.00  0.00    -0.368 OA
ATOM     13  H3  UNL     1      29.547   4.597  27.204  1.00  0.00     0.212 HD
ENDBRANCH   3  12
BRANCH   4  14
HETATM   14  O4  UNL     1      31.967   5.677  27.420  1.00  0.00    -0.389 OA
ATOM     15  H4  UNL     1      32.144   5.881  26.509  1.00  0.00     0.210 HD
ENDBRANCH   4  14
TORSDOF 4
ENDMDL
MODEL 3
REMARK VINA RESULT: -5.427429548      1.791      3.162
REMARK  4 active torsions:
REMARK  status: ('A' for Active; 'I' for Inactive)
REMARK    1  A    between atoms: O1_1  and  C1_3 
REMARK    2  A    between atoms: C2_5  and  O3_6 
REMARK    3  A    between atoms: C3_8  and  O4_9 
REMARK    4  A    between atoms: C5_13  and  O5_14 
ROOT
HETATM    1  C1  UNL     1      29.759   5.088  28.782  1.00  0.00     0.289 C 
HETATM    2  O2  UNL     1      30.659   5.691  27.900  1.00  0.00    -0.327 OA
HETATM    3  C2  UNL     1      31.427   6.561  28.709  1.00  0.00     0.289 C 
HETATM    4  C3  UNL     1      30.551   7.752  28.993  1.00  0.00     0.190 C 
HETATM    5  C4  UNL     1      29.224   7.415  29.568  1.00  0.00     0.125 C 
HETATM    6 BR1  UNL     1      27.923   8.658  28.812  1.00  0.00    -0.086 Br
HETATM    7  C5  UNL     1      28.746   6.036  29.334  1.00  0.00     0.190 C 
ENDROOT
BRANCH   1   8
HETATM    8  O1  UNL     1      29.143   4.053  28.051  1.00  0.00    -0.368 OA
ATOM      9  H1  UNL     1      29.713   3.298  28.144  1.00  0.00     0.212 HD
ENDBRANCH   1   8
BRANCH   7  10
HETATM   10  O5  UNL     1      27.637   6.011  28.463  1.00  0.00    -0.389 OA
ATOM     11  H5  UNL     1      27.372   6.913  28.323  1.00  0.00     0.210 HD
ENDBRANCH   7  10
BRANCH   3  12
HETATM   12  O3  UNL     1      32.496   6.999  27.938  1.00  0.00    -0.368 OA
ATOM     13  H3  UNL     1      33.228   6.422  28.122  1.00  0.00     0.212 HD
ENDBRANCH   3  12
BRANCH   4  14
HETATM   14  O4  UNL     1      31.222   8.656  29.829  1.00  0.00    -0.389 OA
ATOM     15  H4  UNL     1      30.723   9.461  29.907  1.00  0.00     0.210 HD
ENDBRANCH   4  14
TORSDOF 4
ENDMDL
MODEL 4
REMARK VINA RESULT: -5.387336437      1.451      1.835
REMARK  4 active torsions:
REMARK  status: ('A' for Active; 'I' for Inactive)
REMARK    1  A    between atoms: O1_1  and  C1_3 
REMARK    2  A    between atoms: C2_5  and  O3_6 
REMARK    3  A    between atoms: C3_8  and  O4_9 
REMARK    4  A    between atoms: C5_13  and  O5_14 
ROOT
HETATM    1  C1  UNL     1      31.214   6.310  28.006  1.00  0.00     0.289 C 
HETATM    2  O2  UNL     1      30.762   6.216  29.324  1.00  0.00    -0.327 OA
HETATM    3  C2  UNL     1      29.358   6.367  29.235  1.00  0.00     0.289 C 
HETATM    4  C3  UNL     1      29.109   7.835  29.011  1.00  0.00     0.190 C 
HETATM    5  C4  UNL     1      29.848   8.415  27.863  1.00  0.00     0.125 C 
HETATM    6 BR1  UNL     1      30.389  10.223  28.364  1.00  0.00    -0.086 Br
HETATM    7  C5  UNL     1      31.048   7.674  27.420  1.00  0.00     0.190 C 
ENDROOT
BRANCH   1   8
HETATM    8  O1  UNL     1      32.571   5.933  28.040  1.00  0.00    -0.368 OA
ATOM      9  H1  UNL     1      32.779   5.642  27.159  1.00  0.00     0.212 HD
ENDBRANCH   1   8
BRANCH   7  10
HETATM   10  O5  UNL     1      32.231   8.390  27.692  1.00  0.00    -0.389 OA
ATOM     11  H5  UNL     1      32.814   7.800  28.157  1.00  0.00     0.210 HD
ENDBRANCH   7  10
BRANCH   3  12
HETATM   12  O3  UNL     1      28.832   6.034  30.476  1.00  0.00    -0.368 OA
ATOM     13  H3  UNL     1      28.022   6.522  30.575  1.00  0.00     0.212 HD
ENDBRANCH   3  12
BRANCH   4  14
HETATM   14  O4  UNL     1      27.734   8.074  28.870  1.00  0.00    -0.389 OA
ATOM     15  H4  UNL     1      27.580   8.685  28.159  1.00  0.00     0.210 HD
ENDBRANCH   4  14
TORSDOF 4
ENDMDL
MODEL 5
REMARK VINA RESULT: -5.373873499      1.951      3.909
REMARK  4 active torsions:
REMARK  status: ('A' for Active; 'I' for Inactive)
REMARK    1  A    between atoms: O1_1  and  C1_3 
REMARK    2  A    between atoms: C2_5  and  O3_6 
REMARK    3  A    between atoms: C3_8  and  O4_9 
REMARK    4  A    between atoms: C5_13  and  O5_14 
ROOT
HETATM    1  C1  UNL     1      29.273   6.221  29.561  1.00  0.00     0.289 C 
HETATM    2  O2  UNL     1      30.071   7.168  30.207  1.00  0.00    -0.327 OA
HETATM    3  C2  UNL     1      30.534   8.014  29.171  1.00  0.00     0.289 C 
HETATM    4  C3  UNL     1      31.618   7.248  28.459  1.00  0.00     0.190 C 
HETATM    5  C4  UNL     1      31.212   5.898  27.994  1.00  0.00     0.125 C 
HETATM    6 BR1  UNL     1      32.744   4.711  28.224  1.00  0.00    -0.086 Br
HETATM    7  C5  UNL     1      30.048   5.298  28.679  1.00  0.00     0.190 C 
ENDROOT
BRANCH   1   8
HETATM    8  O1  UNL     1      28.615   5.513  30.587  1.00  0.00    -0.368 OA
ATOM      9  H1  UNL     1      29.280   4.965  30.988  1.00  0.00     0.212 HD
ENDBRANCH   1   8
BRANCH   7  10
HETATM   10  O5  UNL     1      30.422   4.189  29.465  1.00  0.00    -0.389 OA
ATOM     11  H5  UNL     1      31.059   4.498  30.099  1.00  0.00     0.210 HD
ENDBRANCH   7  10
BRANCH   3  12
HETATM   12  O3  UNL     1      31.125   9.115  29.776  1.00  0.00    -0.368 OA
ATOM     13  H3  UNL     1      30.509   9.834  29.710  1.00  0.00     0.212 HD
ENDBRANCH   3  12
BRANCH   4  14
HETATM   14  O4  UNL     1      32.112   8.000  27.384  1.00  0.00    -0.389 OA
ATOM     15  H4  UNL     1      31.403   8.469  26.960  1.00  0.00     0.210 HD
ENDBRANCH   4  14
TORSDOF 4
ENDMDL
