MODEL 1
REMARK VINA RESULT: -6.329064414      0.000      0.000
REMARK  5 active torsions:
REMARK  status: ('A' for Active; 'I' for Inactive)
REMARK    1  A    between atoms: O1_1  and  C1_3 
REMARK    2  A    between atoms: C3_8  and  N2_9 
REMARK    3  A    between atoms: C5_11  and  O2_12 
REMARK    4  A    between atoms: C7_16  and  O3_17 
REMARK    5  A    between atoms: C9_20  and  O4_21 
ROOT
HETATM    1  C1  UNL     1      27.692   9.586  29.542  1.00  0.00     0.176 C 
HETATM    2  C2  UNL     1      27.152   8.800  28.379  1.00  0.00     0.269 C 
HETATM    3  N1  UNL     1      27.796   7.515  28.528  1.00  0.00    -0.049 N 
ATOM      4  H11 UNL     1      27.690   6.882  27.736  1.00  0.00     0.279 HD
ATOM      5  H12 UNL     1      27.364   6.888  29.206  1.00  0.00     0.279 HD
HETATM    6  C3  UNL     1      29.180   7.914  28.832  1.00  0.00     0.321 C 
HETATM    7  C9  UNL     1      28.993   8.865  29.946  1.00  0.00     0.199 C 
ENDROOT
BRANCH   6   8
HETATM    8  N2  UNL     1      30.009   6.801  28.976  1.00  0.00    -0.339 N 
HETATM    9  C4  UNL     1      29.490   5.521  28.963  1.00  0.00     0.100 C 
HETATM   10  C5  UNL     1      30.487   4.434  29.312  1.00  0.00     0.193 C 
HETATM   11  C6  UNL     1      31.899   4.724  28.953  1.00  0.00     0.237 C 
HETATM   12  F1  UNL     1      32.530   3.602  28.418  1.00  0.00    -0.243 F 
HETATM   13  C7  UNL     1      32.142   5.935  28.125  1.00  0.00     0.193 C 
HETATM   14  C8  UNL     1      31.352   7.079  28.700  1.00  0.00     0.100 C 
BRANCH  10  15
HETATM   15  O2  UNL     1      30.333   4.164  30.686  1.00  0.00    -0.387 OA
ATOM     16  H2  UNL     1      30.588   3.259  30.819  1.00  0.00     0.210 HD
ENDBRANCH  10  15
BRANCH  13  17
HETATM   17  O3  UNL     1      32.020   5.772  26.770  1.00  0.00    -0.387 OA
ATOM     18  H3  UNL     1      31.989   4.875  26.459  1.00  0.00     0.210 HD
ENDBRANCH  13  17
ENDBRANCH   6   8
BRANCH   7  19
HETATM   19  O4  UNL     1      28.911   8.388  31.218  1.00  0.00    -0.389 OA
ATOM     20  H4  UNL     1      29.773   8.314  31.609  1.00  0.00     0.210 HD
ENDBRANCH   7  19
BRANCH   1  21
HETATM   21  O1  UNL     1      26.805   9.580  30.604  1.00  0.00    -0.391 OA
ATOM     22  H1  UNL     1      26.825  10.406  31.073  1.00  0.00     0.210 HD
ENDBRANCH   1  21
TORSDOF 5
ENDMDL
MODEL 2
REMARK VINA RESULT: -6.231507933      2.843      5.368
REMARK  5 active torsions:
REMARK  status: ('A' for Active; 'I' for Inactive)
REMARK    1  A    between atoms: O1_1  and  C1_3 
REMARK    2  A    between atoms: C3_8  and  N2_9 
REMARK    3  A    between atoms: C5_11  and  O2_12 
REMARK    4  A    between atoms: C7_16  and  O3_17 
REMARK    5  A    between atoms: C9_20  and  O4_21 
ROOT
HETATM    1  C1  UNL     1      30.773   4.861  28.477  1.00  0.00     0.176 C 
HETATM    2  C2  UNL     1      31.746   5.899  27.991  1.00  0.00     0.269 C 
HETATM    3  N1  UNL     1      31.379   7.071  28.752  1.00  0.00    -0.049 N 
ATOM      4  H11 UNL     1      31.816   7.941  28.449  1.00  0.00     0.279 HD
ATOM      5  H12 UNL     1      31.750   7.107  29.701  1.00  0.00     0.279 HD
HETATM    6  C3  UNL     1      29.910   7.037  28.651  1.00  0.00     0.321 C 
HETATM    7  C9  UNL     1      29.599   5.659  29.079  1.00  0.00     0.199 C 
ENDROOT
BRANCH   6   8
HETATM    8  N2  UNL     1      29.333   8.132  29.297  1.00  0.00    -0.339 N 
HETATM    9  C4  UNL     1      30.064   8.908  30.175  1.00  0.00     0.100 C 
HETATM   10  C5  UNL     1      29.250   9.941  30.929  1.00  0.00     0.193 C 
HETATM   11  C6  UNL     1      28.056  10.460  30.214  1.00  0.00     0.237 C 
HETATM   12  F1  UNL     1      27.919  11.836  30.382  1.00  0.00    -0.243 F 
HETATM   13  C7  UNL     1      27.909  10.065  28.787  1.00  0.00     0.193 C 
HETATM   14  C8  UNL     1      28.171   8.589  28.664  1.00  0.00     0.100 C 
BRANCH  10  15
HETATM   15  O2  UNL     1      28.919   9.370  32.173  1.00  0.00    -0.387 OA
ATOM     16  H2  UNL     1      28.538   8.520  31.994  1.00  0.00     0.210 HD
ENDBRANCH  10  15
BRANCH  13  17
HETATM   17  O3  UNL     1      28.570  10.847  27.876  1.00  0.00    -0.387 OA
ATOM     18  H3  UNL     1      28.025  11.396  27.325  1.00  0.00     0.210 HD
ENDBRANCH  13  17
ENDBRANCH   6   8
BRANCH   7  19
HETATM   19  O4  UNL     1      29.458   5.393  30.406  1.00  0.00    -0.389 OA
ATOM     20  H4  UNL     1      28.542   5.307  30.639  1.00  0.00     0.210 HD
ENDBRANCH   7  19
BRANCH   1  21
HETATM   21  O1  UNL     1      31.342   4.061  29.452  1.00  0.00    -0.391 OA
ATOM     22  H1  UNL     1      30.736   3.911  30.170  1.00  0.00     0.210 HD
ENDBRANCH   1  21
TORSDOF 5
ENDMDL
MODEL 3
REMARK VINA RESULT: -6.168467685      2.829      5.459
REMARK  5 active torsions:
REMARK  status: ('A' for Active; 'I' for Inactive)
REMARK    1  A    between atoms: O1_1  and  C1_3 
REMARK    2  A    between atoms: C3_8  and  N2_9 
REMARK    3  A    between atoms: C5_11  and  O2_12 
REMARK    4  A    between atoms: C7_16  and  O3_17 
REMARK    5  A    between atoms: C9_20  and  O4_21 
ROOT
HETATM    1  C1  UNL     1      30.338   4.821  28.710  1.00  0.00     0.176 C 
HETATM    2  C2  UNL     1      31.491   5.622  28.173  1.00  0.00     0.269 C 
HETATM    3  N1  UNL     1      31.267   6.934  28.735  1.00  0.00    -0.049 N 
ATOM      4  H11 UNL     1      31.854   7.676  28.356  1.00  0.00     0.279 HD
ATOM      5  H12 UNL     1      31.577   7.053  29.699  1.00  0.00     0.279 HD
HETATM    6  C3  UNL     1      29.820   7.103  28.516  1.00  0.00     0.321 C 
HETATM    7  C9  UNL     1      29.269   5.863  29.097  1.00  0.00     0.199 C 
ENDROOT
BRANCH   6   8
HETATM    8  N2  UNL     1      29.383   8.353  28.956  1.00  0.00    -0.339 N 
HETATM    9  C4  UNL     1      28.098   8.789  28.699  1.00  0.00     0.100 C 
HETATM   10  C5  UNL     1      27.837  10.233  29.080  1.00  0.00     0.193 C 
HETATM   11  C6  UNL     1      28.639  10.749  30.219  1.00  0.00     0.237 C 
HETATM   12  F1  UNL     1      27.866  11.534  31.072  1.00  0.00    -0.243 F 
HETATM   13  C7  UNL     1      29.446   9.752  30.971  1.00  0.00     0.193 C 
HETATM   14  C8  UNL     1      30.172   8.876  29.988  1.00  0.00     0.100 C 
BRANCH  10  15
HETATM   15  O2  UNL     1      28.013  11.001  27.913  1.00  0.00    -0.387 OA
ATOM     16  H2  UNL     1      27.147  11.201  27.580  1.00  0.00     0.210 HD
ENDBRANCH  10  15
BRANCH  13  17
HETATM   17  O3  UNL     1      28.793   9.081  31.971  1.00  0.00    -0.387 OA
ATOM     18  H3  UNL     1      28.880   9.445  32.844  1.00  0.00     0.210 HD
ENDBRANCH  13  17
ENDBRANCH   6   8
BRANCH   7  19
HETATM   19  O4  UNL     1      29.004   5.817  30.430  1.00  0.00    -0.389 OA
ATOM     20  H4  UNL     1      28.171   5.391  30.597  1.00  0.00     0.210 HD
ENDBRANCH   7  19
BRANCH   1  21
HETATM   21  O1  UNL     1      30.710   4.097  29.829  1.00  0.00    -0.391 OA
ATOM     22  H1  UNL     1      30.114   4.252  30.553  1.00  0.00     0.210 HD
ENDBRANCH   1  21
TORSDOF 5
ENDMDL
MODEL 4
REMARK VINA RESULT: -6.089306665      2.829      5.321
REMARK  5 active torsions:
REMARK  status: ('A' for Active; 'I' for Inactive)
REMARK    1  A    between atoms: O1_1  and  C1_3 
REMARK    2  A    between atoms: C3_8  and  N2_9 
REMARK    3  A    between atoms: C5_11  and  O2_12 
REMARK    4  A    between atoms: C7_16  and  O3_17 
REMARK    5  A    between atoms: C9_20  and  O4_21 
ROOT
HETATM    1  C1  UNL     1      31.654   5.406  28.327  1.00  0.00     0.176 C 
HETATM    2  C2  UNL     1      30.301   4.752  28.384  1.00  0.00     0.269 C 
HETATM    3  N1  UNL     1      29.397   5.877  28.425  1.00  0.00    -0.049 N 
ATOM      4  H11 UNL     1      28.425   5.648  28.634  1.00  0.00     0.279 HD
ATOM      5  H12 UNL     1      29.197   6.309  27.522  1.00  0.00     0.279 HD
HETATM    6  C3  UNL     1      30.061   6.752  29.406  1.00  0.00     0.321 C 
HETATM    7  C9  UNL     1      31.436   6.831  28.874  1.00  0.00     0.199 C 
ENDROOT
BRANCH   6   8
HETATM    8  N2  UNL     1      29.318   7.910  29.638  1.00  0.00    -0.339 N 
HETATM    9  C4  UNL     1      29.732   8.848  30.564  1.00  0.00     0.100 C 
HETATM   10  C5  UNL     1      28.729   9.952  30.831  1.00  0.00     0.193 C 
HETATM   11  C6  UNL     1      27.840  10.298  29.692  1.00  0.00     0.237 C 
HETATM   12  F1  UNL     1      27.671  11.676  29.576  1.00  0.00    -0.243 F 
HETATM   13  C7  UNL     1      28.162   9.673  28.381  1.00  0.00     0.193 C 
HETATM   14  C8  UNL     1      28.431   8.209  28.597  1.00  0.00     0.100 C 
BRANCH  10  15
HETATM   15  O2  UNL     1      28.002   9.576  31.977  1.00  0.00    -0.387 OA
ATOM     16  H2  UNL     1      28.635   9.272  32.617  1.00  0.00     0.210 HD
ENDBRANCH  10  15
BRANCH  13  17
HETATM   17  O3  UNL     1      29.093  10.325  27.616  1.00  0.00    -0.387 OA
ATOM     18  H3  UNL     1      29.724  10.855  28.090  1.00  0.00     0.210 HD
ENDBRANCH  13  17
ENDBRANCH   6   8
BRANCH   7  19
HETATM   19  O4  UNL     1      31.727   7.765  27.928  1.00  0.00    -0.389 OA
ATOM     20  H4  UNL     1      31.750   8.636  28.306  1.00  0.00     0.210 HD
ENDBRANCH   7  19
BRANCH   1  21
HETATM   21  O1  UNL     1      32.124   5.471  27.027  1.00  0.00    -0.391 OA
ATOM     22  H1  UNL     1      33.004   5.829  26.998  1.00  0.00     0.210 HD
ENDBRANCH   1  21
TORSDOF 5
ENDMDL
MODEL 5
REMARK VINA RESULT: -6.051510982      2.889      5.638
REMARK  5 active torsions:
REMARK  status: ('A' for Active; 'I' for Inactive)
REMARK    1  A    between atoms: O1_1  and  C1_3 
REMARK    2  A    between atoms: C3_8  and  N2_9 
REMARK    3  A    between atoms: C5_11  and  O2_12 
REMARK    4  A    between atoms: C7_16  and  O3_17 
REMARK    5  A    between atoms: C9_20  and  O4_21 
ROOT
HETATM    1  C1  UNL     1      31.605   5.492  28.344  1.00  0.00     0.176 C 
HETATM    2  C2  UNL     1      30.191   4.988  28.436  1.00  0.00     0.269 C 
HETATM    3  N1  UNL     1      29.409   6.200  28.373  1.00  0.00    -0.049 N 
ATOM      4  H11 UNL     1      28.418   6.091  28.588  1.00  0.00     0.279 HD
ATOM      5  H12 UNL     1      29.260   6.573  27.436  1.00  0.00     0.279 HD
HETATM    6  C3  UNL     1      30.156   7.079  29.288  1.00  0.00     0.321 C 
HETATM    7  C9  UNL     1      31.534   6.972  28.769  1.00  0.00     0.199 C 
ENDROOT
BRANCH   6   8
HETATM    8  N2  UNL     1      29.537   8.323  29.415  1.00  0.00    -0.339 N 
HETATM    9  C4  UNL     1      28.363   8.606  28.743  1.00  0.00     0.100 C 
HETATM   10  C5  UNL     1      27.917  10.052  28.838  1.00  0.00     0.193 C 
HETATM   11  C6  UNL     1      28.312  10.762  30.082  1.00  0.00     0.237 C 
HETATM   12  F1  UNL     1      27.277  11.559  30.565  1.00  0.00    -0.243 F 
HETATM   13  C7  UNL     1      28.915   9.934  31.160  1.00  0.00     0.193 C 
HETATM   14  C8  UNL     1      29.950   9.027  30.552  1.00  0.00     0.100 C 
BRANCH  10  15
HETATM   15  O2  UNL     1      28.389  10.702  27.681  1.00  0.00    -0.387 OA
ATOM     16  H2  UNL     1      28.720  11.548  27.957  1.00  0.00     0.210 HD
ENDBRANCH  10  15
BRANCH  13  17
HETATM   17  O3  UNL     1      28.034   9.316  32.008  1.00  0.00    -0.387 OA
ATOM     18  H3  UNL     1      27.697   9.849  32.719  1.00  0.00     0.210 HD
ENDBRANCH  13  17
ENDBRANCH   6   8
BRANCH   7  19
HETATM   19  O4  UNL     1      31.925   7.789  27.754  1.00  0.00    -0.389 OA
ATOM     20  H4  UNL     1      32.872   7.832  27.698  1.00  0.00     0.210 HD
ENDBRANCH   7  19
BRANCH   1  21
HETATM   21  O1  UNL     1      32.085   5.400  27.049  1.00  0.00    -0.391 OA
ATOM     22  H1  UNL     1      31.992   6.227  26.590  1.00  0.00     0.210 HD
ENDBRANCH   1  21
TORSDOF 5
ENDMDL
