MODEL 1
REMARK VINA RESULT: -6.078436293      0.000      0.000
REMARK  12 active torsions:
REMARK  status: ('A' for Active; 'I' for Inactive)
REMARK    1  A    between atoms: C2_2  and  C3_3 
REMARK    2  A    between atoms: C2_2  and  N3_13 
REMARK    3  A    between atoms: C3_3  and  N1_4 
REMARK    4  A    between atoms: N1_4  and  C4_7 
REMARK    5  A    between atoms: C4_7  and  C5_8 
REMARK    6  A    between atoms: C5_8  and  N2_9 
REMARK    7  A    between atoms: N3_13  and  C6_16 
REMARK    8  A    between atoms: C6_16  and  C7_17 
REMARK    9  A    between atoms: C8_19  and  N4_20 
REMARK   10  A    between atoms: C10_24  and  N6_25 
REMARK   11  A    between atoms: C11_30  and  N8_31 
REMARK   12  A    between atoms: C12_34  and  N9_35 
ROOT
HETATM    1  C7  UNL     1      -2.782  46.868  49.307  1.00  0.00     0.184 C 
HETATM    2  O1  UNL     1      -3.841  46.250  50.017  1.00  0.00    -0.354 OA
HETATM    3  C8  UNL     1      -4.604  47.263  49.380  1.00  0.00     0.280 C 
HETATM    4  C12 UNL     1      -3.835  46.878  48.175  1.00  0.00     0.263 C 
ENDROOT
BRANCH   1   5
HETATM    5  C6  UNL     1      -1.553  46.122  49.127  1.00  0.00     0.266 C 
BRANCH   5   6
HETATM    6  N3  UNL     1      -0.381  46.454  49.835  1.00  0.00    -0.067 N 
ATOM      7  H32 UNL     1      -0.532  47.287  50.405  1.00  0.00     0.277 HD
ATOM      8  H31 UNL     1       0.333  46.807  49.198  1.00  0.00     0.277 HD
BRANCH   6   9
HETATM    9  C2  UNL     1       0.152  45.370  50.650  1.00  0.00     0.207 C 
HETATM   10  C1  UNL     1       1.604  45.098  50.299  1.00  0.00     0.041 C 
BRANCH   9  11
HETATM   11  C3  UNL     1      -0.678  44.132  50.506  1.00  0.00     0.264 C 
BRANCH  11  12
HETATM   12  N1  UNL     1      -1.114  43.597  51.755  1.00  0.00    -0.072 N 
ATOM     13  H12 UNL     1      -1.519  42.670  51.622  1.00  0.00     0.277 HD
ATOM     14  H11 UNL     1      -0.313  43.355  52.338  1.00  0.00     0.277 HD
BRANCH  12  15
HETATM   15  C4  UNL     1      -2.022  44.441  52.475  1.00  0.00     0.259 C 
BRANCH  15  16
HETATM   16  C5  UNL     1      -3.391  43.797  52.646  1.00  0.00     0.257 C 
BRANCH  16  17
HETATM   17  N2  UNL     1      -4.351  44.882  52.811  1.00  0.00    -0.078 N 
ATOM     18  H23 UNL     1      -5.314  44.557  52.892  1.00  0.00     0.274 HD
ATOM     19  H22 UNL     1      -4.290  45.337  53.721  1.00  0.00     0.274 HD
ATOM     20  H21 UNL     1      -4.208  45.524  52.031  1.00  0.00     0.274 HD
ENDBRANCH  16  17
ENDBRANCH  15  16
ENDBRANCH  12  15
ENDBRANCH  11  12
ENDBRANCH   9  11
ENDBRANCH   6   9
ENDBRANCH   5   6
ENDBRANCH   1   5
BRANCH   4  21
HETATM   21  N9  UNL     1      -3.935  45.543  47.680  1.00  0.00    -0.068 N 
ATOM     22  H93 UNL     1      -3.541  44.850  48.317  1.00  0.00     0.275 HD
ATOM     23  H92 UNL     1      -4.891  45.189  47.675  1.00  0.00     0.275 HD
ATOM     24  H91 UNL     1      -3.500  45.531  46.758  1.00  0.00     0.275 HD
ENDBRANCH   4  21
BRANCH   3  25
HETATM   25  N4  UNL     1      -5.979  47.235  49.513  1.00  0.00    -0.149 N 
HETATM   26  C9  UNL     1      -6.854  46.954  48.526  1.00  0.00     0.221 A 
HETATM   27  N5  UNL     1      -8.183  46.929  48.676  1.00  0.00    -0.187 N 
HETATM   28  C10 UNL     1      -8.728  47.196  49.876  1.00  0.00     0.691 A 
ATOM     29  H5  UNL     1      -8.783  46.708  47.881  1.00  0.00     0.185 HD
HETATM   30  N7  UNL     1      -7.913  47.481  50.888  1.00  0.00    -0.023 N 
HETATM   31  C11 UNL     1      -6.571  47.503  50.726  1.00  0.00     0.695 A 
ATOM     32  H7  UNL     1      -8.309  47.687  51.805  1.00  0.00     0.203 HD
BRANCH  28  33
HETATM   33  N6  UNL     1     -10.018  47.171  50.021  1.00  0.00    -0.234 N 
ATOM     34  H62 UNL     1     -10.647  47.050  49.227  1.00  0.00     0.174 HD
ATOM     35  H61 UNL     1     -10.427  47.274  50.949  1.00  0.00     0.174 HD
ENDBRANCH  28  33
BRANCH  31  36
HETATM   36  N8  UNL     1      -5.900  47.781  51.778  1.00  0.00    -0.234 N 
ATOM     37  H82 UNL     1      -5.215  48.529  51.671  1.00  0.00     0.174 HD
ATOM     38  H81 UNL     1      -6.038  47.299  52.665  1.00  0.00     0.174 HD
ENDBRANCH  31  36
ENDBRANCH   3  25
TORSDOF 12
ENDMDL
MODEL 2
REMARK VINA RESULT: -6.009484671      3.571      6.079
REMARK  12 active torsions:
REMARK  status: ('A' for Active; 'I' for Inactive)
REMARK    1  A    between atoms: C2_2  and  C3_3 
REMARK    2  A    between atoms: C2_2  and  N3_13 
REMARK    3  A    between atoms: C3_3  and  N1_4 
REMARK    4  A    between atoms: N1_4  and  C4_7 
REMARK    5  A    between atoms: C4_7  and  C5_8 
REMARK    6  A    between atoms: C5_8  and  N2_9 
REMARK    7  A    between atoms: N3_13  and  C6_16 
REMARK    8  A    between atoms: C6_16  and  C7_17 
REMARK    9  A    between atoms: C8_19  and  N4_20 
REMARK   10  A    between atoms: C10_24  and  N6_25 
REMARK   11  A    between atoms: C11_30  and  N8_31 
REMARK   12  A    between atoms: C12_34  and  N9_35 
ROOT
HETATM    1  C7  UNL     1      -5.543  43.585  49.151  1.00  0.00     0.184 C 
HETATM    2  O1  UNL     1      -6.401  43.820  48.047  1.00  0.00    -0.354 OA
HETATM    3  C8  UNL     1      -5.169  43.863  47.344  1.00  0.00     0.280 C 
HETATM    4  C12 UNL     1      -4.847  42.652  48.133  1.00  0.00     0.263 C 
ENDROOT
BRANCH   1   5
HETATM    5  C6  UNL     1      -6.118  43.019  50.354  1.00  0.00     0.266 C 
BRANCH   5   6
HETATM    6  N3  UNL     1      -6.417  43.822  51.473  1.00  0.00    -0.067 N 
ATOM      7  H32 UNL     1      -6.551  43.242  52.302  1.00  0.00     0.277 HD
ATOM      8  H31 UNL     1      -7.352  44.220  51.387  1.00  0.00     0.277 HD
BRANCH   6   9
HETATM    9  C2  UNL     1      -5.439  44.869  51.737  1.00  0.00     0.207 C 
HETATM   10  C1  UNL     1      -4.334  44.357  52.644  1.00  0.00     0.041 C 
BRANCH   9  11
HETATM   11  C3  UNL     1      -6.096  46.082  52.320  1.00  0.00     0.264 C 
BRANCH  11  12
HETATM   12  N1  UNL     1      -5.941  47.250  51.515  1.00  0.00    -0.072 N 
ATOM     13  H12 UNL     1      -5.580  48.022  52.074  1.00  0.00     0.277 HD
ATOM     14  H11 UNL     1      -5.168  47.131  50.861  1.00  0.00     0.277 HD
BRANCH  12  15
HETATM   15  C4  UNL     1      -7.129  47.649  50.818  1.00  0.00     0.259 C 
BRANCH  15  16
HETATM   16  C5  UNL     1      -7.212  47.036  49.427  1.00  0.00     0.257 C 
BRANCH  16  17
HETATM   17  N2  UNL     1      -8.283  46.049  49.462  1.00  0.00    -0.078 N 
ATOM     18  H23 UNL     1      -7.959  45.099  49.285  1.00  0.00     0.274 HD
ATOM     19  H22 UNL     1      -8.650  45.889  50.400  1.00  0.00     0.274 HD
ATOM     20  H21 UNL     1      -8.994  46.361  48.800  1.00  0.00     0.274 HD
ENDBRANCH  16  17
ENDBRANCH  15  16
ENDBRANCH  12  15
ENDBRANCH  11  12
ENDBRANCH   9  11
ENDBRANCH   6   9
ENDBRANCH   5   6
ENDBRANCH   1   5
BRANCH   4  21
HETATM   21  N9  UNL     1      -5.665  41.491  47.996  1.00  0.00    -0.068 N 
ATOM     22  H93 UNL     1      -5.277  40.672  48.464  1.00  0.00     0.275 HD
ATOM     23  H92 UNL     1      -6.533  41.548  48.530  1.00  0.00     0.275 HD
ATOM     24  H91 UNL     1      -5.818  41.346  46.999  1.00  0.00     0.275 HD
ENDBRANCH   4  21
BRANCH   3  25
HETATM   25  N4  UNL     1      -5.200  43.953  45.965  1.00  0.00    -0.149 N 
HETATM   26  C9  UNL     1      -4.713  43.030  45.111  1.00  0.00     0.221 A 
HETATM   27  N5  UNL     1      -4.755  43.135  43.778  1.00  0.00    -0.187 N 
HETATM   28  C10 UNL     1      -5.312  44.218  43.208  1.00  0.00     0.691 A 
ATOM     29  H5  UNL     1      -4.365  42.394  43.195  1.00  0.00     0.185 HD
HETATM   30  N7  UNL     1      -5.808  45.162  44.001  1.00  0.00    -0.023 N 
HETATM   31  C11 UNL     1      -5.761  45.046  45.348  1.00  0.00     0.695 A 
ATOM     32  H7  UNL     1      -6.232  45.991  43.586  1.00  0.00     0.203 HD
BRANCH  28  33
HETATM   33  N6  UNL     1      -5.352  44.318  41.914  1.00  0.00    -0.234 N 
ATOM     34  H62 UNL     1      -4.913  43.627  41.305  1.00  0.00     0.174 HD
ATOM     35  H61 UNL     1      -5.833  45.106  41.480  1.00  0.00     0.174 HD
ENDBRANCH  28  33
BRANCH  31  36
HETATM   36  N8  UNL     1      -6.280  46.018  45.996  1.00  0.00    -0.234 N 
ATOM     37  H82 UNL     1      -7.295  46.090  45.932  1.00  0.00     0.174 HD
ATOM     38  H81 UNL     1      -5.726  46.674  46.546  1.00  0.00     0.174 HD
ENDBRANCH  31  36
ENDBRANCH   3  25
TORSDOF 12
ENDMDL
MODEL 3
REMARK VINA RESULT: -5.996933663      2.504      6.162
REMARK  12 active torsions:
REMARK  status: ('A' for Active; 'I' for Inactive)
REMARK    1  A    between atoms: C2_2  and  C3_3 
REMARK    2  A    between atoms: C2_2  and  N3_13 
REMARK    3  A    between atoms: C3_3  and  N1_4 
REMARK    4  A    between atoms: N1_4  and  C4_7 
REMARK    5  A    between atoms: C4_7  and  C5_8 
REMARK    6  A    between atoms: C5_8  and  N2_9 
REMARK    7  A    between atoms: N3_13  and  C6_16 
REMARK    8  A    between atoms: C6_16  and  C7_17 
REMARK    9  A    between atoms: C8_19  and  N4_20 
REMARK   10  A    between atoms: C10_24  and  N6_25 
REMARK   11  A    between atoms: C11_30  and  N8_31 
REMARK   12  A    between atoms: C12_34  and  N9_35 
ROOT
HETATM    1  C7  UNL     1      -5.443  46.282  48.734  1.00  0.00     0.184 C 
HETATM    2  O1  UNL     1      -5.796  45.316  49.709  1.00  0.00    -0.354 OA
HETATM    3  C8  UNL     1      -4.413  45.399  50.015  1.00  0.00     0.280 C 
HETATM    4  C12 UNL     1      -4.630  46.860  49.916  1.00  0.00     0.263 C 
ENDROOT
BRANCH   1   5
HETATM    5  C6  UNL     1      -6.501  47.076  48.145  1.00  0.00     0.266 C 
BRANCH   5   6
HETATM    6  N3  UNL     1      -6.663  47.165  46.748  1.00  0.00    -0.067 N 
ATOM      7  H32 UNL     1      -6.939  48.109  46.480  1.00  0.00     0.277 HD
ATOM      8  H31 UNL     1      -7.492  46.650  46.452  1.00  0.00     0.277 HD
BRANCH   6   9
HETATM    9  C2  UNL     1      -5.498  46.739  45.983  1.00  0.00     0.207 C 
HETATM   10  C1  UNL     1      -4.827  47.927  45.318  1.00  0.00     0.041 C 
BRANCH   9  11
HETATM   11  C3  UNL     1      -5.871  45.697  44.974  1.00  0.00     0.264 C 
BRANCH  11  12
HETATM   12  N1  UNL     1      -6.184  44.433  45.558  1.00  0.00    -0.072 N 
ATOM     13  H12 UNL     1      -6.962  44.526  46.211  1.00  0.00     0.277 HD
ATOM     14  H11 UNL     1      -6.611  43.818  44.865  1.00  0.00     0.277 HD
BRANCH  12  15
HETATM   15  C4  UNL     1      -5.075  43.781  46.190  1.00  0.00     0.259 C 
BRANCH  15  16
HETATM   16  C5  UNL     1      -5.509  42.574  47.009  1.00  0.00     0.257 C 
BRANCH  16  17
HETATM   17  N2  UNL     1      -6.630  43.004  47.834  1.00  0.00    -0.078 N 
ATOM     18  H23 UNL     1      -6.403  43.789  48.443  1.00  0.00     0.274 HD
ATOM     19  H22 UNL     1      -7.368  43.462  47.301  1.00  0.00     0.274 HD
ATOM     20  H21 UNL     1      -6.954  42.182  48.344  1.00  0.00     0.274 HD
ENDBRANCH  16  17
ENDBRANCH  15  16
ENDBRANCH  12  15
ENDBRANCH  11  12
ENDBRANCH   9  11
ENDBRANCH   6   9
ENDBRANCH   5   6
ENDBRANCH   1   5
BRANCH   4  21
HETATM   21  N9  UNL     1      -5.558  47.490  50.798  1.00  0.00    -0.068 N 
ATOM     22  H93 UNL     1      -6.529  47.367  50.511  1.00  0.00     0.275 HD
ATOM     23  H92 UNL     1      -5.628  47.025  51.703  1.00  0.00     0.275 HD
ATOM     24  H91 UNL     1      -5.284  48.470  50.873  1.00  0.00     0.275 HD
ENDBRANCH   4  21
BRANCH   3  25
HETATM   25  N4  UNL     1      -3.941  44.718  51.122  1.00  0.00    -0.149 N 
HETATM   26  C9  UNL     1      -4.656  44.440  52.231  1.00  0.00     0.221 A 
HETATM   27  N5  UNL     1      -4.181  43.777  53.291  1.00  0.00    -0.187 N 
HETATM   28  C10 UNL     1      -2.910  43.340  53.295  1.00  0.00     0.691 A 
ATOM     29  H5  UNL     1      -4.783  43.603  54.096  1.00  0.00     0.185 HD
HETATM   30  N7  UNL     1      -2.156  43.587  52.228  1.00  0.00    -0.023 N 
HETATM   31  C11 UNL     1      -2.646  44.257  51.161  1.00  0.00     0.695 A 
ATOM     32  H7  UNL     1      -1.189  43.264  52.214  1.00  0.00     0.203 HD
BRANCH  28  33
HETATM   33  N6  UNL     1      -2.450  42.696  54.325  1.00  0.00    -0.234 N 
ATOM     34  H62 UNL     1      -3.066  42.325  55.048  1.00  0.00     0.174 HD
ATOM     35  H61 UNL     1      -1.446  42.551  54.426  1.00  0.00     0.174 HD
ENDBRANCH  28  33
BRANCH  31  36
HETATM   36  N8  UNL     1      -1.823  44.421  50.196  1.00  0.00    -0.234 N 
ATOM     37  H82 UNL     1      -1.953  45.276  49.654  1.00  0.00     0.174 HD
ATOM     38  H81 UNL     1      -1.083  43.754  49.981  1.00  0.00     0.174 HD
ENDBRANCH  31  36
ENDBRANCH   3  25
TORSDOF 12
ENDMDL
MODEL 4
REMARK VINA RESULT: -5.954021641      2.245      6.622
REMARK  12 active torsions:
REMARK  status: ('A' for Active; 'I' for Inactive)
REMARK    1  A    between atoms: C2_2  and  C3_3 
REMARK    2  A    between atoms: C2_2  and  N3_13 
REMARK    3  A    between atoms: C3_3  and  N1_4 
REMARK    4  A    between atoms: N1_4  and  C4_7 
REMARK    5  A    between atoms: C4_7  and  C5_8 
REMARK    6  A    between atoms: C5_8  and  N2_9 
REMARK    7  A    between atoms: N3_13  and  C6_16 
REMARK    8  A    between atoms: C6_16  and  C7_17 
REMARK    9  A    between atoms: C8_19  and  N4_20 
REMARK   10  A    between atoms: C10_24  and  N6_25 
REMARK   11  A    between atoms: C11_30  and  N8_31 
REMARK   12  A    between atoms: C12_34  and  N9_35 
ROOT
HETATM    1  C7  UNL     1      -5.432  44.837  52.184  1.00  0.00     0.184 C 
HETATM    2  O1  UNL     1      -4.120  44.948  51.658  1.00  0.00    -0.354 OA
HETATM    3  C8  UNL     1      -4.142  43.538  51.822  1.00  0.00     0.280 C 
HETATM    4  C12 UNL     1      -5.487  43.637  51.210  1.00  0.00     0.263 C 
ENDROOT
BRANCH   1   5
HETATM    5  C6  UNL     1      -6.341  45.949  51.991  1.00  0.00     0.266 C 
BRANCH   5   6
HETATM    6  N3  UNL     1      -5.878  47.279  51.957  1.00  0.00    -0.067 N 
ATOM      7  H32 UNL     1      -4.858  47.303  51.978  1.00  0.00     0.277 HD
ATOM      8  H31 UNL     1      -6.080  47.750  52.839  1.00  0.00     0.277 HD
BRANCH   6   9
HETATM    9  C2  UNL     1      -6.382  48.059  50.835  1.00  0.00     0.207 C 
HETATM   10  C1  UNL     1      -7.852  47.767  50.593  1.00  0.00     0.041 C 
BRANCH   9  11
HETATM   11  C3  UNL     1      -5.573  47.807  49.600  1.00  0.00     0.264 C 
BRANCH  11  12
HETATM   12  N1  UNL     1      -4.192  47.569  49.868  1.00  0.00    -0.072 N 
ATOM     13  H12 UNL     1      -3.728  48.434  50.143  1.00  0.00     0.277 HD
ATOM     14  H11 UNL     1      -4.084  47.032  50.728  1.00  0.00     0.277 HD
BRANCH  12  15
HETATM   15  C4  UNL     1      -3.482  46.940  48.793  1.00  0.00     0.259 C 
BRANCH  15  16
HETATM   16  C5  UNL     1      -2.135  46.387  49.240  1.00  0.00     0.257 C 
BRANCH  16  17
HETATM   17  N2  UNL     1      -1.437  47.472  49.917  1.00  0.00    -0.078 N 
ATOM     18  H23 UNL     1      -1.784  47.646  50.860  1.00  0.00     0.274 HD
ATOM     19  H22 UNL     1      -0.479  47.234  50.174  1.00  0.00     0.274 HD
ATOM     20  H21 UNL     1      -1.498  48.289  49.310  1.00  0.00     0.274 HD
ENDBRANCH  16  17
ENDBRANCH  15  16
ENDBRANCH  12  15
ENDBRANCH  11  12
ENDBRANCH   9  11
ENDBRANCH   6   9
ENDBRANCH   5   6
ENDBRANCH   1   5
BRANCH   4  21
HETATM   21  N9  UNL     1      -5.618  44.167  49.892  1.00  0.00    -0.068 N 
ATOM     22  H93 UNL     1      -6.480  43.880  49.430  1.00  0.00     0.275 HD
ATOM     23  H92 UNL     1      -5.792  45.173  49.882  1.00  0.00     0.275 HD
ATOM     24  H91 UNL     1      -4.780  43.902  49.376  1.00  0.00     0.275 HD
ENDBRANCH   4  21
BRANCH   3  25
HETATM   25  N4  UNL     1      -3.078  42.802  51.337  1.00  0.00    -0.149 N 
HETATM   26  C9  UNL     1      -3.176  41.728  50.527  1.00  0.00     0.221 A 
HETATM   27  N5  UNL     1      -2.132  41.030  50.066  1.00  0.00    -0.187 N 
HETATM   28  C10 UNL     1      -0.882  41.387  50.408  1.00  0.00     0.691 A 
ATOM     29  H5  UNL     1      -2.285  40.227  49.455  1.00  0.00     0.185 HD
HETATM   30  N7  UNL     1      -0.725  42.438  51.207  1.00  0.00    -0.023 N 
HETATM   31  C11 UNL     1      -1.786  43.138  51.667  1.00  0.00     0.695 A 
ATOM     32  H7  UNL     1       0.216  42.722  51.478  1.00  0.00     0.203 HD
BRANCH  28  33
HETATM   33  N6  UNL     1       0.130  40.708  49.960  1.00  0.00    -0.234 N 
ATOM     34  H62 UNL     1       1.062  41.115  49.888  1.00  0.00     0.174 HD
ATOM     35  H61 UNL     1       0.003  39.739  49.669  1.00  0.00     0.174 HD
ENDBRANCH  28  33
BRANCH  31  36
HETATM   36  N8  UNL     1      -1.499  44.131  52.419  1.00  0.00    -0.234 N 
ATOM     37  H82 UNL     1      -2.054  44.206  53.271  1.00  0.00     0.174 HD
ATOM     38  H81 UNL     1      -0.765  44.801  52.193  1.00  0.00     0.174 HD
ENDBRANCH  31  36
ENDBRANCH   3  25
TORSDOF 12
ENDMDL
MODEL 5
REMARK VINA RESULT: -5.948039492      2.773      6.361
REMARK  12 active torsions:
REMARK  status: ('A' for Active; 'I' for Inactive)
REMARK    1  A    between atoms: C2_2  and  C3_3 
REMARK    2  A    between atoms: C2_2  and  N3_13 
REMARK    3  A    between atoms: C3_3  and  N1_4 
REMARK    4  A    between atoms: N1_4  and  C4_7 
REMARK    5  A    between atoms: C4_7  and  C5_8 
REMARK    6  A    between atoms: C5_8  and  N2_9 
REMARK    7  A    between atoms: N3_13  and  C6_16 
REMARK    8  A    between atoms: C6_16  and  C7_17 
REMARK    9  A    between atoms: C8_19  and  N4_20 
REMARK   10  A    between atoms: C10_24  and  N6_25 
REMARK   11  A    between atoms: C11_30  and  N8_31 
REMARK   12  A    between atoms: C12_34  and  N9_35 
ROOT
HETATM    1  C7  UNL     1      -5.379  45.760  48.636  1.00  0.00     0.184 C 
HETATM    2  O1  UNL     1      -5.714  45.260  49.920  1.00  0.00    -0.354 OA
HETATM    3  C8  UNL     1      -4.369  44.807  49.883  1.00  0.00     0.280 C 
HETATM    4  C12 UNL     1      -4.081  46.166  49.372  1.00  0.00     0.263 C 
ENDROOT
BRANCH   1   5
HETATM    5  C6  UNL     1      -6.222  46.788  48.063  1.00  0.00     0.266 C 
BRANCH   5   6
HETATM    6  N3  UNL     1      -6.391  46.908  46.670  1.00  0.00    -0.067 N 
ATOM      7  H32 UNL     1      -6.875  47.777  46.442  1.00  0.00     0.277 HD
ATOM      8  H31 UNL     1      -7.079  46.234  46.334  1.00  0.00     0.277 HD
BRANCH   6   9
HETATM    9  C2  UNL     1      -5.155  46.799  45.906  1.00  0.00     0.207 C 
HETATM   10  C1  UNL     1      -4.770  48.141  45.310  1.00  0.00     0.041 C 
BRANCH   9  11
HETATM   11  C3  UNL     1      -5.272  45.751  44.843  1.00  0.00     0.264 C 
BRANCH  11  12
HETATM   12  N1  UNL     1      -6.471  44.982  44.936  1.00  0.00    -0.072 N 
ATOM     13  H12 UNL     1      -6.999  45.248  45.767  1.00  0.00     0.277 HD
ATOM     14  H11 UNL     1      -7.131  45.263  44.212  1.00  0.00     0.277 HD
BRANCH  12  15
HETATM   15  C4  UNL     1      -6.266  43.563  44.905  1.00  0.00     0.259 C 
BRANCH  15  16
HETATM   16  C5  UNL     1      -5.584  43.054  46.167  1.00  0.00     0.257 C 
BRANCH  16  17
HETATM   17  N2  UNL     1      -6.638  42.761  47.130  1.00  0.00    -0.078 N 
ATOM     18  H23 UNL     1      -6.627  43.382  47.938  1.00  0.00     0.274 HD
ATOM     19  H22 UNL     1      -7.569  43.005  46.792  1.00  0.00     0.274 HD
ATOM     20  H21 UNL     1      -6.547  41.777  47.379  1.00  0.00     0.274 HD
ENDBRANCH  16  17
ENDBRANCH  15  16
ENDBRANCH  12  15
ENDBRANCH  11  12
ENDBRANCH   9  11
ENDBRANCH   6   9
ENDBRANCH   5   6
ENDBRANCH   1   5
BRANCH   4  21
HETATM   21  N9  UNL     1      -4.392  47.298  50.183  1.00  0.00    -0.068 N 
ATOM     22  H93 UNL     1      -3.652  48.000  50.190  1.00  0.00     0.275 HD
ATOM     23  H92 UNL     1      -5.126  47.885  49.785  1.00  0.00     0.275 HD
ATOM     24  H91 UNL     1      -4.621  46.949  51.113  1.00  0.00     0.275 HD
ENDBRANCH   4  21
BRANCH   3  25
HETATM   25  N4  UNL     1      -3.835  44.234  51.022  1.00  0.00    -0.149 N 
HETATM   26  C9  UNL     1      -2.662  44.576  51.591  1.00  0.00     0.221 A 
HETATM   27  N5  UNL     1      -2.163  44.010  52.697  1.00  0.00    -0.187 N 
HETATM   28  C10 UNL     1      -2.845  43.031  53.315  1.00  0.00     0.691 A 
ATOM     29  H5  UNL     1      -1.267  44.322  53.070  1.00  0.00     0.185 HD
HETATM   30  N7  UNL     1      -4.010  42.651  52.798  1.00  0.00    -0.023 N 
HETATM   31  C11 UNL     1      -4.505  43.230  51.681  1.00  0.00     0.695 A 
ATOM     32  H7  UNL     1      -4.540  41.908  53.253  1.00  0.00     0.203 HD
BRANCH  28  33
HETATM   33  N6  UNL     1      -2.360  42.483  54.388  1.00  0.00    -0.234 N 
ATOM     34  H62 UNL     1      -1.554  41.859  54.357  1.00  0.00     0.174 HD
ATOM     35  H61 UNL     1      -2.788  42.674  55.293  1.00  0.00     0.174 HD
ENDBRANCH  28  33
BRANCH  31  36
HETATM   36  N8  UNL     1      -5.637  42.781  51.291  1.00  0.00    -0.234 N 
ATOM     37  H82 UNL     1      -6.227  43.454  50.803  1.00  0.00     0.174 HD
ATOM     38  H81 UNL     1      -5.933  41.818  51.448  1.00  0.00     0.174 HD
ENDBRANCH  31  36
ENDBRANCH   3  25
TORSDOF 12
ENDMDL
