MODEL 1
REMARK VINA RESULT: -6.256863294      0.000      0.000
REMARK  11 active torsions:
REMARK  status: ('A' for Active; 'I' for Inactive)
REMARK       I    between atoms: C1_4  and  N3_6 
REMARK    1  A    between atoms: N3_6  and  C2_8 
REMARK    2  A    between atoms: C2_8  and  C3_9 
REMARK    3  A    between atoms: C4_13  and  O1_14 
REMARK    4  A    between atoms: C5_16  and  C6_17 
REMARK    5  A    between atoms: C6_17  and  N5_18 
REMARK    6  A    between atoms: N5_18  and  O2_20 
REMARK    7  A    between atoms: O2_20  and  C7_21 
REMARK    8  A    between atoms: C7_21  and  C8_22 
REMARK    9  A    between atoms: C8_22  and  C9_23 
REMARK   10  A    between atoms: C9_23  and  O3_24 
REMARK   11  A    between atoms: O3_24  and  N6_25 
ROOT
HETATM    1  C3  UNL     1      -6.103  47.291  51.239  1.00  0.00     0.297 C 
HETATM    2  N4  UNL     1      -5.580  47.788  49.948  1.00  0.00    -0.033 N 
ATOM      3  H41 UNL     1      -4.742  48.354  50.081  1.00  0.00     0.281 HD
ATOM      4  H42 UNL     1      -6.192  48.499  49.549  1.00  0.00     0.281 HD
HETATM    5  C4  UNL     1      -5.346  46.719  49.018  1.00  0.00     0.344 C 
HETATM    6  C5  UNL     1      -4.343  45.772  49.570  1.00  0.00     0.160 C 
HETATM    7  N7  UNL     1      -4.608  45.378  50.920  1.00  0.00    -0.349 N 
ATOM      8  H7  UNL     1      -3.974  44.774  51.443  1.00  0.00     0.163 HD
HETATM    9  C10 UNL     1      -5.826  45.889  51.495  1.00  0.00     0.250 C 
HETATM   10  O4  UNL     1      -6.551  45.123  52.165  1.00  0.00    -0.271 OA
ENDROOT
BRANCH   6  11
HETATM   11  C6  UNL     1      -2.957  46.396  49.438  1.00  0.00     0.175 C 
BRANCH  11  12
HETATM   12  N5  UNL     1      -2.858  46.681  48.049  1.00  0.00    -0.301 N 
ATOM     13  H5  UNL     1      -3.004  47.618  47.674  1.00  0.00     0.187 HD
BRANCH  12  14
HETATM   14  O2  UNL     1      -2.568  45.660  47.285  1.00  0.00    -0.285 OA
BRANCH  14  15
HETATM   15  C7  UNL     1      -2.905  46.139  45.938  1.00  0.00     0.203 C 
BRANCH  15  16
HETATM   16  C8  UNL     1      -4.270  45.537  45.680  1.00  0.00     0.057 C 
BRANCH  16  17
HETATM   17  C9  UNL     1      -5.250  46.559  45.267  1.00  0.00     0.202 C 
BRANCH  17  18
HETATM   18  O3  UNL     1      -6.568  46.164  45.560  1.00  0.00    -0.287 OA
BRANCH  18  19
HETATM   19  N6  UNL     1      -7.371  47.159  45.977  1.00  0.00    -0.311 N 
ATOM     20  H62 UNL     1      -6.997  48.039  46.333  1.00  0.00     0.184 HD
ATOM     21  H61 UNL     1      -8.368  46.958  45.906  1.00  0.00     0.184 HD
ENDBRANCH  18  19
ENDBRANCH  17  18
ENDBRANCH  16  17
ENDBRANCH  15  16
ENDBRANCH  14  15
ENDBRANCH  12  14
ENDBRANCH  11  12
ENDBRANCH   6  11
BRANCH   5  22
HETATM   22  O1  UNL     1      -6.511  46.070  48.587  1.00  0.00    -0.368 OA
ATOM     23  H1  UNL     1      -7.061  46.596  48.019  1.00  0.00     0.212 HD
ENDBRANCH   5  22
BRANCH   1  24
HETATM   24  C2  UNL     1      -7.587  47.596  51.145  1.00  0.00     0.165 C 
BRANCH  24  25
HETATM   25  N3  UNL     1      -8.393  46.552  50.625  1.00  0.00    -0.362 N 
HETATM   26  C1  UNL     1      -9.486  46.976  49.825  1.00  0.00     0.181 C 
HETATM   27  N1  UNL     1     -10.669  46.867  50.268  1.00  0.00    -0.374 N 
HETATM   28  N2  UNL     1      -9.279  47.486  48.525  1.00  0.00    -0.064 NA
ATOM     29  H12 UNL     1     -11.454  47.172  49.693  1.00  0.00     0.158 HD
ATOM     30  H11 UNL     1     -10.818  46.499  51.208  1.00  0.00     0.158 HD
ATOM     31  H3  UNL     1      -8.203  45.567  50.813  1.00  0.00     0.162 HD
ENDBRANCH  24  25
ENDBRANCH   1  24
TORSDOF 11
ENDMDL
MODEL 2
REMARK VINA RESULT: -6.221585915      2.001      3.853
REMARK  11 active torsions:
REMARK  status: ('A' for Active; 'I' for Inactive)
REMARK       I    between atoms: C1_4  and  N3_6 
REMARK    1  A    between atoms: N3_6  and  C2_8 
REMARK    2  A    between atoms: C2_8  and  C3_9 
REMARK    3  A    between atoms: C4_13  and  O1_14 
REMARK    4  A    between atoms: C5_16  and  C6_17 
REMARK    5  A    between atoms: C6_17  and  N5_18 
REMARK    6  A    between atoms: N5_18  and  O2_20 
REMARK    7  A    between atoms: O2_20  and  C7_21 
REMARK    8  A    between atoms: C7_21  and  C8_22 
REMARK    9  A    between atoms: C8_22  and  C9_23 
REMARK   10  A    between atoms: C9_23  and  O3_24 
REMARK   11  A    between atoms: O3_24  and  N6_25 
ROOT
HETATM    1  C3  UNL     1      -6.054  47.492  51.117  1.00  0.00     0.297 C 
HETATM    2  N4  UNL     1      -5.600  47.983  49.799  1.00  0.00    -0.033 N 
ATOM      3  H41 UNL     1      -4.784  48.589  49.890  1.00  0.00     0.281 HD
ATOM      4  H42 UNL     1      -6.257  48.658  49.407  1.00  0.00     0.281 HD
HETATM    5  C4  UNL     1      -5.351  46.906  48.883  1.00  0.00     0.344 C 
HETATM    6  C5  UNL     1      -4.286  46.016  49.417  1.00  0.00     0.160 C 
HETATM    7  N7  UNL     1      -4.486  45.642  50.784  1.00  0.00    -0.349 N 
ATOM      8  H7  UNL     1      -3.807  45.078  51.296  1.00  0.00     0.163 HD
HETATM    9  C10 UNL     1      -5.706  46.110  51.392  1.00  0.00     0.250 C 
HETATM   10  O4  UNL     1      -6.370  45.328  52.104  1.00  0.00    -0.271 OA
ENDROOT
BRANCH   6  11
HETATM   11  C6  UNL     1      -2.936  46.699  49.223  1.00  0.00     0.175 C 
BRANCH  11  12
HETATM   12  N5  UNL     1      -2.172  46.231  50.325  1.00  0.00    -0.301 N 
ATOM     13  H5  UNL     1      -2.344  46.546  51.280  1.00  0.00     0.187 HD
BRANCH  12  14
HETATM   14  O2  UNL     1      -1.232  45.370  50.033  1.00  0.00    -0.285 OA
BRANCH  14  15
HETATM   15  C7  UNL     1      -0.915  44.762  51.332  1.00  0.00     0.203 C 
BRANCH  15  16
HETATM   16  C8  UNL     1      -1.368  43.326  51.169  1.00  0.00     0.057 C 
BRANCH  16  17
HETATM   17  C9  UNL     1      -2.313  42.926  52.231  1.00  0.00     0.202 C 
BRANCH  17  18
HETATM   18  O3  UNL     1      -3.070  44.020  52.690  1.00  0.00    -0.287 OA
BRANCH  18  19
HETATM   19  N6  UNL     1      -4.088  43.691  53.504  1.00  0.00    -0.311 N 
ATOM     20  H62 UNL     1      -5.062  43.802  53.220  1.00  0.00     0.184 HD
ATOM     21  H61 UNL     1      -3.804  43.329  54.415  1.00  0.00     0.184 HD
ENDBRANCH  18  19
ENDBRANCH  17  18
ENDBRANCH  16  17
ENDBRANCH  15  16
ENDBRANCH  14  15
ENDBRANCH  12  14
ENDBRANCH  11  12
ENDBRANCH   6  11
BRANCH   5  22
HETATM   22  O1  UNL     1      -6.499  46.196  48.508  1.00  0.00    -0.368 OA
ATOM     23  H1  UNL     1      -6.987  46.594  47.796  1.00  0.00     0.212 HD
ENDBRANCH   5  22
BRANCH   1  24
HETATM   24  C2  UNL     1      -7.553  47.729  51.071  1.00  0.00     0.165 C 
BRANCH  24  25
HETATM   25  N3  UNL     1      -8.329  46.638  50.604  1.00  0.00    -0.362 N 
HETATM   26  C1  UNL     1      -9.454  46.994  49.815  1.00  0.00     0.181 C 
HETATM   27  N1  UNL     1     -10.622  46.854  50.289  1.00  0.00    -0.374 N 
HETATM   28  N2  UNL     1      -9.296  47.467  48.495  1.00  0.00    -0.064 NA
ATOM     29  H12 UNL     1     -11.431  47.109  49.722  1.00  0.00     0.158 HD
ATOM     30  H11 UNL     1     -10.736  46.512  51.243  1.00  0.00     0.158 HD
ATOM     31  H3  UNL     1      -8.096  45.668  50.819  1.00  0.00     0.162 HD
ENDBRANCH  24  25
ENDBRANCH   1  24
TORSDOF 11
ENDMDL
MODEL 3
REMARK VINA RESULT: -5.997650854      3.312      5.194
REMARK  11 active torsions:
REMARK  status: ('A' for Active; 'I' for Inactive)
REMARK       I    between atoms: C1_4  and  N3_6 
REMARK    1  A    between atoms: N3_6  and  C2_8 
REMARK    2  A    between atoms: C2_8  and  C3_9 
REMARK    3  A    between atoms: C4_13  and  O1_14 
REMARK    4  A    between atoms: C5_16  and  C6_17 
REMARK    5  A    between atoms: C6_17  and  N5_18 
REMARK    6  A    between atoms: N5_18  and  O2_20 
REMARK    7  A    between atoms: O2_20  and  C7_21 
REMARK    8  A    between atoms: C7_21  and  C8_22 
REMARK    9  A    between atoms: C8_22  and  C9_23 
REMARK   10  A    between atoms: C9_23  and  O3_24 
REMARK   11  A    between atoms: O3_24  and  N6_25 
ROOT
HETATM    1  C3  UNL     1      -5.646  45.268  49.963  1.00  0.00     0.297 C 
HETATM    2  N4  UNL     1      -5.495  44.439  48.749  1.00  0.00    -0.033 N 
ATOM      3  H41 UNL     1      -4.512  44.296  48.516  1.00  0.00     0.281 HD
ATOM      4  H42 UNL     1      -5.785  44.948  47.914  1.00  0.00     0.281 HD
HETATM    5  C4  UNL     1      -6.191  43.188  48.865  1.00  0.00     0.344 C 
HETATM    6  C5  UNL     1      -5.649  42.406  50.007  1.00  0.00     0.160 C 
HETATM    7  N7  UNL     1      -5.524  43.167  51.214  1.00  0.00    -0.349 N 
ATOM      8  H7  UNL     1      -5.117  42.774  52.062  1.00  0.00     0.163 HD
HETATM    9  C10 UNL     1      -6.009  44.522  51.154  1.00  0.00     0.250 C 
HETATM   10  O4  UNL     1      -6.688  44.968  52.103  1.00  0.00    -0.271 OA
ENDROOT
BRANCH   6  11
HETATM   11  C6  UNL     1      -4.312  41.801  49.594  1.00  0.00     0.175 C 
BRANCH  11  12
HETATM   12  N5  UNL     1      -3.490  42.017  50.733  1.00  0.00    -0.301 N 
ATOM     13  H5  UNL     1      -3.221  42.952  51.040  1.00  0.00     0.187 HD
BRANCH  12  14
HETATM   14  O2  UNL     1      -3.102  40.937  51.360  1.00  0.00    -0.285 OA
BRANCH  14  15
HETATM   15  C7  UNL     1      -2.005  41.416  52.211  1.00  0.00     0.203 C 
BRANCH  15  16
HETATM   16  C8  UNL     1      -2.554  41.264  53.614  1.00  0.00     0.057 C 
BRANCH  16  17
HETATM   17  C9  UNL     1      -2.791  42.573  54.253  1.00  0.00     0.202 C 
BRANCH  17  18
HETATM   18  O3  UNL     1      -3.586  43.409  53.447  1.00  0.00    -0.287 OA
BRANCH  18  19
HETATM   19  N6  UNL     1      -3.032  44.600  53.161  1.00  0.00    -0.311 N 
ATOM     20  H62 UNL     1      -2.210  44.945  53.657  1.00  0.00     0.184 HD
ATOM     21  H61 UNL     1      -3.500  45.118  52.417  1.00  0.00     0.184 HD
ENDBRANCH  18  19
ENDBRANCH  17  18
ENDBRANCH  16  17
ENDBRANCH  15  16
ENDBRANCH  14  15
ENDBRANCH  12  14
ENDBRANCH  11  12
ENDBRANCH   6  11
BRANCH   5  22
HETATM   22  O1  UNL     1      -7.586  43.311  48.918  1.00  0.00    -0.368 OA
ATOM     23  H1  UNL     1      -7.995  42.804  49.609  1.00  0.00     0.212 HD
ENDBRANCH   5  22
BRANCH   1  24
HETATM   24  C2  UNL     1      -6.698  46.283  49.554  1.00  0.00     0.165 C 
BRANCH  24  25
HETATM   25  N3  UNL     1      -8.039  45.921  49.839  1.00  0.00    -0.362 N 
HETATM   26  C1  UNL     1      -8.997  46.949  49.634  1.00  0.00     0.181 C 
HETATM   27  N1  UNL     1      -9.556  47.493  50.633  1.00  0.00    -0.374 N 
HETATM   28  N2  UNL     1      -9.364  47.350  48.332  1.00  0.00    -0.064 NA
ATOM     29  H12 UNL     1     -10.245  48.231  50.486  1.00  0.00     0.158 HD
ATOM     30  H11 UNL     1      -9.290  47.203  51.574  1.00  0.00     0.158 HD
ATOM     31  H3  UNL     1      -8.297  44.990  50.167  1.00  0.00     0.162 HD
ENDBRANCH  24  25
ENDBRANCH   1  24
TORSDOF 11
ENDMDL
MODEL 4
REMARK VINA RESULT: -5.975302187      2.517      3.720
REMARK  11 active torsions:
REMARK  status: ('A' for Active; 'I' for Inactive)
REMARK       I    between atoms: C1_4  and  N3_6 
REMARK    1  A    between atoms: N3_6  and  C2_8 
REMARK    2  A    between atoms: C2_8  and  C3_9 
REMARK    3  A    between atoms: C4_13  and  O1_14 
REMARK    4  A    between atoms: C5_16  and  C6_17 
REMARK    5  A    between atoms: C6_17  and  N5_18 
REMARK    6  A    between atoms: N5_18  and  O2_20 
REMARK    7  A    between atoms: O2_20  and  C7_21 
REMARK    8  A    between atoms: C7_21  and  C8_22 
REMARK    9  A    between atoms: C8_22  and  C9_23 
REMARK   10  A    between atoms: C9_23  and  O3_24 
REMARK   11  A    between atoms: O3_24  and  N6_25 
ROOT
HETATM    1  C3  UNL     1      -5.823  45.853  50.364  1.00  0.00     0.297 C 
HETATM    2  N4  UNL     1      -5.220  44.874  49.435  1.00  0.00    -0.033 N 
ATOM      3  H41 UNL     1      -4.202  44.885  49.493  1.00  0.00     0.281 HD
ATOM      4  H42 UNL     1      -5.328  45.168  48.464  1.00  0.00     0.281 HD
HETATM    5  C4  UNL     1      -5.741  43.551  49.639  1.00  0.00     0.344 C 
HETATM    6  C5  UNL     1      -5.444  43.093  51.022  1.00  0.00     0.160 C 
HETATM    7  N7  UNL     1      -5.773  44.057  52.027  1.00  0.00    -0.349 N 
ATOM      8  H7  UNL     1      -5.574  43.899  53.015  1.00  0.00     0.163 HD
HETATM    9  C10 UNL     1      -6.403  45.264  51.557  1.00  0.00     0.250 C 
HETATM   10  O4  UNL     1      -7.379  45.726  52.186  1.00  0.00    -0.271 OA
ENDROOT
BRANCH   6  11
HETATM   11  C6  UNL     1      -3.974  42.694  51.098  1.00  0.00     0.175 C 
BRANCH  11  12
HETATM   12  N5  UNL     1      -3.471  43.501  52.153  1.00  0.00    -0.301 N 
ATOM     13  H5  UNL     1      -3.529  43.217  53.131  1.00  0.00     0.187 HD
BRANCH  12  14
HETATM   14  O2  UNL     1      -2.929  44.633  51.786  1.00  0.00    -0.285 OA
BRANCH  14  15
HETATM   15  C7  UNL     1      -1.511  44.289  51.614  1.00  0.00     0.203 C 
BRANCH  15  16
HETATM   16  C8  UNL     1      -1.015  45.322  50.624  1.00  0.00     0.057 C 
BRANCH  16  17
HETATM   17  C9  UNL     1      -1.553  45.084  49.270  1.00  0.00     0.202 C 
BRANCH  17  18
HETATM   18  O3  UNL     1      -2.424  46.113  48.869  1.00  0.00    -0.287 OA
BRANCH  18  19
HETATM   19  N6  UNL     1      -2.487  47.155  49.717  1.00  0.00    -0.311 N 
ATOM     20  H62 UNL     1      -3.335  47.373  50.240  1.00  0.00     0.184 HD
ATOM     21  H61 UNL     1      -1.625  47.696  49.787  1.00  0.00     0.184 HD
ENDBRANCH  18  19
ENDBRANCH  17  18
ENDBRANCH  16  17
ENDBRANCH  15  16
ENDBRANCH  14  15
ENDBRANCH  12  14
ENDBRANCH  11  12
ENDBRANCH   6  11
BRANCH   5  22
HETATM   22  O1  UNL     1      -7.097  43.412  49.311  1.00  0.00    -0.368 OA
ATOM     23  H1  UNL     1      -7.689  43.838  49.920  1.00  0.00     0.212 HD
ENDBRANCH   5  22
BRANCH   1  24
HETATM   24  C2  UNL     1      -6.844  46.564  49.495  1.00  0.00     0.165 C 
BRANCH  24  25
HETATM   25  N3  UNL     1      -8.146  46.000  49.498  1.00  0.00    -0.362 N 
HETATM   26  C1  UNL     1      -9.209  46.939  49.440  1.00  0.00     0.181 C 
HETATM   27  N1  UNL     1      -9.933  47.131  50.463  1.00  0.00    -0.374 N 
HETATM   28  N2  UNL     1      -9.496  47.638  48.249  1.00  0.00    -0.064 NA
ATOM     29  H12 UNL     1     -10.697  47.805  50.422  1.00  0.00     0.158 HD
ATOM     30  H11 UNL     1      -9.725  46.626  51.324  1.00  0.00     0.158 HD
ATOM     31  H3  UNL     1      -8.307  44.994  49.539  1.00  0.00     0.162 HD
ENDBRANCH  24  25
ENDBRANCH   1  24
TORSDOF 11
ENDMDL
MODEL 5
REMARK VINA RESULT: -5.952618970      2.211      4.975
REMARK  11 active torsions:
REMARK  status: ('A' for Active; 'I' for Inactive)
REMARK       I    between atoms: C1_4  and  N3_6 
REMARK    1  A    between atoms: N3_6  and  C2_8 
REMARK    2  A    between atoms: C2_8  and  C3_9 
REMARK    3  A    between atoms: C4_13  and  O1_14 
REMARK    4  A    between atoms: C5_16  and  C6_17 
REMARK    5  A    between atoms: C6_17  and  N5_18 
REMARK    6  A    between atoms: N5_18  and  O2_20 
REMARK    7  A    between atoms: O2_20  and  C7_21 
REMARK    8  A    between atoms: C7_21  and  C8_22 
REMARK    9  A    between atoms: C8_22  and  C9_23 
REMARK   10  A    between atoms: C9_23  and  O3_24 
REMARK   11  A    between atoms: O3_24  and  N6_25 
ROOT
HETATM    1  C3  UNL     1      -4.757  45.671  48.830  1.00  0.00     0.297 C 
HETATM    2  N4  UNL     1      -6.226  45.836  48.862  1.00  0.00    -0.033 N 
ATOM      3  H41 UNL     1      -6.643  45.302  49.625  1.00  0.00     0.281 HD
ATOM      4  H42 UNL     1      -6.670  45.363  48.075  1.00  0.00     0.281 HD
HETATM    5  C4  UNL     1      -6.608  47.219  48.923  1.00  0.00     0.344 C 
HETATM    6  C5  UNL     1      -6.064  47.845  50.156  1.00  0.00     0.160 C 
HETATM    7  N7  UNL     1      -4.676  47.570  50.373  1.00  0.00    -0.349 N 
ATOM      8  H7  UNL     1      -4.184  47.892  51.207  1.00  0.00     0.163 HD
HETATM    9  C10 UNL     1      -4.017  46.811  49.341  1.00  0.00     0.250 C 
HETATM   10  O4  UNL     1      -2.880  47.160  48.960  1.00  0.00    -0.271 OA
ENDROOT
BRANCH   6  11
HETATM   11  C6  UNL     1      -6.908  47.399  51.345  1.00  0.00     0.175 C 
BRANCH  11  12
HETATM   12  N5  UNL     1      -6.022  46.570  52.083  1.00  0.00    -0.301 N 
ATOM     13  H5  UNL     1      -5.223  46.947  52.594  1.00  0.00     0.187 HD
BRANCH  12  14
HETATM   14  O2  UNL     1      -6.298  45.292  52.062  1.00  0.00    -0.285 OA
BRANCH  14  15
HETATM   15  C7  UNL     1      -5.013  44.663  52.395  1.00  0.00     0.203 C 
BRANCH  15  16
HETATM   16  C8  UNL     1      -4.930  43.499  51.430  1.00  0.00     0.057 C 
BRANCH  16  17
HETATM   17  C9  UNL     1      -6.268  42.995  51.063  1.00  0.00     0.202 C 
BRANCH  17  18
HETATM   18  O3  UNL     1      -6.414  42.877  49.669  1.00  0.00    -0.287 OA
BRANCH  18  19
HETATM   19  N6  UNL     1      -7.689  42.814  49.244  1.00  0.00    -0.311 N 
ATOM     20  H62 UNL     1      -8.403  42.299  49.758  1.00  0.00     0.184 HD
ATOM     21  H61 UNL     1      -7.872  43.320  48.377  1.00  0.00     0.184 HD
ENDBRANCH  18  19
ENDBRANCH  17  18
ENDBRANCH  16  17
ENDBRANCH  15  16
ENDBRANCH  14  15
ENDBRANCH  12  14
ENDBRANCH  11  12
ENDBRANCH   6  11
BRANCH   5  22
HETATM   22  O1  UNL     1      -6.295  47.951  47.770  1.00  0.00    -0.368 OA
ATOM     23  H1  UNL     1      -6.208  48.886  47.915  1.00  0.00     0.212 HD
ENDBRANCH   5  22
BRANCH   1  24
HETATM   24  C2  UNL     1      -4.478  45.389  47.365  1.00  0.00     0.165 C 
BRANCH  24  25
HETATM   25  N3  UNL     1      -5.592  44.953  46.604  1.00  0.00    -0.362 N 
HETATM   26  C1  UNL     1      -5.760  45.605  45.355  1.00  0.00     0.181 C 
HETATM   27  N1  UNL     1      -6.720  46.418  45.195  1.00  0.00    -0.374 N 
HETATM   28  N2  UNL     1      -4.895  45.336  44.273  1.00  0.00    -0.064 NA
ATOM     29  H12 UNL     1      -6.841  46.886  44.297  1.00  0.00     0.158 HD
ATOM     30  H11 UNL     1      -7.345  46.612  45.977  1.00  0.00     0.158 HD
ATOM     31  H3  UNL     1      -6.227  44.224  46.930  1.00  0.00     0.162 HD
ENDBRANCH  24  25
ENDBRANCH   1  24
TORSDOF 11
ENDMDL
