MODEL 1
REMARK VINA RESULT: -6.375208684      0.000      0.000
REMARK  13 active torsions:
REMARK  status: ('A' for Active; 'I' for Inactive)
REMARK    1  A    between atoms: O1_1  and  C1_3 
REMARK    2  A    between atoms: C3_8  and  N2_9 
REMARK    3  A    between atoms: N2_9  and  C4_12 
REMARK    4  A    between atoms: C4_12  and  C5_13 
REMARK    5  A    between atoms: C5_13  and  N3_14 
REMARK    6  A    between atoms: N3_14  and  C6_16 
REMARK    7  A    between atoms: C6_16  and  C7_17 
REMARK    8  A    between atoms: C7_17  and  C8_18 
REMARK    9  A    between atoms: C8_18  and  N4_19 
REMARK   10  A    between atoms: N4_19  and  C9_21 
REMARK   11  A    between atoms: C9_21  and  C10_22 
REMARK   12  A    between atoms: C11_25  and  O3_26 
REMARK   13  A    between atoms: C12_28  and  O4_29 
ROOT
HETATM    1  C4  UNL     1      -6.512  42.832  50.019  1.00  0.00     0.254 C 
ENDROOT
BRANCH   1   2
HETATM    2  N2  UNL     1      -6.016  43.114  51.318  1.00  0.00    -0.042 N 
ATOM      3  H22 UNL     1      -6.378  42.445  51.997  1.00  0.00     0.279 HD
ATOM      4  H21 UNL     1      -6.431  43.970  51.686  1.00  0.00     0.279 HD
BRANCH   2   5
HETATM    5  C3  UNL     1      -4.607  43.174  51.377  1.00  0.00     0.413 C 
HETATM    6  N1  UNL     1      -4.053  42.039  52.088  1.00  0.00    -0.041 N 
HETATM    7  C2  UNL     1      -3.040  42.505  52.993  1.00  0.00     0.269 C 
ATOM      8  H12 UNL     1      -3.707  41.315  51.457  1.00  0.00     0.279 HD
ATOM      9  H11 UNL     1      -4.770  41.486  52.559  1.00  0.00     0.279 HD
HETATM   10  C1  UNL     1      -2.752  43.906  52.555  1.00  0.00     0.176 C 
HETATM   11  C12 UNL     1      -4.112  44.404  52.134  1.00  0.00     0.206 C 
BRANCH  10  12
HETATM   12  O1  UNL     1      -2.194  44.681  53.576  1.00  0.00    -0.391 OA
ATOM     13  H1  UNL     1      -2.796  44.820  54.297  1.00  0.00     0.210 HD
ENDBRANCH  10  12
BRANCH  11  14
HETATM   14  O4  UNL     1      -4.980  44.621  53.185  1.00  0.00    -0.389 OA
ATOM     15  H4  UNL     1      -5.853  44.273  53.043  1.00  0.00     0.210 HD
ENDBRANCH  11  14
ENDBRANCH   2   5
ENDBRANCH   1   2
BRANCH   1  16
HETATM   16  C5  UNL     1      -5.492  43.327  48.967  1.00  0.00     0.146 C 
BRANCH  16  17
HETATM   17  N3  UNL     1      -5.922  44.477  48.317  1.00  0.00    -0.401 N 
ATOM     18  H3  UNL     1      -6.925  44.661  48.307  1.00  0.00     0.158 HD
BRANCH  17  19
HETATM   19  C6  UNL     1      -5.106  45.389  47.685  1.00  0.00     0.057 C 
BRANCH  19  20
HETATM   20  C7  UNL     1      -4.721  46.669  48.297  1.00  0.00     0.063 C 
BRANCH  20  21
HETATM   21  C8  UNL     1      -4.911  46.874  49.749  1.00  0.00     0.119 C 
BRANCH  21  22
HETATM   22  N4  UNL     1      -5.924  47.915  49.959  1.00  0.00    -0.418 N 
ATOM     23  H4  UNL     1      -5.752  48.894  49.730  1.00  0.00     0.153 HD
BRANCH  22  24
HETATM   24  C9  UNL     1      -7.152  47.471  50.500  1.00  0.00     0.151 C 
BRANCH  24  25
HETATM   25  C10 UNL     1      -7.990  46.946  49.337  1.00  0.00     0.211 C 
HETATM   26  O2  UNL     1      -8.571  45.720  49.575  1.00  0.00    -0.273 OA
HETATM   27  N5  UNL     1      -9.785  46.293  49.698  1.00  0.00    -0.066 NA
HETATM   28  C11 UNL     1      -9.327  47.554  49.169  1.00  0.00     0.270 C 
BRANCH  28  29
HETATM   29  O3  UNL     1      -9.644  47.761  47.822  1.00  0.00    -0.375 OA
ATOM     30  H3  UNL     1      -9.608  48.680  47.585  1.00  0.00     0.211 HD
ENDBRANCH  28  29
ENDBRANCH  24  25
ENDBRANCH  22  24
ENDBRANCH  21  22
ENDBRANCH  20  21
ENDBRANCH  19  20
ENDBRANCH  17  19
ENDBRANCH  16  17
ENDBRANCH   1  16
TORSDOF 13
ENDMDL
MODEL 2
REMARK VINA RESULT: -6.372820698      1.226      1.648
REMARK  13 active torsions:
REMARK  status: ('A' for Active; 'I' for Inactive)
REMARK    1  A    between atoms: O1_1  and  C1_3 
REMARK    2  A    between atoms: C3_8  and  N2_9 
REMARK    3  A    between atoms: N2_9  and  C4_12 
REMARK    4  A    between atoms: C4_12  and  C5_13 
REMARK    5  A    between atoms: C5_13  and  N3_14 
REMARK    6  A    between atoms: N3_14  and  C6_16 
REMARK    7  A    between atoms: C6_16  and  C7_17 
REMARK    8  A    between atoms: C7_17  and  C8_18 
REMARK    9  A    between atoms: C8_18  and  N4_19 
REMARK   10  A    between atoms: N4_19  and  C9_21 
REMARK   11  A    between atoms: C9_21  and  C10_22 
REMARK   12  A    between atoms: C11_25  and  O3_26 
REMARK   13  A    between atoms: C12_28  and  O4_29 
ROOT
HETATM    1  C4  UNL     1      -6.555  42.561  50.148  1.00  0.00     0.254 C 
ENDROOT
BRANCH   1   2
HETATM    2  N2  UNL     1      -6.032  42.974  51.400  1.00  0.00    -0.042 N 
ATOM      3  H22 UNL     1      -6.362  42.366  52.149  1.00  0.00     0.279 HD
ATOM      4  H21 UNL     1      -6.456  43.853  51.697  1.00  0.00     0.279 HD
BRANCH   2   5
HETATM    5  C3  UNL     1      -4.624  43.066  51.415  1.00  0.00     0.413 C 
HETATM    6  N1  UNL     1      -4.024  41.969  52.148  1.00  0.00    -0.041 N 
HETATM    7  C2  UNL     1      -2.996  42.487  53.006  1.00  0.00     0.269 C 
ATOM      8  H12 UNL     1      -3.680  41.232  51.532  1.00  0.00     0.279 HD
ATOM      9  H11 UNL     1      -4.714  41.418  52.658  1.00  0.00     0.279 HD
HETATM   10  C1  UNL     1      -2.752  43.878  52.513  1.00  0.00     0.176 C 
HETATM   11  C12 UNL     1      -4.135  44.333  52.116  1.00  0.00     0.206 C 
BRANCH  10  12
HETATM   12  O1  UNL     1      -2.183  44.700  53.490  1.00  0.00    -0.391 OA
ATOM     13  H1  UNL     1      -1.655  45.395  53.117  1.00  0.00     0.210 HD
ENDBRANCH  10  12
BRANCH  11  14
HETATM   14  O4  UNL     1      -4.977  44.567  53.183  1.00  0.00    -0.389 OA
ATOM     15  H4  UNL     1      -5.807  44.960  52.941  1.00  0.00     0.210 HD
ENDBRANCH  11  14
ENDBRANCH   2   5
ENDBRANCH   1   2
BRANCH   1  16
HETATM   16  C5  UNL     1      -5.569  42.968  49.027  1.00  0.00     0.146 C 
BRANCH  16  17
HETATM   17  N3  UNL     1      -6.032  44.048  48.285  1.00  0.00    -0.401 N 
ATOM     18  H3  UNL     1      -7.033  44.091  48.098  1.00  0.00     0.158 HD
BRANCH  17  19
HETATM   19  C6  UNL     1      -5.251  45.063  47.780  1.00  0.00     0.057 C 
BRANCH  19  20
HETATM   20  C7  UNL     1      -4.136  45.657  48.533  1.00  0.00     0.063 C 
BRANCH  20  21
HETATM   21  C8  UNL     1      -4.145  47.104  48.836  1.00  0.00     0.119 C 
BRANCH  21  22
HETATM   22  N4  UNL     1      -4.750  47.315  50.156  1.00  0.00    -0.418 N 
ATOM     23  H4  UNL     1      -4.470  46.776  50.975  1.00  0.00     0.153 HD
BRANCH  22  24
HETATM   24  C9  UNL     1      -5.748  48.315  50.217  1.00  0.00     0.151 C 
BRANCH  24  25
HETATM   25  C10 UNL     1      -6.989  47.672  50.832  1.00  0.00     0.211 C 
HETATM   26  O2  UNL     1      -8.065  47.602  49.974  1.00  0.00    -0.273 OA
HETATM   27  N5  UNL     1      -7.903  46.269  49.843  1.00  0.00    -0.066 NA
HETATM   28  C11 UNL     1      -6.973  46.198  50.943  1.00  0.00     0.270 C 
BRANCH  28  29
HETATM   29  O3  UNL     1      -7.537  45.756  52.144  1.00  0.00    -0.375 OA
ATOM     30  H3  UNL     1      -7.956  46.461  52.623  1.00  0.00     0.211 HD
ENDBRANCH  28  29
ENDBRANCH  24  25
ENDBRANCH  22  24
ENDBRANCH  21  22
ENDBRANCH  20  21
ENDBRANCH  19  20
ENDBRANCH  17  19
ENDBRANCH  16  17
ENDBRANCH   1  16
TORSDOF 13
ENDMDL
MODEL 3
REMARK VINA RESULT: -6.230744316      2.877      5.169
REMARK  13 active torsions:
REMARK  status: ('A' for Active; 'I' for Inactive)
REMARK    1  A    between atoms: O1_1  and  C1_3 
REMARK    2  A    between atoms: C3_8  and  N2_9 
REMARK    3  A    between atoms: N2_9  and  C4_12 
REMARK    4  A    between atoms: C4_12  and  C5_13 
REMARK    5  A    between atoms: C5_13  and  N3_14 
REMARK    6  A    between atoms: N3_14  and  C6_16 
REMARK    7  A    between atoms: C6_16  and  C7_17 
REMARK    8  A    between atoms: C7_17  and  C8_18 
REMARK    9  A    between atoms: C8_18  and  N4_19 
REMARK   10  A    between atoms: N4_19  and  C9_21 
REMARK   11  A    between atoms: C9_21  and  C10_22 
REMARK   12  A    between atoms: C11_25  and  O3_26 
REMARK   13  A    between atoms: C12_28  and  O4_29 
ROOT
HETATM    1  C4  UNL     1      -6.279  47.610  46.844  1.00  0.00     0.254 C 
ENDROOT
BRANCH   1   2
HETATM    2  N2  UNL     1      -7.006  46.871  47.813  1.00  0.00    -0.042 N 
ATOM      3  H22 UNL     1      -6.900  45.868  47.659  1.00  0.00     0.279 HD
ATOM      4  H21 UNL     1      -8.011  46.960  47.658  1.00  0.00     0.279 HD
BRANCH   2   5
HETATM    5  C3  UNL     1      -6.672  47.211  49.141  1.00  0.00     0.413 C 
HETATM    6  N1  UNL     1      -5.528  46.456  49.615  1.00  0.00    -0.041 N 
HETATM    7  C2  UNL     1      -5.802  45.978  50.941  1.00  0.00     0.269 C 
ATOM      8  H12 UNL     1      -4.661  46.992  49.566  1.00  0.00     0.279 HD
ATOM      9  H11 UNL     1      -5.267  45.704  48.977  1.00  0.00     0.279 HD
HETATM   10  C1  UNL     1      -6.995  46.760  51.391  1.00  0.00     0.176 C 
HETATM   11  C12 UNL     1      -7.799  46.891  50.121  1.00  0.00     0.206 C 
BRANCH  10  12
HETATM   12  O1  UNL     1      -7.705  46.115  52.407  1.00  0.00    -0.391 OA
ATOM     13  H1  UNL     1      -8.509  46.567  52.631  1.00  0.00     0.210 HD
ENDBRANCH  10  12
BRANCH  11  14
HETATM   14  O4  UNL     1      -8.387  45.713  49.706  1.00  0.00    -0.389 OA
ATOM     15  H4  UNL     1      -8.936  45.302  50.364  1.00  0.00     0.210 HD
ENDBRANCH  11  14
ENDBRANCH   2   5
ENDBRANCH   1   2
BRANCH   1  16
HETATM   16  C5  UNL     1      -5.418  46.637  46.005  1.00  0.00     0.146 C 
BRANCH  16  17
HETATM   17  N3  UNL     1      -5.967  45.361  45.949  1.00  0.00    -0.401 N 
ATOM     18  H3  UNL     1      -6.378  44.991  46.806  1.00  0.00     0.158 HD
BRANCH  17  19
HETATM   19  C6  UNL     1      -6.003  44.555  44.833  1.00  0.00     0.057 C 
BRANCH  19  20
HETATM   20  C7  UNL     1      -6.417  43.146  44.884  1.00  0.00     0.063 C 
BRANCH  20  21
HETATM   21  C8  UNL     1      -5.551  42.150  45.550  1.00  0.00     0.119 C 
BRANCH  21  22
HETATM   22  N4  UNL     1      -6.094  41.854  46.881  1.00  0.00    -0.418 N 
ATOM     23  H4  UNL     1      -7.067  41.585  47.023  1.00  0.00     0.153 HD
BRANCH  22  24
HETATM   24  C9  UNL     1      -5.178  41.967  47.953  1.00  0.00     0.151 C 
BRANCH  24  25
HETATM   25  C10 UNL     1      -5.806  42.905  48.981  1.00  0.00     0.211 C 
HETATM   26  O2  UNL     1      -6.746  43.763  48.454  1.00  0.00    -0.273 OA
HETATM   27  N5  UNL     1      -7.743  43.068  49.038  1.00  0.00    -0.066 NA
HETATM   28  C11 UNL     1      -6.832  42.312  49.863  1.00  0.00     0.270 C 
BRANCH  28  29
HETATM   29  O3  UNL     1      -6.727  42.778  51.178  1.00  0.00    -0.375 OA
ATOM     30  H3  UNL     1      -7.290  42.297  51.773  1.00  0.00     0.211 HD
ENDBRANCH  28  29
ENDBRANCH  24  25
ENDBRANCH  22  24
ENDBRANCH  21  22
ENDBRANCH  20  21
ENDBRANCH  19  20
ENDBRANCH  17  19
ENDBRANCH  16  17
ENDBRANCH   1  16
TORSDOF 13
ENDMDL
MODEL 4
REMARK VINA RESULT: -6.145736671      2.132      5.823
REMARK  13 active torsions:
REMARK  status: ('A' for Active; 'I' for Inactive)
REMARK    1  A    between atoms: O1_1  and  C1_3 
REMARK    2  A    between atoms: C3_8  and  N2_9 
REMARK    3  A    between atoms: N2_9  and  C4_12 
REMARK    4  A    between atoms: C4_12  and  C5_13 
REMARK    5  A    between atoms: C5_13  and  N3_14 
REMARK    6  A    between atoms: N3_14  and  C6_16 
REMARK    7  A    between atoms: C6_16  and  C7_17 
REMARK    8  A    between atoms: C7_17  and  C8_18 
REMARK    9  A    between atoms: C8_18  and  N4_19 
REMARK   10  A    between atoms: N4_19  and  C9_21 
REMARK   11  A    between atoms: C9_21  and  C10_22 
REMARK   12  A    between atoms: C11_25  and  O3_26 
REMARK   13  A    between atoms: C12_28  and  O4_29 
ROOT
HETATM    1  C4  UNL     1      -3.866  47.533  49.413  1.00  0.00     0.254 C 
ENDROOT
BRANCH   1   2
HETATM    2  N2  UNL     1      -4.810  46.887  50.251  1.00  0.00    -0.042 N 
ATOM      3  H22 UNL     1      -4.468  46.839  51.211  1.00  0.00     0.279 HD
ATOM      4  H21 UNL     1      -4.860  45.890  50.039  1.00  0.00     0.279 HD
BRANCH   2   5
HETATM    5  C3  UNL     1      -6.092  47.474  50.206  1.00  0.00     0.413 C 
HETATM    6  N1  UNL     1      -6.725  47.479  51.510  1.00  0.00    -0.041 N 
HETATM    7  C2  UNL     1      -8.090  47.055  51.367  1.00  0.00     0.269 C 
ATOM      8  H12 UNL     1      -6.645  48.382  51.978  1.00  0.00     0.279 HD
ATOM      9  H11 UNL     1      -6.214  46.919  52.192  1.00  0.00     0.279 HD
HETATM   10  C1  UNL     1      -8.363  47.135  49.899  1.00  0.00     0.176 C 
HETATM   11  C12 UNL     1      -7.049  46.705  49.297  1.00  0.00     0.206 C 
BRANCH  10  12
HETATM   12  O1  UNL     1      -9.422  46.312  49.507  1.00  0.00    -0.391 OA
ATOM     13  H1  UNL     1      -9.805  46.582  48.681  1.00  0.00     0.210 HD
ENDBRANCH  10  12
BRANCH  11  14
HETATM   14  O4  UNL     1      -6.774  45.361  49.449  1.00  0.00    -0.389 OA
ATOM     15  H4  UNL     1      -6.441  44.943  48.664  1.00  0.00     0.210 HD
ENDBRANCH  11  14
ENDBRANCH   2   5
ENDBRANCH   1   2
BRANCH   1  16
HETATM   16  C5  UNL     1      -2.693  46.564  49.127  1.00  0.00     0.146 C 
BRANCH  16  17
HETATM   17  N3  UNL     1      -1.715  46.617  50.113  1.00  0.00    -0.401 N 
ATOM     18  H3  UNL     1      -1.952  47.096  50.981  1.00  0.00     0.158 HD
BRANCH  17  19
HETATM   19  C6  UNL     1      -0.452  46.078  50.013  1.00  0.00     0.057 C 
BRANCH  19  20
HETATM   20  C7  UNL     1      -0.032  44.893  50.775  1.00  0.00     0.063 C 
BRANCH  20  21
HETATM   21  C8  UNL     1      -0.868  43.673  50.755  1.00  0.00     0.119 C 
BRANCH  21  22
HETATM   22  N4  UNL     1      -1.392  43.427  52.103  1.00  0.00    -0.418 N 
ATOM     23  H4  UNL     1      -0.833  43.587  52.941  1.00  0.00     0.153 HD
BRANCH  22  24
HETATM   24  C9  UNL     1      -2.722  42.953  52.164  1.00  0.00     0.151 C 
BRANCH  24  25
HETATM   25  C10 UNL     1      -3.634  44.138  51.856  1.00  0.00     0.211 C 
HETATM   26  O2  UNL     1      -4.475  43.933  50.785  1.00  0.00    -0.273 OA
HETATM   27  N5  UNL     1      -5.536  43.816  51.610  1.00  0.00    -0.066 NA
HETATM   28  C11 UNL     1      -4.800  44.312  52.747  1.00  0.00     0.270 C 
BRANCH  28  29
HETATM   29  O3  UNL     1      -5.039  45.659  53.042  1.00  0.00    -0.375 OA
ATOM     30  H3  UNL     1      -5.244  45.792  53.960  1.00  0.00     0.211 HD
ENDBRANCH  28  29
ENDBRANCH  24  25
ENDBRANCH  22  24
ENDBRANCH  21  22
ENDBRANCH  20  21
ENDBRANCH  19  20
ENDBRANCH  17  19
ENDBRANCH  16  17
ENDBRANCH   1  16
TORSDOF 13
ENDMDL
MODEL 5
REMARK VINA RESULT: -5.962157064      2.717      5.081
REMARK  13 active torsions:
REMARK  status: ('A' for Active; 'I' for Inactive)
REMARK    1  A    between atoms: O1_1  and  C1_3 
REMARK    2  A    between atoms: C3_8  and  N2_9 
REMARK    3  A    between atoms: N2_9  and  C4_12 
REMARK    4  A    between atoms: C4_12  and  C5_13 
REMARK    5  A    between atoms: C5_13  and  N3_14 
REMARK    6  A    between atoms: N3_14  and  C6_16 
REMARK    7  A    between atoms: C6_16  and  C7_17 
REMARK    8  A    between atoms: C7_17  and  C8_18 
REMARK    9  A    between atoms: C8_18  and  N4_19 
REMARK   10  A    between atoms: N4_19  and  C9_21 
REMARK   11  A    between atoms: C9_21  and  C10_22 
REMARK   12  A    between atoms: C11_25  and  O3_26 
REMARK   13  A    between atoms: C12_28  and  O4_29 
ROOT
HETATM    1  C4  UNL     1      -3.030  46.594  49.019  1.00  0.00     0.254 C 
ENDROOT
BRANCH   1   2
HETATM    2  N2  UNL     1      -4.366  46.746  48.565  1.00  0.00    -0.042 N 
ATOM      3  H22 UNL     1      -4.820  47.531  49.032  1.00  0.00     0.279 HD
ATOM      4  H21 UNL     1      -4.953  45.984  48.905  1.00  0.00     0.279 HD
BRANCH   2   5
HETATM    5  C3  UNL     1      -4.468  46.871  47.163  1.00  0.00     0.413 C 
HETATM    6  N1  UNL     1      -5.497  47.820  46.785  1.00  0.00    -0.041 N 
HETATM    7  C2  UNL     1      -6.277  47.260  45.716  1.00  0.00     0.269 C 
ATOM      8  H12 UNL     1      -5.113  48.735  46.548  1.00  0.00     0.279 HD
ATOM      9  H11 UNL     1      -6.072  48.107  47.577  1.00  0.00     0.279 HD
HETATM   10  C1  UNL     1      -5.473  46.100  45.223  1.00  0.00     0.176 C 
HETATM   11  C12 UNL     1      -4.867  45.557  46.493  1.00  0.00     0.206 C 
BRANCH  10  12
HETATM   12  O1  UNL     1      -6.255  45.151  44.559  1.00  0.00    -0.391 OA
ATOM     13  H1  UNL     1      -5.883  44.278  44.602  1.00  0.00     0.210 HD
ENDBRANCH  10  12
BRANCH  11  14
HETATM   14  O4  UNL     1      -5.772  44.927  47.323  1.00  0.00    -0.389 OA
ATOM     15  H4  UNL     1      -6.132  45.489  47.999  1.00  0.00     0.210 HD
ENDBRANCH  11  14
ENDBRANCH   2   5
ENDBRANCH   1   2
BRANCH   1  16
HETATM   16  C5  UNL     1      -2.950  45.365  49.956  1.00  0.00     0.146 C 
BRANCH  16  17
HETATM   17  N3  UNL     1      -3.994  44.472  49.744  1.00  0.00    -0.401 N 
ATOM     18  H3  UNL     1      -4.218  44.235  48.778  1.00  0.00     0.158 HD
BRANCH  17  19
HETATM   19  C6  UNL     1      -4.751  43.882  50.731  1.00  0.00     0.057 C 
BRANCH  19  20
HETATM   20  C7  UNL     1      -5.895  44.554  51.365  1.00  0.00     0.063 C 
BRANCH  20  21
HETATM   21  C8  UNL     1      -5.659  45.607  52.375  1.00  0.00     0.119 C 
BRANCH  21  22
HETATM   22  N4  UNL     1      -6.094  46.900  51.833  1.00  0.00    -0.418 N 
ATOM     23  H4  UNL     1      -5.437  47.570  51.435  1.00  0.00     0.153 HD
BRANCH  22  24
HETATM   24  C9  UNL     1      -7.483  47.154  51.900  1.00  0.00     0.151 C 
BRANCH  24  25
HETATM   25  C10 UNL     1      -7.895  47.744  50.554  1.00  0.00     0.211 C 
HETATM   26  O2  UNL     1      -6.898  47.722  49.605  1.00  0.00    -0.273 OA
HETATM   27  N5  UNL     1      -7.523  46.732  48.936  1.00  0.00    -0.066 NA
HETATM   28  C11 UNL     1      -8.739  46.885  49.697  1.00  0.00     0.270 C 
BRANCH  28  29
HETATM   29  O3  UNL     1      -9.738  47.615  49.043  1.00  0.00    -0.375 OA
ATOM     30  H3  UNL     1     -10.375  47.050  48.623  1.00  0.00     0.211 HD
ENDBRANCH  28  29
ENDBRANCH  24  25
ENDBRANCH  22  24
ENDBRANCH  21  22
ENDBRANCH  20  21
ENDBRANCH  19  20
ENDBRANCH  17  19
ENDBRANCH  16  17
ENDBRANCH   1  16
TORSDOF 13
ENDMDL
