MODEL 1
REMARK VINA RESULT: -6.154759279      0.000      0.000
REMARK  14 active torsions:
REMARK  status: ('A' for Active; 'I' for Inactive)
REMARK    1  A    between atoms: N1_1  and  C1_5 
REMARK    2  A    between atoms: C1_5  and  C2_6 
REMARK    3  A    between atoms: C2_6  and  N2_7 
REMARK    4  A    between atoms: N2_7  and  C3_10 
REMARK    5  A    between atoms: C3_10  and  C4_11 
REMARK    6  A    between atoms: C4_11  and  N3_12 
REMARK    7  A    between atoms: N3_12  and  C5_14 
REMARK    8  A    between atoms: C6_15  and  O1_16 
REMARK    9  A    between atoms: C7_18  and  O2_19 
REMARK   10  A    between atoms: C8_21  and  N4_22 
REMARK   11  A    between atoms: N4_22  and  C9_24 
REMARK   12  A    between atoms: C10_26  and  N5_27 
REMARK   13  A    between atoms: C11_31  and  C12_32 
REMARK   14  A    between atoms: C12_32  and  N6_33 
ROOT
HETATM    1  C5  UNL     1      -4.911  44.188  49.948  1.00  0.00     0.115 C 
HETATM    2  C6  UNL     1      -5.705  44.384  51.191  1.00  0.00     0.171 C 
HETATM    3  C7  UNL     1      -6.387  45.729  51.284  1.00  0.00     0.173 C 
HETATM    4  C8  UNL     1      -7.050  46.098  49.999  1.00  0.00     0.146 C 
HETATM    5  C10 UNL     1      -5.938  46.194  48.937  1.00  0.00     0.216 C 
HETATM    6  C11 UNL     1      -5.501  44.778  48.697  1.00  0.00     0.068 C 
ENDROOT
BRANCH   1   7
HETATM    7  N3  UNL     1      -3.541  44.551  50.049  1.00  0.00    -0.412 N 
ATOM      8  H3  UNL     1      -3.165  45.357  49.550  1.00  0.00     0.153 HD
BRANCH   7   9
HETATM    9  C4  UNL     1      -2.716  43.735  50.880  1.00  0.00     0.142 C 
BRANCH   9  10
HETATM   10  C3  UNL     1      -1.988  44.523  51.921  1.00  0.00     0.251 C 
BRANCH  10  11
HETATM   11  N2  UNL     1      -2.239  44.130  53.281  1.00  0.00    -0.072 N 
ATOM     12  H22 UNL     1      -2.588  44.909  53.839  1.00  0.00     0.277 HD
ATOM     13  H21 UNL     1      -1.371  43.952  53.786  1.00  0.00     0.277 HD
BRANCH  11  14
HETATM   14  C2  UNL     1      -3.123  43.004  53.338  1.00  0.00     0.259 C 
BRANCH  14  15
HETATM   15  C1  UNL     1      -2.550  41.914  54.225  1.00  0.00     0.257 C 
BRANCH  15  16
HETATM   16  N1  UNL     1      -1.485  41.211  53.545  1.00  0.00    -0.078 N 
ATOM     17  H13 UNL     1      -1.480  41.409  52.544  1.00  0.00     0.274 HD
ATOM     18  H12 UNL     1      -0.569  41.591  53.781  1.00  0.00     0.274 HD
ATOM     19  H11 UNL     1      -1.538  40.209  53.732  1.00  0.00     0.274 HD
ENDBRANCH  15  16
ENDBRANCH  14  15
ENDBRANCH  11  14
ENDBRANCH  10  11
ENDBRANCH   9  10
ENDBRANCH   7   9
ENDBRANCH   1   7
BRANCH   2  20
HETATM   20  O1  UNL     1      -6.656  43.397  51.314  1.00  0.00    -0.391 OA
ATOM     21  H1  UNL     1      -6.854  43.239  52.229  1.00  0.00     0.210 HD
ENDBRANCH   2  20
BRANCH   6  22
HETATM   22  C12 UNL     1      -4.559  44.578  47.555  1.00  0.00     0.238 C 
BRANCH  22  23
HETATM   23  N6  UNL     1      -5.195  43.744  46.557  1.00  0.00    -0.079 N 
ATOM     24  H63 UNL     1      -4.768  42.819  46.496  1.00  0.00     0.274 HD
ATOM     25  H62 UNL     1      -6.131  43.452  46.835  1.00  0.00     0.274 HD
ATOM     26  H61 UNL     1      -5.191  44.233  45.662  1.00  0.00     0.274 HD
ENDBRANCH  22  23
ENDBRANCH   6  22
BRANCH   3  27
HETATM   27  O2  UNL     1      -7.376  45.603  52.274  1.00  0.00    -0.391 OA
ATOM     28  H2  UNL     1      -8.024  46.273  52.091  1.00  0.00     0.210 HD
ENDBRANCH   3  27
BRANCH   5  29
HETATM   29  N5  UNL     1      -6.479  46.815  47.733  1.00  0.00    -0.072 N 
ATOM     30  H53 UNL     1      -7.453  46.559  47.570  1.00  0.00     0.274 HD
ATOM     31  H52 UNL     1      -6.611  47.821  47.841  1.00  0.00     0.274 HD
ATOM     32  H51 UNL     1      -5.880  46.585  46.940  1.00  0.00     0.274 HD
ENDBRANCH   5  29
BRANCH   4  33
HETATM   33  N4  UNL     1      -7.813  47.293  50.077  1.00  0.00    -0.359 N 
ATOM     34  H4  UNL     1      -7.351  48.189  50.235  1.00  0.00     0.162 HD
BRANCH  33  35
HETATM   35  C9  UNL     1      -9.222  47.230  49.936  1.00  0.00     0.348 C 
HETATM   36  O3  UNL     1      -9.812  46.211  49.504  1.00  0.00    -0.284 OA
ENDBRANCH  33  35
ENDBRANCH   4  33
TORSDOF 14
ENDMDL
MODEL 2
REMARK VINA RESULT: -5.878088729      2.811      5.513
REMARK  14 active torsions:
REMARK  status: ('A' for Active; 'I' for Inactive)
REMARK    1  A    between atoms: N1_1  and  C1_5 
REMARK    2  A    between atoms: C1_5  and  C2_6 
REMARK    3  A    between atoms: C2_6  and  N2_7 
REMARK    4  A    between atoms: N2_7  and  C3_10 
REMARK    5  A    between atoms: C3_10  and  C4_11 
REMARK    6  A    between atoms: C4_11  and  N3_12 
REMARK    7  A    between atoms: N3_12  and  C5_14 
REMARK    8  A    between atoms: C6_15  and  O1_16 
REMARK    9  A    between atoms: C7_18  and  O2_19 
REMARK   10  A    between atoms: C8_21  and  N4_22 
REMARK   11  A    between atoms: N4_22  and  C9_24 
REMARK   12  A    between atoms: C10_26  and  N5_27 
REMARK   13  A    between atoms: C11_31  and  C12_32 
REMARK   14  A    between atoms: C12_32  and  N6_33 
ROOT
HETATM    1  C5  UNL     1      -4.766  47.125  48.555  1.00  0.00     0.115 C 
HETATM    2  C6  UNL     1      -6.238  47.090  48.764  1.00  0.00     0.171 C 
HETATM    3  C7  UNL     1      -6.777  45.732  49.146  1.00  0.00     0.173 C 
HETATM    4  C8  UNL     1      -5.936  45.083  50.194  1.00  0.00     0.146 C 
HETATM    5  C10 UNL     1      -4.536  44.890  49.582  1.00  0.00     0.216 C 
HETATM    6  C11 UNL     1      -3.955  46.271  49.490  1.00  0.00     0.068 C 
ENDROOT
BRANCH   1   7
HETATM    7  N3  UNL     1      -4.345  46.902  47.217  1.00  0.00    -0.412 N 
ATOM      8  H3  UNL     1      -3.560  46.288  46.999  1.00  0.00     0.153 HD
BRANCH   7   9
HETATM    9  C4  UNL     1      -5.071  47.577  46.190  1.00  0.00     0.142 C 
BRANCH   9  10
HETATM   10  C3  UNL     1      -5.395  46.688  45.033  1.00  0.00     0.251 C 
BRANCH  10  11
HETATM   11  N2  UNL     1      -6.401  45.692  45.283  1.00  0.00    -0.072 N 
ATOM     12  H22 UNL     1      -7.282  45.925  44.825  1.00  0.00     0.277 HD
ATOM     13  H21 UNL     1      -6.718  45.714  46.252  1.00  0.00     0.277 HD
BRANCH  11  14
HETATM   14  C2  UNL     1      -5.941  44.388  44.909  1.00  0.00     0.259 C 
BRANCH  14  15
HETATM   15  C1  UNL     1      -5.726  43.520  46.135  1.00  0.00     0.257 C 
BRANCH  15  16
HETATM   16  N1  UNL     1      -6.781  42.538  46.255  1.00  0.00    -0.078 N 
ATOM     17  H13 UNL     1      -6.903  42.007  45.393  1.00  0.00     0.274 HD
ATOM     18  H12 UNL     1      -6.514  41.770  46.871  1.00  0.00     0.274 HD
ATOM     19  H11 UNL     1      -7.650  42.979  46.556  1.00  0.00     0.274 HD
ENDBRANCH  15  16
ENDBRANCH  14  15
ENDBRANCH  11  14
ENDBRANCH  10  11
ENDBRANCH   9  10
ENDBRANCH   7   9
ENDBRANCH   1   7
BRANCH   2  20
HETATM   20  O1  UNL     1      -6.608  48.000  49.728  1.00  0.00    -0.391 OA
ATOM     21  H1  UNL     1      -7.235  48.620  49.375  1.00  0.00     0.210 HD
ENDBRANCH   2  20
BRANCH   6  22
HETATM   22  C12 UNL     1      -2.512  46.340  49.109  1.00  0.00     0.238 C 
BRANCH  22  23
HETATM   23  N6  UNL     1      -1.912  47.503  49.729  1.00  0.00    -0.079 N 
ATOM     24  H63 UNL     1      -2.046  48.350  49.175  1.00  0.00     0.274 HD
ATOM     25  H62 UNL     1      -2.414  47.798  50.566  1.00  0.00     0.274 HD
ATOM     26  H61 UNL     1      -0.928  47.313  49.915  1.00  0.00     0.274 HD
ENDBRANCH  22  23
ENDBRANCH   6  22
BRANCH   3  27
HETATM   27  O2  UNL     1      -8.059  45.951  49.678  1.00  0.00    -0.391 OA
ATOM     28  H2  UNL     1      -8.246  46.874  49.554  1.00  0.00     0.210 HD
ENDBRANCH   3  27
BRANCH   5  29
HETATM   29  N5  UNL     1      -3.751  44.019  50.450  1.00  0.00    -0.072 N 
ATOM     30  H53 UNL     1      -3.554  44.448  51.354  1.00  0.00     0.274 HD
ATOM     31  H52 UNL     1      -4.288  43.219  50.784  1.00  0.00     0.274 HD
ATOM     32  H51 UNL     1      -2.900  43.738  49.961  1.00  0.00     0.274 HD
ENDBRANCH   5  29
BRANCH   4  33
HETATM   33  N4  UNL     1      -6.476  43.862  50.678  1.00  0.00    -0.359 N 
ATOM     34  H4  UNL     1      -6.590  43.710  51.680  1.00  0.00     0.162 HD
BRANCH  33  35
HETATM   35  C9  UNL     1      -6.855  42.854  49.756  1.00  0.00     0.348 C 
HETATM   36  O3  UNL     1      -7.954  42.871  49.152  1.00  0.00    -0.284 OA
ENDBRANCH  33  35
ENDBRANCH   4  33
TORSDOF 14
ENDMDL
MODEL 3
REMARK VINA RESULT: -5.876348504      2.305      5.290
REMARK  14 active torsions:
REMARK  status: ('A' for Active; 'I' for Inactive)
REMARK    1  A    between atoms: N1_1  and  C1_5 
REMARK    2  A    between atoms: C1_5  and  C2_6 
REMARK    3  A    between atoms: C2_6  and  N2_7 
REMARK    4  A    between atoms: N2_7  and  C3_10 
REMARK    5  A    between atoms: C3_10  and  C4_11 
REMARK    6  A    between atoms: C4_11  and  N3_12 
REMARK    7  A    between atoms: N3_12  and  C5_14 
REMARK    8  A    between atoms: C6_15  and  O1_16 
REMARK    9  A    between atoms: C7_18  and  O2_19 
REMARK   10  A    between atoms: C8_21  and  N4_22 
REMARK   11  A    between atoms: N4_22  and  C9_24 
REMARK   12  A    between atoms: C10_26  and  N5_27 
REMARK   13  A    between atoms: C11_31  and  C12_32 
REMARK   14  A    between atoms: C12_32  and  N6_33 
ROOT
HETATM    1  C5  UNL     1      -4.602  45.146  49.604  1.00  0.00     0.115 C 
HETATM    2  C6  UNL     1      -4.891  46.167  48.563  1.00  0.00     0.171 C 
HETATM    3  C7  UNL     1      -6.297  46.717  48.608  1.00  0.00     0.173 C 
HETATM    4  C8  UNL     1      -6.713  47.045  50.003  1.00  0.00     0.146 C 
HETATM    5  C10 UNL     1      -6.687  45.726  50.797  1.00  0.00     0.216 C 
HETATM    6  C11 UNL     1      -5.232  45.388  50.948  1.00  0.00     0.068 C 
ENDROOT
BRANCH   1   7
HETATM    7  N3  UNL     1      -4.830  43.801  49.205  1.00  0.00    -0.412 N 
ATOM      8  H3  UNL     1      -5.335  43.146  49.801  1.00  0.00     0.153 HD
BRANCH   7   9
HETATM    9  C4  UNL     1      -4.321  43.411  47.930  1.00  0.00     0.142 C 
BRANCH   9  10
HETATM   10  C3  UNL     1      -5.341  42.712  47.090  1.00  0.00     0.251 C 
BRANCH  10  11
HETATM   11  N2  UNL     1      -6.295  43.569  46.440  1.00  0.00    -0.072 N 
ATOM     12  H22 UNL     1      -6.409  44.451  46.938  1.00  0.00     0.277 HD
ATOM     13  H21 UNL     1      -7.246  43.212  46.536  1.00  0.00     0.277 HD
BRANCH  11  14
HETATM   14  C2  UNL     1      -5.948  43.781  45.066  1.00  0.00     0.259 C 
BRANCH  14  15
HETATM   15  C1  UNL     1      -5.528  45.220  44.833  1.00  0.00     0.257 C 
BRANCH  15  16
HETATM   16  N1  UNL     1      -6.581  46.129  45.231  1.00  0.00    -0.078 N 
ATOM     17  H13 UNL     1      -7.235  45.689  45.879  1.00  0.00     0.274 HD
ATOM     18  H12 UNL     1      -6.233  46.867  45.842  1.00  0.00     0.274 HD
ATOM     19  H11 UNL     1      -7.056  46.509  44.412  1.00  0.00     0.274 HD
ENDBRANCH  15  16
ENDBRANCH  14  15
ENDBRANCH  11  14
ENDBRANCH  10  11
ENDBRANCH   9  10
ENDBRANCH   7   9
ENDBRANCH   1   7
BRANCH   2  20
HETATM   20  O1  UNL     1      -4.004  47.215  48.658  1.00  0.00    -0.391 OA
ATOM     21  H1  UNL     1      -4.325  47.867  49.270  1.00  0.00     0.210 HD
ENDBRANCH   2  20
BRANCH   6  22
HETATM   22  C12 UNL     1      -4.925  44.245  51.860  1.00  0.00     0.238 C 
BRANCH  22  23
HETATM   23  N6  UNL     1      -4.000  44.688  52.881  1.00  0.00    -0.079 N 
ATOM     24  H63 UNL     1      -4.448  45.284  53.579  1.00  0.00     0.274 HD
ATOM     25  H62 UNL     1      -3.716  43.930  53.501  1.00  0.00     0.274 HD
ATOM     26  H61 UNL     1      -3.203  45.143  52.437  1.00  0.00     0.274 HD
ENDBRANCH  22  23
ENDBRANCH   6  22
BRANCH   3  27
HETATM   27  O2  UNL     1      -6.282  47.905  47.858  1.00  0.00    -0.391 OA
ATOM     28  H2  UNL     1      -6.766  48.547  48.364  1.00  0.00     0.210 HD
ENDBRANCH   3  27
BRANCH   5  29
HETATM   29  N5  UNL     1      -7.342  45.928  52.084  1.00  0.00    -0.072 N 
ATOM     30  H53 UNL     1      -8.356  46.001  51.996  1.00  0.00     0.274 HD
ATOM     31  H52 UNL     1      -7.309  45.095  52.672  1.00  0.00     0.274 HD
ATOM     32  H51 UNL     1      -6.933  46.743  52.542  1.00  0.00     0.274 HD
ENDBRANCH   5  29
BRANCH   4  33
HETATM   33  N4  UNL     1      -7.978  47.686  50.082  1.00  0.00    -0.359 N 
ATOM     34  H4  UNL     1      -8.106  48.503  50.679  1.00  0.00     0.162 HD
BRANCH  33  35
HETATM   35  C9  UNL     1      -9.063  47.180  49.323  1.00  0.00     0.348 C 
HETATM   36  O3  UNL     1      -9.672  46.128  49.633  1.00  0.00    -0.284 OA
ENDBRANCH  33  35
ENDBRANCH   4  33
TORSDOF 14
ENDMDL
MODEL 4
REMARK VINA RESULT: -5.830379707      1.606      2.544
REMARK  14 active torsions:
REMARK  status: ('A' for Active; 'I' for Inactive)
REMARK    1  A    between atoms: N1_1  and  C1_5 
REMARK    2  A    between atoms: C1_5  and  C2_6 
REMARK    3  A    between atoms: C2_6  and  N2_7 
REMARK    4  A    between atoms: N2_7  and  C3_10 
REMARK    5  A    between atoms: C3_10  and  C4_11 
REMARK    6  A    between atoms: C4_11  and  N3_12 
REMARK    7  A    between atoms: N3_12  and  C5_14 
REMARK    8  A    between atoms: C6_15  and  O1_16 
REMARK    9  A    between atoms: C7_18  and  O2_19 
REMARK   10  A    between atoms: C8_21  and  N4_22 
REMARK   11  A    between atoms: N4_22  and  C9_24 
REMARK   12  A    between atoms: C10_26  and  N5_27 
REMARK   13  A    between atoms: C11_31  and  C12_32 
REMARK   14  A    between atoms: C12_32  and  N6_33 
ROOT
HETATM    1  C5  UNL     1      -4.603  44.663  50.577  1.00  0.00     0.115 C 
HETATM    2  C6  UNL     1      -5.680  44.615  51.601  1.00  0.00     0.171 C 
HETATM    3  C7  UNL     1      -6.522  45.868  51.672  1.00  0.00     0.173 C 
HETATM    4  C8  UNL     1      -6.910  46.346  50.313  1.00  0.00     0.146 C 
HETATM    5  C10 UNL     1      -5.603  46.687  49.573  1.00  0.00     0.216 C 
HETATM    6  C11 UNL     1      -4.954  45.362  49.293  1.00  0.00     0.068 C 
ENDROOT
BRANCH   1   7
HETATM    7  N3  UNL     1      -3.347  45.132  51.049  1.00  0.00    -0.412 N 
ATOM      8  H3  UNL     1      -2.988  46.050  50.787  1.00  0.00     0.153 HD
BRANCH   7   9
HETATM    9  C4  UNL     1      -2.612  44.260  51.906  1.00  0.00     0.142 C 
BRANCH   9  10
HETATM   10  C3  UNL     1      -1.310  43.828  51.311  1.00  0.00     0.251 C 
BRANCH  10  11
HETATM   11  N2  UNL     1      -0.176  44.641  51.654  1.00  0.00    -0.072 N 
ATOM     12  H22 UNL     1       0.363  44.232  52.418  1.00  0.00     0.277 HD
ATOM     13  H21 UNL     1      -0.460  45.509  52.110  1.00  0.00     0.277 HD
BRANCH  11  14
HETATM   14  C2  UNL     1       0.645  44.893  50.507  1.00  0.00     0.259 C 
BRANCH  14  15
HETATM   15  C1  UNL     1      -0.148  45.596  49.421  1.00  0.00     0.257 C 
BRANCH  15  16
HETATM   16  N1  UNL     1      -0.506  46.935  49.837  1.00  0.00    -0.078 N 
ATOM     17  H13 UNL     1      -0.905  46.945  50.776  1.00  0.00     0.274 HD
ATOM     18  H12 UNL     1       0.318  47.509  50.015  1.00  0.00     0.274 HD
ATOM     19  H11 UNL     1      -1.129  47.369  49.155  1.00  0.00     0.274 HD
ENDBRANCH  15  16
ENDBRANCH  14  15
ENDBRANCH  11  14
ENDBRANCH  10  11
ENDBRANCH   9  10
ENDBRANCH   7   9
ENDBRANCH   1   7
BRANCH   2  20
HETATM   20  O1  UNL     1      -6.508  43.538  51.379  1.00  0.00    -0.391 OA
ATOM     21  H1  UNL     1      -6.160  42.990  50.686  1.00  0.00     0.210 HD
ENDBRANCH   2  20
BRANCH   6  22
HETATM   22  C12 UNL     1      -3.757  45.405  48.401  1.00  0.00     0.238 C 
BRANCH  22  23
HETATM   23  N6  UNL     1      -4.026  44.630  47.208  1.00  0.00    -0.079 N 
ATOM     24  H63 UNL     1      -3.993  43.625  47.383  1.00  0.00     0.274 HD
ATOM     25  H62 UNL     1      -5.000  44.693  46.916  1.00  0.00     0.274 HD
ATOM     26  H61 UNL     1      -3.382  44.917  46.471  1.00  0.00     0.274 HD
ENDBRANCH  22  23
ENDBRANCH   6  22
BRANCH   3  27
HETATM   27  O2  UNL     1      -7.691  45.519  52.371  1.00  0.00    -0.391 OA
ATOM     28  H2  UNL     1      -8.131  44.862  51.844  1.00  0.00     0.210 HD
ENDBRANCH   3  27
BRANCH   5  29
HETATM   29  N5  UNL     1      -5.922  47.413  48.349  1.00  0.00    -0.072 N 
ATOM     30  H53 UNL     1      -5.872  46.819  47.521  1.00  0.00     0.274 HD
ATOM     31  H52 UNL     1      -6.911  47.658  48.290  1.00  0.00     0.274 HD
ATOM     32  H51 UNL     1      -5.315  48.230  48.277  1.00  0.00     0.274 HD
ENDBRANCH   5  29
BRANCH   4  33
HETATM   33  N4  UNL     1      -7.809  47.445  50.334  1.00  0.00    -0.359 N 
ATOM     34  H4  UNL     1      -7.505  48.353  50.686  1.00  0.00     0.162 HD
BRANCH  33  35
HETATM   35  C9  UNL     1      -9.133  47.270  49.861  1.00  0.00     0.348 C 
HETATM   36  O3  UNL     1      -9.575  46.158  49.484  1.00  0.00    -0.284 OA
ENDBRANCH  33  35
ENDBRANCH   4  33
TORSDOF 14
ENDMDL
MODEL 5
REMARK VINA RESULT: -5.804786229      1.872      2.338
REMARK  14 active torsions:
REMARK  status: ('A' for Active; 'I' for Inactive)
REMARK    1  A    between atoms: N1_1  and  C1_5 
REMARK    2  A    between atoms: C1_5  and  C2_6 
REMARK    3  A    between atoms: C2_6  and  N2_7 
REMARK    4  A    between atoms: N2_7  and  C3_10 
REMARK    5  A    between atoms: C3_10  and  C4_11 
REMARK    6  A    between atoms: C4_11  and  N3_12 
REMARK    7  A    between atoms: N3_12  and  C5_14 
REMARK    8  A    between atoms: C6_15  and  O1_16 
REMARK    9  A    between atoms: C7_18  and  O2_19 
REMARK   10  A    between atoms: C8_21  and  N4_22 
REMARK   11  A    between atoms: N4_22  and  C9_24 
REMARK   12  A    between atoms: C10_26  and  N5_27 
REMARK   13  A    between atoms: C11_31  and  C12_32 
REMARK   14  A    between atoms: C12_32  and  N6_33 
ROOT
HETATM    1  C5  UNL     1      -4.045  44.799  49.030  1.00  0.00     0.115 C 
HETATM    2  C6  UNL     1      -5.296  43.999  48.960  1.00  0.00     0.171 C 
HETATM    3  C7  UNL     1      -6.399  44.495  49.866  1.00  0.00     0.173 C 
HETATM    4  C8  UNL     1      -6.545  45.978  49.792  1.00  0.00     0.146 C 
HETATM    5  C10 UNL     1      -5.214  46.580  50.280  1.00  0.00     0.216 C 
HETATM    6  C11 UNL     1      -4.226  46.283  49.189  1.00  0.00     0.068 C 
ENDROOT
BRANCH   1   7
HETATM    7  N3  UNL     1      -3.086  44.331  49.969  1.00  0.00    -0.412 N 
ATOM      8  H3  UNL     1      -2.586  44.972  50.585  1.00  0.00     0.153 HD
BRANCH   7   9
HETATM    9  C4  UNL     1      -2.856  42.923  50.011  1.00  0.00     0.142 C 
BRANCH   9  10
HETATM   10  C3  UNL     1      -1.522  42.574  50.587  1.00  0.00     0.251 C 
BRANCH  10  11
HETATM   11  N2  UNL     1      -1.395  42.758  52.007  1.00  0.00    -0.072 N 
ATOM     12  H22 UNL     1      -1.431  43.746  52.261  1.00  0.00     0.277 HD
ATOM     13  H21 UNL     1      -0.450  42.549  52.330  1.00  0.00     0.277 HD
BRANCH  11  14
HETATM   14  C2  UNL     1      -2.377  41.995  52.717  1.00  0.00     0.259 C 
BRANCH  14  15
HETATM   15  C1  UNL     1      -2.968  42.805  53.856  1.00  0.00     0.257 C 
BRANCH  15  16
HETATM   16  N1  UNL     1      -4.009  43.684  53.369  1.00  0.00    -0.078 N 
ATOM     17  H13 UNL     1      -3.717  44.190  52.533  1.00  0.00     0.274 HD
ATOM     18  H12 UNL     1      -4.788  43.163  52.968  1.00  0.00     0.274 HD
ATOM     19  H11 UNL     1      -4.319  44.318  54.107  1.00  0.00     0.274 HD
ENDBRANCH  15  16
ENDBRANCH  14  15
ENDBRANCH  11  14
ENDBRANCH  10  11
ENDBRANCH   9  10
ENDBRANCH   7   9
ENDBRANCH   1   7
BRANCH   2  20
HETATM   20  O1  UNL     1      -5.770  43.961  47.668  1.00  0.00    -0.391 OA
ATOM     21  H1  UNL     1      -5.054  44.034  47.049  1.00  0.00     0.210 HD
ENDBRANCH   2  20
BRANCH   6  22
HETATM   22  C12 UNL     1      -2.892  46.940  49.329  1.00  0.00     0.238 C 
BRANCH  22  23
HETATM   23  N6  UNL     1      -2.230  46.950  48.042  1.00  0.00    -0.079 N 
ATOM     24  H63 UNL     1      -2.054  47.897  47.704  1.00  0.00     0.274 HD
ATOM     25  H62 UNL     1      -1.262  46.636  48.102  1.00  0.00     0.274 HD
ATOM     26  H61 UNL     1      -2.776  46.397  47.380  1.00  0.00     0.274 HD
ENDBRANCH  22  23
ENDBRANCH   6  22
BRANCH   3  27
HETATM   27  O2  UNL     1      -7.587  43.907  49.400  1.00  0.00    -0.391 OA
ATOM     28  H2  UNL     1      -7.335  43.302  48.713  1.00  0.00     0.210 HD
ENDBRANCH   3  27
BRANCH   5  29
HETATM   29  N5  UNL     1      -5.387  48.013  50.491  1.00  0.00    -0.072 N 
ATOM     30  H53 UNL     1      -4.785  48.371  51.233  1.00  0.00     0.274 HD
ATOM     31  H52 UNL     1      -5.010  48.567  49.721  1.00  0.00     0.274 HD
ATOM     32  H51 UNL     1      -6.373  48.209  50.664  1.00  0.00     0.274 HD
ENDBRANCH   5  29
BRANCH   4  33
HETATM   33  N4  UNL     1      -7.653  46.476  50.528  1.00  0.00    -0.359 N 
ATOM     34  H4  UNL     1      -7.637  46.473  51.548  1.00  0.00     0.162 HD
BRANCH  33  35
HETATM   35  C9  UNL     1      -8.783  46.976  49.833  1.00  0.00     0.348 C 
HETATM   36  O3  UNL     1      -9.696  46.231  49.404  1.00  0.00    -0.284 OA
ENDBRANCH  33  35
ENDBRANCH   4  33
TORSDOF 14
ENDMDL
