MODEL 1
REMARK VINA RESULT: -5.679822056      0.000      0.000
REMARK  12 active torsions:
REMARK  status: ('A' for Active; 'I' for Inactive)
REMARK    1  A    between atoms: C2_2  and  O1_3 
REMARK    2  A    between atoms: O1_3  and  C3_4 
REMARK    3  A    between atoms: C3_4  and  C4_5 
REMARK    4  A    between atoms: C4_5  and  N1_6 
REMARK    5  A    between atoms: N1_6  and  C5_8 
REMARK    6  A    between atoms: C5_8  and  C6_9 
REMARK    7  A    between atoms: C6_9  and  N2_10 
REMARK    8  A    between atoms: C9_19  and  N4_20 
REMARK    9  A    between atoms: C10_24  and  N5_25 
REMARK   10  A    between atoms: N5_25  and  C11_27 
REMARK   11  A    between atoms: C11_27  and  C12_28 
REMARK   12  A    between atoms: C12_28  and  N6_29 
ROOT
HETATM    1  C4  UNL     1       0.836  14.111   9.447  1.00  0.00     0.098 C 
HETATM    2  C7  UNL     1       1.133  14.512   8.011  1.00  0.00     0.142 C 
HETATM    3  C8  UNL     1       2.152  15.577   7.996  1.00  0.00     0.222 C 
HETATM    4  O2  UNL     1       3.263  15.464   7.454  1.00  0.00    -0.273 OA
HETATM    5  N3  UNL     1       1.808  16.787   8.649  1.00  0.00    -0.329 N 
ATOM      6  H3  UNL     1       2.196  17.692   8.384  1.00  0.00     0.164 HD
HETATM    7  C9  UNL     1       0.839  16.618   9.746  1.00  0.00     0.333 C 
HETATM    8  C10 UNL     1       1.039  15.244  10.375  1.00  0.00     0.063 C 
ENDROOT
BRANCH   1   9
HETATM    9  C3  UNL     1      -0.511  13.455   9.371  1.00  0.00     0.204 C 
BRANCH   9  10
HETATM   10  O1  UNL     1      -1.348  13.954   8.379  1.00  0.00    -0.389 OA
BRANCH  10  11
HETATM   11  C2  UNL     1      -2.637  14.110   8.931  1.00  0.00     0.163 C 
HETATM   12  C1  UNL     1      -2.972  13.068   9.939  1.00  0.00     0.033 C 
ENDBRANCH  10  11
ENDBRANCH   9  10
ENDBRANCH   1   9
BRANCH   1  13
HETATM   13  N1  UNL     1       1.711  13.055   9.905  1.00  0.00    -0.404 N 
ATOM     14  H1  UNL     1       2.601  13.282  10.349  1.00  0.00     0.154 HD
BRANCH  13  15
HETATM   15  C5  UNL     1       1.338  11.740   9.738  1.00  0.00     0.142 C 
BRANCH  15  16
HETATM   16  C6  UNL     1       2.612  10.882   9.825  1.00  0.00     0.248 C 
BRANCH  16  17
HETATM   17  N2  UNL     1       2.629   9.874   8.792  1.00  0.00    -0.078 N 
ATOM     18  H23 UNL     1       3.441   9.261   8.879  1.00  0.00     0.274 HD
ATOM     19  H22 UNL     1       1.895   9.179   8.932  1.00  0.00     0.274 HD
ATOM     20  H21 UNL     1       2.575  10.296   7.866  1.00  0.00     0.274 HD
ENDBRANCH  16  17
ENDBRANCH  15  16
ENDBRANCH  13  15
ENDBRANCH   1  13
BRANCH   8  21
HETATM   21  N5  UNL     1       0.494  15.127  11.624  1.00  0.00    -0.390 N 
ATOM     22  H5  UNL     1       1.115  14.742  12.336  1.00  0.00     0.159 HD
BRANCH  21  23
HETATM   23  C11 UNL     1      -0.769  15.451  12.062  1.00  0.00     0.146 C 
BRANCH  23  24
HETATM   24  C12 UNL     1      -0.581  15.986  13.519  1.00  0.00     0.249 C 
BRANCH  24  25
HETATM   25  N6  UNL     1      -0.914  17.375  13.573  1.00  0.00    -0.078 N 
ATOM     26  H63 UNL     1      -1.366  17.694  12.717  1.00  0.00     0.274 HD
ATOM     27  H62 UNL     1      -1.678  17.561  14.222  1.00  0.00     0.274 HD
ATOM     28  H61 UNL     1      -0.082  17.922  13.793  1.00  0.00     0.274 HD
ENDBRANCH  24  25
ENDBRANCH  23  24
ENDBRANCH  21  23
ENDBRANCH   8  21
BRANCH   7  29
HETATM   29  N4  UNL     1       1.278  17.584  10.740  1.00  0.00    -0.053 N 
ATOM     30  H43 UNL     1       1.739  18.407  10.354  1.00  0.00     0.277 HD
ATOM     31  H42 UNL     1       0.520  18.090  11.200  1.00  0.00     0.277 HD
ATOM     32  H41 UNL     1       1.859  17.032  11.370  1.00  0.00     0.277 HD
ENDBRANCH   7  29
TORSDOF 12
ENDMDL
MODEL 2
REMARK VINA RESULT: -5.540592523      1.130      1.162
REMARK  12 active torsions:
REMARK  status: ('A' for Active; 'I' for Inactive)
REMARK    1  A    between atoms: C2_2  and  O1_3 
REMARK    2  A    between atoms: O1_3  and  C3_4 
REMARK    3  A    between atoms: C3_4  and  C4_5 
REMARK    4  A    between atoms: C4_5  and  N1_6 
REMARK    5  A    between atoms: N1_6  and  C5_8 
REMARK    6  A    between atoms: C5_8  and  C6_9 
REMARK    7  A    between atoms: C6_9  and  N2_10 
REMARK    8  A    between atoms: C9_19  and  N4_20 
REMARK    9  A    between atoms: C10_24  and  N5_25 
REMARK   10  A    between atoms: N5_25  and  C11_27 
REMARK   11  A    between atoms: C11_27  and  C12_28 
REMARK   12  A    between atoms: C12_28  and  N6_29 
ROOT
HETATM    1  C4  UNL     1       0.548  14.373   9.932  1.00  0.00     0.098 C 
HETATM    2  C7  UNL     1       1.533  14.937   8.919  1.00  0.00     0.142 C 
HETATM    3  C8  UNL     1       2.448  15.877   9.590  1.00  0.00     0.222 C 
HETATM    4  O2  UNL     1       3.678  15.722   9.650  1.00  0.00    -0.273 OA
HETATM    5  N3  UNL     1       1.853  17.013  10.193  1.00  0.00    -0.329 N 
ATOM      6  H3  UNL     1       2.344  17.900  10.315  1.00  0.00     0.164 HD
HETATM    7  C9  UNL     1       0.462  16.799  10.628  1.00  0.00     0.333 C 
HETATM    8  C10 UNL     1       0.289  15.337  11.023  1.00  0.00     0.063 C 
ENDROOT
BRANCH   1   9
HETATM    9  C3  UNL     1      -0.596  13.884   9.094  1.00  0.00     0.204 C 
BRANCH   9  10
HETATM   10  O1  UNL     1      -1.571  14.838   8.824  1.00  0.00    -0.389 OA
BRANCH  10  11
HETATM   11  C2  UNL     1      -2.824  14.190   8.812  1.00  0.00     0.163 C 
HETATM   12  C1  UNL     1      -2.875  12.995   9.698  1.00  0.00     0.033 C 
ENDBRANCH  10  11
ENDBRANCH   9  10
ENDBRANCH   1   9
BRANCH   1  13
HETATM   13  N1  UNL     1       1.052  13.175  10.566  1.00  0.00    -0.404 N 
ATOM     14  H1  UNL     1       1.507  13.229  11.477  1.00  0.00     0.154 HD
BRANCH  13  15
HETATM   15  C5  UNL     1       0.916  11.960   9.931  1.00  0.00     0.142 C 
BRANCH  15  16
HETATM   16  C6  UNL     1       2.307  11.305   9.882  1.00  0.00     0.248 C 
BRANCH  16  17
HETATM   17  N2  UNL     1       2.353  10.260   8.887  1.00  0.00    -0.078 N 
ATOM     18  H23 UNL     1       2.280   9.335   9.310  1.00  0.00     0.274 HD
ATOM     19  H22 UNL     1       1.503  10.240   8.323  1.00  0.00     0.274 HD
ATOM     20  H21 UNL     1       3.187  10.343   8.306  1.00  0.00     0.274 HD
ENDBRANCH  16  17
ENDBRANCH  15  16
ENDBRANCH  13  15
ENDBRANCH   1  13
BRANCH   8  21
HETATM   21  N5  UNL     1      -0.811  15.105  11.804  1.00  0.00    -0.390 N 
ATOM     22  H5  UNL     1      -1.702  15.384  11.395  1.00  0.00     0.159 HD
BRANCH  21  23
HETATM   23  C11 UNL     1      -0.890  14.551  13.061  1.00  0.00     0.146 C 
BRANCH  23  24
HETATM   24  C12 UNL     1      -1.838  15.493  13.872  1.00  0.00     0.249 C 
BRANCH  24  25
HETATM   25  N6  UNL     1      -1.071  16.295  14.773  1.00  0.00    -0.078 N 
ATOM     26  H63 UNL     1      -0.084  16.324  14.516  1.00  0.00     0.274 HD
ATOM     27  H62 UNL     1      -1.278  17.289  14.673  1.00  0.00     0.274 HD
ATOM     28  H61 UNL     1      -1.208  15.969  15.729  1.00  0.00     0.274 HD
ENDBRANCH  24  25
ENDBRANCH  23  24
ENDBRANCH  21  23
ENDBRANCH   8  21
BRANCH   7  29
HETATM   29  N4  UNL     1       0.369  17.563  11.861  1.00  0.00    -0.053 N 
ATOM     30  H43 UNL     1      -0.367  17.252  12.496  1.00  0.00     0.277 HD
ATOM     31  H42 UNL     1       1.141  17.412  12.511  1.00  0.00     0.277 HD
ATOM     32  H41 UNL     1       0.269  18.526  11.540  1.00  0.00     0.277 HD
ENDBRANCH   7  29
TORSDOF 12
ENDMDL
MODEL 3
REMARK VINA RESULT: -5.372927590      2.239      4.211
REMARK  12 active torsions:
REMARK  status: ('A' for Active; 'I' for Inactive)
REMARK    1  A    between atoms: C2_2  and  O1_3 
REMARK    2  A    between atoms: O1_3  and  C3_4 
REMARK    3  A    between atoms: C3_4  and  C4_5 
REMARK    4  A    between atoms: C4_5  and  N1_6 
REMARK    5  A    between atoms: N1_6  and  C5_8 
REMARK    6  A    between atoms: C5_8  and  C6_9 
REMARK    7  A    between atoms: C6_9  and  N2_10 
REMARK    8  A    between atoms: C9_19  and  N4_20 
REMARK    9  A    between atoms: C10_24  and  N5_25 
REMARK   10  A    between atoms: N5_25  and  C11_27 
REMARK   11  A    between atoms: C11_27  and  C12_28 
REMARK   12  A    between atoms: C12_28  and  N6_29 
ROOT
HETATM    1  C4  UNL     1       0.323  12.897  10.114  1.00  0.00     0.098 C 
HETATM    2  C7  UNL     1      -0.518  11.818  10.778  1.00  0.00     0.142 C 
HETATM    3  C8  UNL     1      -1.434  11.226   9.787  1.00  0.00     0.222 C 
HETATM    4  O2  UNL     1      -1.421  10.029   9.459  1.00  0.00    -0.273 OA
HETATM    5  N3  UNL     1      -2.373  12.107   9.194  1.00  0.00    -0.329 N 
ATOM      6  H3  UNL     1      -3.279  11.798   8.839  1.00  0.00     0.164 HD
HETATM    7  C9  UNL     1      -1.922  13.508   9.134  1.00  0.00     0.333 C 
HETATM    8  C10 UNL     1      -0.405  13.532   8.995  1.00  0.00     0.063 C 
ENDROOT
BRANCH   1   9
HETATM    9  C3  UNL     1       0.798  13.743  11.257  1.00  0.00     0.204 C 
BRANCH   9  10
HETATM   10  O1  UNL     1       0.241  15.016  11.313  1.00  0.00    -0.389 OA
BRANCH  10  11
HETATM   11  C2  UNL     1      -0.577  15.086  12.461  1.00  0.00     0.163 C 
HETATM   12  C1  UNL     1      -1.934  15.627  12.180  1.00  0.00     0.033 C 
ENDBRANCH  10  11
ENDBRANCH   9  10
ENDBRANCH   1   9
BRANCH   1  13
HETATM   13  N1  UNL     1       1.541  12.360   9.548  1.00  0.00    -0.404 N 
ATOM     14  H1  UNL     1       1.846  12.649   8.618  1.00  0.00     0.154 HD
BRANCH  13  15
HETATM   15  C5  UNL     1       2.287  11.456  10.271  1.00  0.00     0.142 C 
BRANCH  15  16
HETATM   16  C6  UNL     1       2.673  10.310   9.321  1.00  0.00     0.248 C 
BRANCH  16  17
HETATM   17  N2  UNL     1       1.620   9.326   9.239  1.00  0.00    -0.078 N 
ATOM     18  H23 UNL     1       0.714   9.725   9.486  1.00  0.00     0.274 HD
ATOM     19  H22 UNL     1       1.419   9.070   8.272  1.00  0.00     0.274 HD
ATOM     20  H21 UNL     1       1.838   8.508   9.807  1.00  0.00     0.274 HD
ENDBRANCH  16  17
ENDBRANCH  15  16
ENDBRANCH  13  15
ENDBRANCH   1  13
BRANCH   8  21
HETATM   21  N5  UNL     1       0.086  14.724   8.535  1.00  0.00    -0.390 N 
ATOM     22  H5  UNL     1      -0.508  15.535   8.706  1.00  0.00     0.159 HD
BRANCH  21  23
HETATM   23  C11 UNL     1       1.264  14.989   7.875  1.00  0.00     0.146 C 
BRANCH  23  24
HETATM   24  C12 UNL     1       1.657  16.443   8.294  1.00  0.00     0.249 C 
BRANCH  24  25
HETATM   25  N6  UNL     1       2.426  16.409   9.499  1.00  0.00    -0.078 N 
ATOM     26  H63 UNL     1       1.837  16.334  10.328  1.00  0.00     0.274 HD
ATOM     27  H62 UNL     1       2.938  15.534   9.603  1.00  0.00     0.274 HD
ATOM     28  H61 UNL     1       3.042  17.221   9.539  1.00  0.00     0.274 HD
ENDBRANCH  24  25
ENDBRANCH  23  24
ENDBRANCH  21  23
ENDBRANCH   8  21
BRANCH   7  29
HETATM   29  N4  UNL     1      -2.451  13.982   7.865  1.00  0.00    -0.053 N 
ATOM     30  H43 UNL     1      -2.668  13.244   7.196  1.00  0.00     0.277 HD
ATOM     31  H42 UNL     1      -3.397  14.361   7.917  1.00  0.00     0.277 HD
ATOM     32  H41 UNL     1      -1.746  14.647   7.546  1.00  0.00     0.277 HD
ENDBRANCH   7  29
TORSDOF 12
ENDMDL
MODEL 4
REMARK VINA RESULT: -5.273838377      2.583      4.974
REMARK  12 active torsions:
REMARK  status: ('A' for Active; 'I' for Inactive)
REMARK    1  A    between atoms: C2_2  and  O1_3 
REMARK    2  A    between atoms: O1_3  and  C3_4 
REMARK    3  A    between atoms: C3_4  and  C4_5 
REMARK    4  A    between atoms: C4_5  and  N1_6 
REMARK    5  A    between atoms: N1_6  and  C5_8 
REMARK    6  A    between atoms: C5_8  and  C6_9 
REMARK    7  A    between atoms: C6_9  and  N2_10 
REMARK    8  A    between atoms: C9_19  and  N4_20 
REMARK    9  A    between atoms: C10_24  and  N5_25 
REMARK   10  A    between atoms: N5_25  and  C11_27 
REMARK   11  A    between atoms: C11_27  and  C12_28 
REMARK   12  A    between atoms: C12_28  and  N6_29 
ROOT
HETATM    1  C4  UNL     1      -0.848  15.635  12.028  1.00  0.00     0.098 C 
HETATM    2  C7  UNL     1      -2.156  16.364  11.758  1.00  0.00     0.142 C 
HETATM    3  C8  UNL     1      -2.424  17.317  12.849  1.00  0.00     0.222 C 
HETATM    4  O2  UNL     1      -2.520  18.544  12.689  1.00  0.00    -0.273 OA
HETATM    5  N3  UNL     1      -2.576  16.763  14.145  1.00  0.00    -0.329 N 
ATOM      6  H3  UNL     1      -3.141  17.200  14.874  1.00  0.00     0.164 HD
HETATM    7  C9  UNL     1      -1.845  15.500  14.344  1.00  0.00     0.333 C 
HETATM    8  C10 UNL     1      -0.590  15.515  13.478  1.00  0.00     0.063 C 
ENDROOT
BRANCH   1   9
HETATM    9  C3  UNL     1      -0.945  14.393  11.192  1.00  0.00     0.204 C 
BRANCH   9  10
HETATM   10  O1  UNL     1       0.273  13.793  10.895  1.00  0.00    -0.389 OA
BRANCH  10  11
HETATM   11  C2  UNL     1       0.151  13.151   9.644  1.00  0.00     0.163 C 
HETATM   12  C1  UNL     1      -0.908  13.744   8.783  1.00  0.00     0.033 C 
ENDBRANCH  10  11
ENDBRANCH   9  10
ENDBRANCH   1   9
BRANCH   1  13
HETATM   13  N1  UNL     1       0.287  16.339  11.474  1.00  0.00    -0.404 N 
ATOM     14  H1  UNL     1       1.205  16.257  11.912  1.00  0.00     0.154 HD
BRANCH  13  15
HETATM   15  C5  UNL     1       0.122  17.122  10.353  1.00  0.00     0.142 C 
BRANCH  15  16
HETATM   16  C6  UNL     1       1.243  16.757   9.365  1.00  0.00     0.248 C 
BRANCH  16  17
HETATM   17  N2  UNL     1       2.356  16.141  10.047  1.00  0.00    -0.078 N 
ATOM     18  H23 UNL     1       3.186  16.735  10.025  1.00  0.00     0.274 HD
ATOM     19  H22 UNL     1       2.211  16.116  11.057  1.00  0.00     0.274 HD
ATOM     20  H21 UNL     1       2.548  15.213   9.673  1.00  0.00     0.274 HD
ENDBRANCH  16  17
ENDBRANCH  15  16
ENDBRANCH  13  15
ENDBRANCH   1  13
BRANCH   8  21
HETATM   21  N5  UNL     1       0.356  14.605  13.866  1.00  0.00    -0.390 N 
ATOM     22  H5  UNL     1       1.320  14.936  13.831  1.00  0.00     0.159 HD
BRANCH  21  23
HETATM   23  C11 UNL     1       0.197  13.308  14.295  1.00  0.00     0.146 C 
BRANCH  23  24
HETATM   24  C12 UNL     1       1.623  12.837  14.732  1.00  0.00     0.249 C 
BRANCH  24  25
HETATM   25  N6  UNL     1       2.369  13.948  15.232  1.00  0.00    -0.078 N 
ATOM     26  H63 UNL     1       3.332  13.946  14.895  1.00  0.00     0.274 HD
ATOM     27  H62 UNL     1       2.069  14.830  14.817  1.00  0.00     0.274 HD
ATOM     28  H61 UNL     1       2.320  13.968  16.251  1.00  0.00     0.274 HD
ENDBRANCH  24  25
ENDBRANCH  23  24
ENDBRANCH  21  23
ENDBRANCH   8  21
BRANCH   7  29
HETATM   29  N4  UNL     1      -1.385  15.585  15.721  1.00  0.00    -0.053 N 
ATOM     30  H43 UNL     1      -1.966  15.081  16.391  1.00  0.00     0.277 HD
ATOM     31  H42 UNL     1      -0.527  15.068  15.912  1.00  0.00     0.277 HD
ATOM     32  H41 UNL     1      -1.320  16.589  15.890  1.00  0.00     0.277 HD
ENDBRANCH   7  29
TORSDOF 12
ENDMDL
MODEL 5
REMARK VINA RESULT: -5.252413375      1.654      1.934
REMARK  12 active torsions:
REMARK  status: ('A' for Active; 'I' for Inactive)
REMARK    1  A    between atoms: C2_2  and  O1_3 
REMARK    2  A    between atoms: O1_3  and  C3_4 
REMARK    3  A    between atoms: C3_4  and  C4_5 
REMARK    4  A    between atoms: C4_5  and  N1_6 
REMARK    5  A    between atoms: N1_6  and  C5_8 
REMARK    6  A    between atoms: C5_8  and  C6_9 
REMARK    7  A    between atoms: C6_9  and  N2_10 
REMARK    8  A    between atoms: C9_19  and  N4_20 
REMARK    9  A    between atoms: C10_24  and  N5_25 
REMARK   10  A    between atoms: N5_25  and  C11_27 
REMARK   11  A    between atoms: C11_27  and  C12_28 
REMARK   12  A    between atoms: C12_28  and  N6_29 
ROOT
HETATM    1  C4  UNL     1       0.427  14.339   9.965  1.00  0.00     0.098 C 
HETATM    2  C7  UNL     1       1.313  14.989   8.913  1.00  0.00     0.142 C 
HETATM    3  C8  UNL     1       2.247  15.926   9.563  1.00  0.00     0.222 C 
HETATM    4  O2  UNL     1       3.482  15.812   9.524  1.00  0.00    -0.273 OA
HETATM    5  N3  UNL     1       1.663  17.009  10.268  1.00  0.00    -0.329 N 
ATOM      6  H3  UNL     1       2.133  17.905  10.399  1.00  0.00     0.164 HD
HETATM    7  C9  UNL     1       0.317  16.722  10.792  1.00  0.00     0.333 C 
HETATM    8  C10 UNL     1       0.220  15.237  11.121  1.00  0.00     0.063 C 
ENDROOT
BRANCH   1   9
HETATM    9  C3  UNL     1      -0.761  13.852   9.189  1.00  0.00     0.204 C 
BRANCH   9  10
HETATM   10  O1  UNL     1      -1.544  12.912   9.850  1.00  0.00    -0.389 OA
BRANCH  10  11
HETATM   11  C2  UNL     1      -2.898  13.211   9.590  1.00  0.00     0.163 C 
HETATM   12  C1  UNL     1      -3.838  12.198  10.144  1.00  0.00     0.033 C 
ENDBRANCH  10  11
ENDBRANCH   9  10
ENDBRANCH   1   9
BRANCH   1  13
HETATM   13  N1  UNL     1       1.016  13.130  10.495  1.00  0.00    -0.404 N 
ATOM     14  H1  UNL     1       0.861  12.868  11.469  1.00  0.00     0.154 HD
BRANCH  13  15
HETATM   15  C5  UNL     1       1.788  12.334   9.679  1.00  0.00     0.142 C 
BRANCH  15  16
HETATM   16  C6  UNL     1       1.545  10.872  10.093  1.00  0.00     0.248 C 
BRANCH  16  17
HETATM   17  N2  UNL     1       0.249  10.417   9.649  1.00  0.00    -0.078 N 
ATOM     18  H23 UNL     1       0.101  10.612   8.659  1.00  0.00     0.274 HD
ATOM     19  H22 UNL     1       0.200   9.398   9.615  1.00  0.00     0.274 HD
ATOM     20  H21 UNL     1      -0.495  10.809  10.225  1.00  0.00     0.274 HD
ENDBRANCH  16  17
ENDBRANCH  15  16
ENDBRANCH  13  15
ENDBRANCH   1  13
BRANCH   8  21
HETATM   21  N5  UNL     1      -0.808  14.927  11.969  1.00  0.00    -0.390 N 
ATOM     22  H5  UNL     1      -1.743  15.120  11.608  1.00  0.00     0.159 HD
BRANCH  21  23
HETATM   23  C11 UNL     1      -0.767  14.394  13.236  1.00  0.00     0.146 C 
BRANCH  23  24
HETATM   24  C12 UNL     1      -1.874  13.290  13.260  1.00  0.00     0.249 C 
BRANCH  24  25
HETATM   25  N6  UNL     1      -1.333  12.050  12.799  1.00  0.00    -0.078 N 
ATOM     26  H63 UNL     1      -1.538  11.281  13.437  1.00  0.00     0.274 HD
ATOM     27  H62 UNL     1      -1.827  11.697  11.979  1.00  0.00     0.274 HD
ATOM     28  H61 UNL     1      -0.333  12.151  12.629  1.00  0.00     0.274 HD
ENDBRANCH  24  25
ENDBRANCH  23  24
ENDBRANCH  21  23
ENDBRANCH   8  21
BRANCH   7  29
HETATM   29  N4  UNL     1       0.293  17.420  12.068  1.00  0.00    -0.053 N 
ATOM     30  H43 UNL     1       1.155  17.914  12.295  1.00  0.00     0.277 HD
ATOM     31  H42 UNL     1      -0.311  18.242  12.088  1.00  0.00     0.277 HD
ATOM     32  H41 UNL     1       0.035  16.691  12.734  1.00  0.00     0.277 HD
ENDBRANCH   7  29
TORSDOF 12
ENDMDL
