MODEL 1
REMARK VINA RESULT: -5.751535335      0.000      0.000
REMARK  14 active torsions:
REMARK  status: ('A' for Active; 'I' for Inactive)
REMARK    1  A    between atoms: N1_1  and  C1_5 
REMARK    2  A    between atoms: C1_5  and  C2_6 
REMARK    3  A    between atoms: C2_6  and  C3_7 
REMARK    4  A    between atoms: C3_7  and  N2_8 
REMARK    5  A    between atoms: N2_8  and  C4_11 
REMARK    6  A    between atoms: C4_11  and  C5_12 
REMARK    7  A    between atoms: C5_12  and  C6_13 
REMARK    8  A    between atoms: C6_13  and  N3_14 
REMARK    9  A    between atoms: N3_14  and  N4_16 
REMARK   10  A    between atoms: C7_18  and  C8_19 
REMARK   11  A    between atoms: C9_20  and  O1_21 
REMARK   12  A    between atoms: C10_23  and  O2_24 
REMARK   13  A    between atoms: C11_27  and  C12_28 
REMARK   14  A    between atoms: C12_28  and  N6_29 
ROOT
HETATM    1  N4  UNL     1      -1.014  17.259  10.834  1.00  0.00    -0.320 N 
ATOM      2  H4  UNL     1      -1.651  16.682  10.283  1.00  0.00     0.185 HD
HETATM    3  C7  UNL     1       0.243  16.984  10.837  1.00  0.00     0.089 C 
ENDROOT
BRANCH   1   4
HETATM    4  N3  UNL     1      -1.530  18.342  11.576  1.00  0.00    -0.337 N 
ATOM      5  H3  UNL     1      -1.301  19.291  11.280  1.00  0.00     0.180 HD
BRANCH   4   6
HETATM    6  C6  UNL     1      -2.363  18.164  12.728  1.00  0.00     0.141 C 
BRANCH   6   7
HETATM    7  C5  UNL     1      -3.065  16.826  12.670  1.00  0.00     0.048 C 
BRANCH   7   8
HETATM    8  C4  UNL     1      -2.723  15.999  13.880  1.00  0.00     0.234 C 
BRANCH   8   9
HETATM    9  N2  UNL     1      -1.485  16.460  14.439  1.00  0.00    -0.075 N 
ATOM     10  H22 UNL     1      -1.598  16.724  15.418  1.00  0.00     0.277 HD
ATOM     11  H21 UNL     1      -1.223  17.367  14.055  1.00  0.00     0.277 HD
BRANCH   9  12
HETATM   12  C3  UNL     1      -0.433  15.507  14.280  1.00  0.00     0.233 C 
BRANCH  12  13
HETATM   13  C2  UNL     1       0.133  15.084  15.630  1.00  0.00     0.055 C 
BRANCH  13  14
HETATM   14  C1  UNL     1       0.834  13.741  15.393  1.00  0.00     0.231 C 
BRANCH  14  15
HETATM   15  N1  UNL     1       2.238  14.034  15.197  1.00  0.00    -0.079 N 
ATOM     16  H13 UNL     1       2.405  14.958  14.798  1.00  0.00     0.274 HD
ATOM     17  H12 UNL     1       2.745  14.177  16.070  1.00  0.00     0.274 HD
ATOM     18  H11 UNL     1       2.620  13.276  14.631  1.00  0.00     0.274 HD
ENDBRANCH  14  15
ENDBRANCH  13  14
ENDBRANCH  12  13
ENDBRANCH   9  12
ENDBRANCH   8   9
ENDBRANCH   7   8
ENDBRANCH   6   7
ENDBRANCH   4   6
ENDBRANCH   1   4
BRANCH   3  19
HETATM   19  C8  UNL     1       0.862  15.896  10.108  1.00  0.00     0.094 C 
HETATM   20  C9  UNL     1       1.248  16.286   8.682  1.00  0.00     0.188 C 
HETATM   21  C10 UNL     1       1.536  14.919   8.100  1.00  0.00     0.387 C 
HETATM   22  N5  UNL     1       0.417  14.151   8.572  1.00  0.00     0.136 N 
HETATM   23  C11 UNL     1       0.653  13.364   9.773  1.00  0.00     0.286 A 
HETATM   24  C13 UNL     1       0.037  14.676   9.871  1.00  0.00     0.273 A 
BRANCH  20  25
HETATM   25  O1  UNL     1       0.160  16.798   7.984  1.00  0.00    -0.390 OA
ATOM     26  H1  UNL     1      -0.060  16.253   7.238  1.00  0.00     0.210 HD
ENDBRANCH  20  25
BRANCH  21  27
HETATM   27  O2  UNL     1       1.550  15.054   6.719  1.00  0.00    -0.366 OA
ATOM     28  H2  UNL     1       2.384  14.719   6.411  1.00  0.00     0.212 HD
ENDBRANCH  21  27
BRANCH  23  29
HETATM   29  C12 UNL     1      -0.230  12.136   9.846  1.00  0.00     0.267 C 
BRANCH  29  30
HETATM   30  N6  UNL     1       0.556  10.922   9.698  1.00  0.00    -0.077 N 
ATOM     31  H63 UNL     1       0.936  10.609  10.591  1.00  0.00     0.274 HD
ATOM     32  H62 UNL     1      -0.034  10.116   9.490  1.00  0.00     0.274 HD
ATOM     33  H61 UNL     1       1.288  11.044   9.000  1.00  0.00     0.274 HD
ENDBRANCH  29  30
ENDBRANCH  23  29
ENDBRANCH   3  19
TORSDOF 14
ENDMDL
MODEL 2
REMARK VINA RESULT: -5.650447459      1.970      3.170
REMARK  14 active torsions:
REMARK  status: ('A' for Active; 'I' for Inactive)
REMARK    1  A    between atoms: N1_1  and  C1_5 
REMARK    2  A    between atoms: C1_5  and  C2_6 
REMARK    3  A    between atoms: C2_6  and  C3_7 
REMARK    4  A    between atoms: C3_7  and  N2_8 
REMARK    5  A    between atoms: N2_8  and  C4_11 
REMARK    6  A    between atoms: C4_11  and  C5_12 
REMARK    7  A    between atoms: C5_12  and  C6_13 
REMARK    8  A    between atoms: C6_13  and  N3_14 
REMARK    9  A    between atoms: N3_14  and  N4_16 
REMARK   10  A    between atoms: C7_18  and  C8_19 
REMARK   11  A    between atoms: C9_20  and  O1_21 
REMARK   12  A    between atoms: C10_23  and  O2_24 
REMARK   13  A    between atoms: C11_27  and  C12_28 
REMARK   14  A    between atoms: C12_28  and  N6_29 
ROOT
HETATM    1  N4  UNL     1       0.647  16.475  11.141  1.00  0.00    -0.320 N 
ATOM      2  H4  UNL     1       0.005  15.682  11.143  1.00  0.00     0.185 HD
HETATM    3  C7  UNL     1       1.655  16.469  10.340  1.00  0.00     0.089 C 
ENDROOT
BRANCH   1   4
HETATM    4  N3  UNL     1       0.413  17.556  12.018  1.00  0.00    -0.337 N 
ATOM      5  H3  UNL     1       1.034  18.364  11.974  1.00  0.00     0.180 HD
BRANCH   4   6
HETATM    6  C6  UNL     1      -0.660  17.563  12.967  1.00  0.00     0.141 C 
BRANCH   6   7
HETATM    7  C5  UNL     1      -0.746  16.232  13.677  1.00  0.00     0.048 C 
BRANCH   7   8
HETATM    8  C4  UNL     1      -2.173  15.757  13.734  1.00  0.00     0.234 C 
BRANCH   8   9
HETATM    9  N2  UNL     1      -2.750  15.820  12.422  1.00  0.00    -0.075 N 
ATOM     10  H22 UNL     1      -2.462  16.668  11.933  1.00  0.00     0.277 HD
ATOM     11  H21 UNL     1      -3.754  15.994  12.469  1.00  0.00     0.277 HD
BRANCH   9  12
HETATM   12  C3  UNL     1      -2.462  14.655  11.648  1.00  0.00     0.233 C 
BRANCH  12  13
HETATM   13  C2  UNL     1      -2.297  15.002  10.174  1.00  0.00     0.055 C 
BRANCH  13  14
HETATM   14  C1  UNL     1      -2.410  13.677   9.412  1.00  0.00     0.231 C 
BRANCH  14  15
HETATM   15  N1  UNL     1      -2.375  14.003   8.002  1.00  0.00    -0.079 N 
ATOM     16  H13 UNL     1      -1.429  14.051   7.623  1.00  0.00     0.274 HD
ATOM     17  H12 UNL     1      -2.714  13.249   7.405  1.00  0.00     0.274 HD
ATOM     18  H11 UNL     1      -2.898  14.871   7.888  1.00  0.00     0.274 HD
ENDBRANCH  14  15
ENDBRANCH  13  14
ENDBRANCH  12  13
ENDBRANCH   9  12
ENDBRANCH   8   9
ENDBRANCH   7   8
ENDBRANCH   6   7
ENDBRANCH   4   6
ENDBRANCH   1   4
BRANCH   3  19
HETATM   19  C8  UNL     1       1.973  15.408   9.406  1.00  0.00     0.094 C 
HETATM   20  C9  UNL     1       1.533  15.726   7.979  1.00  0.00     0.188 C 
HETATM   21  C10 UNL     1       1.683  14.361   7.343  1.00  0.00     0.387 C 
HETATM   22  N5  UNL     1       1.074  13.505   8.324  1.00  0.00     0.136 N 
HETATM   23  C11 UNL     1       1.989  12.851   9.246  1.00  0.00     0.286 A 
HETATM   24  C13 UNL     1       1.325  14.083   9.632  1.00  0.00     0.273 A 
BRANCH  20  25
HETATM   25  O1  UNL     1       0.181  16.048   7.924  1.00  0.00    -0.390 OA
ATOM     26  H1  UNL     1      -0.102  16.488   8.717  1.00  0.00     0.210 HD
ENDBRANCH  20  25
BRANCH  21  27
HETATM   27  O2  UNL     1       0.984  14.385   6.144  1.00  0.00    -0.366 OA
ATOM     28  H2  UNL     1       1.441  13.812   5.539  1.00  0.00     0.212 HD
ENDBRANCH  21  27
BRANCH  23  29
HETATM   29  C12 UNL     1       1.448  11.536   9.767  1.00  0.00     0.267 C 
BRANCH  29  30
HETATM   30  N6  UNL     1       2.230  10.417   9.268  1.00  0.00    -0.077 N 
ATOM     31  H63 UNL     1       1.922  10.127   8.340  1.00  0.00     0.274 HD
ATOM     32  H62 UNL     1       3.182  10.698   9.034  1.00  0.00     0.274 HD
ATOM     33  H61 UNL     1       2.217   9.640   9.928  1.00  0.00     0.274 HD
ENDBRANCH  29  30
ENDBRANCH  23  29
ENDBRANCH   3  19
TORSDOF 14
ENDMDL
MODEL 3
REMARK VINA RESULT: -5.649394092      3.035      5.770
REMARK  14 active torsions:
REMARK  status: ('A' for Active; 'I' for Inactive)
REMARK    1  A    between atoms: N1_1  and  C1_5 
REMARK    2  A    between atoms: C1_5  and  C2_6 
REMARK    3  A    between atoms: C2_6  and  C3_7 
REMARK    4  A    between atoms: C3_7  and  N2_8 
REMARK    5  A    between atoms: N2_8  and  C4_11 
REMARK    6  A    between atoms: C4_11  and  C5_12 
REMARK    7  A    between atoms: C5_12  and  C6_13 
REMARK    8  A    between atoms: C6_13  and  N3_14 
REMARK    9  A    between atoms: N3_14  and  N4_16 
REMARK   10  A    between atoms: C7_18  and  C8_19 
REMARK   11  A    between atoms: C9_20  and  O1_21 
REMARK   12  A    between atoms: C10_23  and  O2_24 
REMARK   13  A    between atoms: C11_27  and  C12_28 
REMARK   14  A    between atoms: C12_28  and  N6_29 
ROOT
HETATM    1  N4  UNL     1       0.399  17.211  11.448  1.00  0.00    -0.320 N 
ATOM      2  H4  UNL     1       0.445  17.345  12.459  1.00  0.00     0.185 HD
HETATM    3  C7  UNL     1      -0.722  16.889  10.905  1.00  0.00     0.089 C 
ENDROOT
BRANCH   1   4
HETATM    4  N3  UNL     1       1.567  17.384  10.675  1.00  0.00    -0.337 N 
ATOM      5  H3  UNL     1       2.250  18.082  10.970  1.00  0.00     0.180 HD
BRANCH   4   6
HETATM    6  C6  UNL     1       1.833  16.618   9.494  1.00  0.00     0.141 C 
BRANCH   6   7
HETATM    7  C5  UNL     1       2.765  15.470   9.807  1.00  0.00     0.048 C 
BRANCH   7   8
HETATM    8  C4  UNL     1       2.045  14.155   9.668  1.00  0.00     0.234 C 
BRANCH   8   9
HETATM    9  N2  UNL     1       1.382  13.842  10.900  1.00  0.00    -0.075 N 
ATOM     10  H22 UNL     1       1.322  14.661  11.506  1.00  0.00     0.277 HD
ATOM     11  H21 UNL     1       1.963  13.246  11.490  1.00  0.00     0.277 HD
BRANCH   9  12
HETATM   12  C3  UNL     1       0.094  13.261  10.688  1.00  0.00     0.233 C 
BRANCH  12  13
HETATM   13  C2  UNL     1      -0.396  13.516   9.268  1.00  0.00     0.055 C 
BRANCH  13  14
HETATM   14  C1  UNL     1      -1.926  13.557   9.350  1.00  0.00     0.231 C 
BRANCH  14  15
HETATM   15  N1  UNL     1      -2.407  13.828   8.011  1.00  0.00    -0.079 N 
ATOM     16  H13 UNL     1      -2.570  14.819   7.835  1.00  0.00     0.274 HD
ATOM     17  H12 UNL     1      -1.699  13.683   7.292  1.00  0.00     0.274 HD
ATOM     18  H11 UNL     1      -3.238  13.253   7.877  1.00  0.00     0.274 HD
ENDBRANCH  14  15
ENDBRANCH  13  14
ENDBRANCH  12  13
ENDBRANCH   9  12
ENDBRANCH   8   9
ENDBRANCH   7   8
ENDBRANCH   6   7
ENDBRANCH   4   6
ENDBRANCH   1   4
BRANCH   3  19
HETATM   19  C8  UNL     1      -1.969  16.692  11.615  1.00  0.00     0.094 C 
HETATM   20  C9  UNL     1      -2.406  17.931  12.394  1.00  0.00     0.188 C 
HETATM   21  C10 UNL     1      -3.495  17.333  13.258  1.00  0.00     0.387 C 
HETATM   22  N5  UNL     1      -2.876  16.123  13.726  1.00  0.00     0.136 N 
HETATM   23  C11 UNL     1      -3.209  14.916  12.984  1.00  0.00     0.286 A 
HETATM   24  C13 UNL     1      -1.991  15.646  12.679  1.00  0.00     0.273 A 
BRANCH  20  25
HETATM   25  O1  UNL     1      -1.406  18.367  13.256  1.00  0.00    -0.390 OA
ATOM     26  H1  UNL     1      -1.716  19.065  13.821  1.00  0.00     0.210 HD
ENDBRANCH  20  25
BRANCH  21  27
HETATM   27  O2  UNL     1      -3.753  18.234  14.281  1.00  0.00    -0.366 OA
ATOM     28  H2  UNL     1      -3.362  19.063  14.032  1.00  0.00     0.212 HD
ENDBRANCH  21  27
BRANCH  23  29
HETATM   29  C12 UNL     1      -3.117  13.668  13.836  1.00  0.00     0.267 C 
BRANCH  29  30
HETATM   30  N6  UNL     1      -2.729  12.519  13.033  1.00  0.00    -0.077 N 
ATOM     31  H63 UNL     1      -1.767  12.596  12.705  1.00  0.00     0.274 HD
ATOM     32  H62 UNL     1      -2.632  11.678  13.602  1.00  0.00     0.274 HD
ATOM     33  H61 UNL     1      -3.380  12.378  12.261  1.00  0.00     0.274 HD
ENDBRANCH  29  30
ENDBRANCH  23  29
ENDBRANCH   3  19
TORSDOF 14
ENDMDL
MODEL 4
REMARK VINA RESULT: -5.642521846      2.103      3.074
REMARK  14 active torsions:
REMARK  status: ('A' for Active; 'I' for Inactive)
REMARK    1  A    between atoms: N1_1  and  C1_5 
REMARK    2  A    between atoms: C1_5  and  C2_6 
REMARK    3  A    between atoms: C2_6  and  C3_7 
REMARK    4  A    between atoms: C3_7  and  N2_8 
REMARK    5  A    between atoms: N2_8  and  C4_11 
REMARK    6  A    between atoms: C4_11  and  C5_12 
REMARK    7  A    between atoms: C5_12  and  C6_13 
REMARK    8  A    between atoms: C6_13  and  N3_14 
REMARK    9  A    between atoms: N3_14  and  N4_16 
REMARK   10  A    between atoms: C7_18  and  C8_19 
REMARK   11  A    between atoms: C9_20  and  O1_21 
REMARK   12  A    between atoms: C10_23  and  O2_24 
REMARK   13  A    between atoms: C11_27  and  C12_28 
REMARK   14  A    between atoms: C12_28  and  N6_29 
ROOT
HETATM    1  N4  UNL     1      -0.621  17.272  10.645  1.00  0.00    -0.320 N 
ATOM      2  H4  UNL     1      -1.107  16.612  10.036  1.00  0.00     0.185 HD
HETATM    3  C7  UNL     1       0.663  17.232  10.720  1.00  0.00     0.089 C 
ENDROOT
BRANCH   1   4
HETATM    4  N3  UNL     1      -1.371  18.207  11.388  1.00  0.00    -0.337 N 
ATOM      5  H3  UNL     1      -1.400  19.176  11.069  1.00  0.00     0.180 HD
BRANCH   4   6
HETATM    6  C6  UNL     1      -2.094  17.853  12.574  1.00  0.00     0.141 C 
BRANCH   6   7
HETATM    7  C5  UNL     1      -3.155  16.824  12.257  1.00  0.00     0.048 C 
BRANCH   7   8
HETATM    8  C4  UNL     1      -3.063  15.662  13.210  1.00  0.00     0.234 C 
BRANCH   8   9
HETATM    9  N2  UNL     1      -3.207  14.435  12.480  1.00  0.00    -0.075 N 
ATOM     10  H22 UNL     1      -4.061  14.435  11.923  1.00  0.00     0.277 HD
ATOM     11  H21 UNL     1      -3.422  13.658  13.105  1.00  0.00     0.277 HD
BRANCH   9  12
HETATM   12  C3  UNL     1      -2.063  14.149  11.674  1.00  0.00     0.233 C 
BRANCH  12  13
HETATM   13  C2  UNL     1      -2.463  13.435  10.389  1.00  0.00     0.055 C 
BRANCH  13  14
HETATM   14  C1  UNL     1      -2.428  14.498   9.285  1.00  0.00     0.231 C 
BRANCH  14  15
HETATM   15  N1  UNL     1      -2.337  13.789   8.026  1.00  0.00    -0.079 N 
ATOM     16  H13 UNL     1      -1.386  13.737   7.661  1.00  0.00     0.274 HD
ATOM     17  H12 UNL     1      -2.495  12.785   8.117  1.00  0.00     0.274 HD
ATOM     18  H11 UNL     1      -2.990  14.241   7.387  1.00  0.00     0.274 HD
ENDBRANCH  14  15
ENDBRANCH  13  14
ENDBRANCH  12  13
ENDBRANCH   9  12
ENDBRANCH   8   9
ENDBRANCH   7   8
ENDBRANCH   6   7
ENDBRANCH   4   6
ENDBRANCH   1   4
BRANCH   3  19
HETATM   19  C8  UNL     1       1.514  16.311   9.995  1.00  0.00     0.094 C 
HETATM   20  C9  UNL     1       1.560  16.603   8.497  1.00  0.00     0.188 C 
HETATM   21  C10 UNL     1       2.215  15.334   7.997  1.00  0.00     0.387 C 
HETATM   22  N5  UNL     1       1.492  14.320   8.715  1.00  0.00     0.136 N 
HETATM   23  C11 UNL     1       2.132  13.825   9.924  1.00  0.00     0.286 A 
HETATM   24  C13 UNL     1       1.127  14.870  10.008  1.00  0.00     0.273 A 
BRANCH  20  25
HETATM   25  O1  UNL     1       0.283  16.638   7.948  1.00  0.00    -0.390 OA
ATOM     26  H1  UNL     1       0.287  17.041   7.087  1.00  0.00     0.210 HD
ENDBRANCH  20  25
BRANCH  21  27
HETATM   27  O2  UNL     1       2.006  15.274   6.627  1.00  0.00    -0.366 OA
ATOM     28  H2  UNL     1       1.085  15.447   6.473  1.00  0.00     0.212 HD
ENDBRANCH  21  27
BRANCH  23  29
HETATM   29  C12 UNL     1       1.733  12.401  10.251  1.00  0.00     0.267 C 
BRANCH  29  30
HETATM   30  N6  UNL     1       1.233  12.301  11.612  1.00  0.00    -0.077 N 
ATOM     31  H63 UNL     1       0.442  11.661  11.677  1.00  0.00     0.274 HD
ATOM     32  H62 UNL     1       1.886  11.802  12.217  1.00  0.00     0.274 HD
ATOM     33  H61 UNL     1       1.004  13.222  11.985  1.00  0.00     0.274 HD
ENDBRANCH  29  30
ENDBRANCH  23  29
ENDBRANCH   3  19
TORSDOF 14
ENDMDL
MODEL 5
REMARK VINA RESULT: -5.617201988      1.120      1.256
REMARK  14 active torsions:
REMARK  status: ('A' for Active; 'I' for Inactive)
REMARK    1  A    between atoms: N1_1  and  C1_5 
REMARK    2  A    between atoms: C1_5  and  C2_6 
REMARK    3  A    between atoms: C2_6  and  C3_7 
REMARK    4  A    between atoms: C3_7  and  N2_8 
REMARK    5  A    between atoms: N2_8  and  C4_11 
REMARK    6  A    between atoms: C4_11  and  C5_12 
REMARK    7  A    between atoms: C5_12  and  C6_13 
REMARK    8  A    between atoms: C6_13  and  N3_14 
REMARK    9  A    between atoms: N3_14  and  N4_16 
REMARK   10  A    between atoms: C7_18  and  C8_19 
REMARK   11  A    between atoms: C9_20  and  O1_21 
REMARK   12  A    between atoms: C10_23  and  O2_24 
REMARK   13  A    between atoms: C11_27  and  C12_28 
REMARK   14  A    between atoms: C12_28  and  N6_29 
ROOT
HETATM    1  N4  UNL     1      -0.993  17.255  10.814  1.00  0.00    -0.320 N 
ATOM      2  H4  UNL     1      -1.625  16.683  10.254  1.00  0.00     0.185 HD
HETATM    3  C7  UNL     1       0.264  16.975  10.830  1.00  0.00     0.089 C 
ENDROOT
BRANCH   1   4
HETATM    4  N3  UNL     1      -1.513  18.337  11.556  1.00  0.00    -0.337 N 
ATOM      5  H3  UNL     1      -1.461  19.274  11.156  1.00  0.00     0.180 HD
BRANCH   4   6
HETATM    6  C6  UNL     1      -2.110  18.173  12.848  1.00  0.00     0.141 C 
BRANCH   6   7
HETATM    7  C5  UNL     1      -3.536  17.690  12.712  1.00  0.00     0.048 C 
BRANCH   7   8
HETATM    8  C4  UNL     1      -3.635  16.232  13.075  1.00  0.00     0.234 C 
BRANCH   8   9
HETATM    9  N2  UNL     1      -3.286  16.059  14.455  1.00  0.00    -0.075 N 
ATOM     10  H22 UNL     1      -4.118  15.981  15.040  1.00  0.00     0.277 HD
ATOM     11  H21 UNL     1      -2.893  16.916  14.846  1.00  0.00     0.277 HD
BRANCH   9  12
HETATM   12  C3  UNL     1      -2.409  14.950  14.655  1.00  0.00     0.233 C 
BRANCH  12  13
HETATM   13  C2  UNL     1      -1.864  14.434  13.328  1.00  0.00     0.055 C 
BRANCH  13  14
HETATM   14  C1  UNL     1      -0.350  14.288  13.520  1.00  0.00     0.231 C 
BRANCH  14  15
HETATM   15  N1  UNL     1       0.111  15.515  14.134  1.00  0.00    -0.079 N 
ATOM     16  H13 UNL     1       1.006  15.838  13.765  1.00  0.00     0.274 HD
ATOM     17  H12 UNL     1      -0.440  16.331  13.869  1.00  0.00     0.274 HD
ATOM     18  H11 UNL     1       0.127  15.351  15.141  1.00  0.00     0.274 HD
ENDBRANCH  14  15
ENDBRANCH  13  14
ENDBRANCH  12  13
ENDBRANCH   9  12
ENDBRANCH   8   9
ENDBRANCH   7   8
ENDBRANCH   6   7
ENDBRANCH   4   6
ENDBRANCH   1   4
BRANCH   3  19
HETATM   19  C8  UNL     1       0.887  15.889  10.102  1.00  0.00     0.094 C 
HETATM   20  C9  UNL     1       1.268  16.276   8.675  1.00  0.00     0.188 C 
HETATM   21  C10 UNL     1       1.561  14.910   8.096  1.00  0.00     0.387 C 
HETATM   22  N5  UNL     1       0.447  14.137   8.573  1.00  0.00     0.136 N 
HETATM   23  C11 UNL     1       0.690  13.355   9.775  1.00  0.00     0.286 A 
HETATM   24  C13 UNL     1       0.067  14.664   9.871  1.00  0.00     0.273 A 
BRANCH  20  25
HETATM   25  O1  UNL     1       0.175  16.781   7.977  1.00  0.00    -0.390 OA
ATOM     26  H1  UNL     1       0.447  17.395   7.305  1.00  0.00     0.210 HD
ENDBRANCH  20  25
BRANCH  21  27
HETATM   27  O2  UNL     1       1.572  15.040   6.714  1.00  0.00    -0.366 OA
ATOM     28  H2  UNL     1       2.310  15.593   6.488  1.00  0.00     0.212 HD
ENDBRANCH  21  27
BRANCH  23  29
HETATM   29  C12 UNL     1      -0.186  12.123   9.854  1.00  0.00     0.267 C 
BRANCH  29  30
HETATM   30  N6  UNL     1       0.600  10.913   9.677  1.00  0.00    -0.077 N 
ATOM     31  H63 UNL     1       1.585  11.071   9.891  1.00  0.00     0.274 HD
ATOM     32  H62 UNL     1       0.394  10.222  10.398  1.00  0.00     0.274 HD
ATOM     33  H61 UNL     1       0.475  10.530   8.741  1.00  0.00     0.274 HD
ENDBRANCH  29  30
ENDBRANCH  23  29
ENDBRANCH   3  19
TORSDOF 14
ENDMDL
