MODEL 1
REMARK VINA RESULT: -5.632219664      0.000      0.000
REMARK  12 active torsions:
REMARK  status: ('A' for Active; 'I' for Inactive)
REMARK    1  A    between atoms: N1_2  and  C2_5 
REMARK    2  A    between atoms: C2_5  and  C3_6 
REMARK    3  A    between atoms: C3_6  and  C4_7 
REMARK    4  A    between atoms: C4_7  and  N2_8 
REMARK    5  A    between atoms: N2_8  and  C5_11 
REMARK    6  A    between atoms: C5_11  and  C6_12 
REMARK    7  A    between atoms: C6_12  and  N3_13 
REMARK    8  A    between atoms: N3_13  and  C7_14 
REMARK    9  A    between atoms: N3_13  and  C9_20 
REMARK   10  A    between atoms: C7_14  and  C8_15 
REMARK   11  A    between atoms: C8_15  and  N4_16 
REMARK   12  A    between atoms: C13_28  and  O2_29 
ROOT
HETATM    1  N3  UNL     1      -0.147  15.977  10.184  1.00  0.00    -0.340 N 
ENDROOT
BRANCH   1   2
HETATM    2  C6  UNL     1      -0.313  15.967  11.549  1.00  0.00     0.092 C 
BRANCH   2   3
HETATM    3  C5  UNL     1      -0.357  17.255  12.274  1.00  0.00     0.277 C 
BRANCH   3   4
HETATM    4  N2  UNL     1      -1.420  18.110  11.787  1.00  0.00    -0.071 N 
ATOM      5  H22 UNL     1      -1.797  17.797  10.893  1.00  0.00     0.277 HD
ATOM      6  H21 UNL     1      -1.082  19.023  11.484  1.00  0.00     0.277 HD
BRANCH   4   7
HETATM    7  C4  UNL     1      -2.416  18.205  12.794  1.00  0.00     0.234 C 
BRANCH   7   8
HETATM    8  C3  UNL     1      -3.662  17.453  12.467  1.00  0.00     0.055 C 
BRANCH   8   9
HETATM    9  C2  UNL     1      -3.683  16.131  13.213  1.00  0.00     0.233 C 
BRANCH   9  10
HETATM   10  N1  UNL     1      -2.950  16.198  14.459  1.00  0.00    -0.079 N 
HETATM   11  C1  UNL     1      -2.199  15.019  14.746  1.00  0.00     0.266 C 
ATOM     12  H12 UNL     1      -3.576  16.424  15.233  1.00  0.00     0.276 HD
ATOM     13  H11 UNL     1      -2.349  17.022  14.480  1.00  0.00     0.276 HD
ENDBRANCH   9  10
ENDBRANCH   8   9
ENDBRANCH   7   8
ENDBRANCH   4   7
ENDBRANCH   3   4
ENDBRANCH   2   3
ENDBRANCH   1   2
BRANCH   1  14
HETATM   14  C7  UNL     1      -1.205  15.748   9.288  1.00  0.00     0.092 C 
BRANCH  14  15
HETATM   15  C8  UNL     1      -1.877  14.385   9.406  1.00  0.00     0.274 C 
BRANCH  15  16
HETATM   16  N4  UNL     1      -2.097  13.800   8.096  1.00  0.00    -0.075 N 
ATOM     17  H43 UNL     1      -2.397  14.499   7.417  1.00  0.00     0.274 HD
ATOM     18  H42 UNL     1      -1.219  13.522   7.655  1.00  0.00     0.274 HD
ATOM     19  H41 UNL     1      -2.754  13.021   8.150  1.00  0.00     0.274 HD
ENDBRANCH  15  16
ENDBRANCH  14  15
ENDBRANCH   1  14
BRANCH   1  20
HETATM   20  C9  UNL     1       1.117  16.008   9.576  1.00  0.00     0.322 C 
HETATM   21  N5  UNL     1       0.981  16.348   8.115  1.00  0.00    -0.022 N 
HETATM   22  C10 UNL     1       2.104  15.698   7.533  1.00  0.00     0.353 C 
ATOM     23  H52 UNL     1       0.082  16.100   7.701  1.00  0.00     0.282 HD
ATOM     24  H51 UNL     1       0.914  17.346   7.914  1.00  0.00     0.282 HD
HETATM   25  O1  UNL     1       3.000  15.420   8.609  1.00  0.00    -0.348 OA
HETATM   26  C13 UNL     1       1.723  14.270   7.183  1.00  0.00     0.177 C 
HETATM   27  C11 UNL     1       1.979  14.833   9.464  1.00  0.00     0.177 C 
HETATM   28  C12 UNL     1       1.561  13.714   8.610  1.00  0.00     0.072 C 
BRANCH  26  29
HETATM   29  O2  UNL     1       0.584  14.145   6.437  1.00  0.00    -0.391 OA
ATOM     30  H2  UNL     1       0.487  14.786   5.744  1.00  0.00     0.210 HD
ENDBRANCH  26  29
ENDBRANCH   1  20
TORSDOF 12
ENDMDL
MODEL 2
REMARK VINA RESULT: -5.585983942      1.294      1.980
REMARK  12 active torsions:
REMARK  status: ('A' for Active; 'I' for Inactive)
REMARK    1  A    between atoms: N1_2  and  C2_5 
REMARK    2  A    between atoms: C2_5  and  C3_6 
REMARK    3  A    between atoms: C3_6  and  C4_7 
REMARK    4  A    between atoms: C4_7  and  N2_8 
REMARK    5  A    between atoms: N2_8  and  C5_11 
REMARK    6  A    between atoms: C5_11  and  C6_12 
REMARK    7  A    between atoms: C6_12  and  N3_13 
REMARK    8  A    between atoms: N3_13  and  C7_14 
REMARK    9  A    between atoms: N3_13  and  C9_20 
REMARK   10  A    between atoms: C7_14  and  C8_15 
REMARK   11  A    between atoms: C8_15  and  N4_16 
REMARK   12  A    between atoms: C13_28  and  O2_29 
ROOT
HETATM    1  N3  UNL     1      -0.458  14.935  10.433  1.00  0.00    -0.340 N 
ENDROOT
BRANCH   1   2
HETATM    2  C6  UNL     1      -0.460  13.999  11.441  1.00  0.00     0.092 C 
BRANCH   2   3
HETATM    3  C5  UNL     1      -1.024  14.366  12.757  1.00  0.00     0.277 C 
BRANCH   3   4
HETATM    4  N2  UNL     1      -0.113  15.195  13.520  1.00  0.00    -0.071 N 
ATOM      5  H22 UNL     1       0.750  15.395  13.016  1.00  0.00     0.277 HD
ATOM      6  H21 UNL     1       0.299  14.700  14.311  1.00  0.00     0.277 HD
BRANCH   4   7
HETATM    7  C4  UNL     1      -0.800  16.373  13.913  1.00  0.00     0.234 C 
BRANCH   7   8
HETATM    8  C3  UNL     1      -0.627  17.506  12.957  1.00  0.00     0.055 C 
BRANCH   8   9
HETATM    9  C2  UNL     1      -1.968  17.895  12.361  1.00  0.00     0.233 C 
BRANCH   9  10
HETATM   10  N1  UNL     1      -2.709  18.787  13.227  1.00  0.00    -0.079 N 
HETATM   11  C1  UNL     1      -4.056  18.376  13.454  1.00  0.00     0.266 C 
ATOM     12  H12 UNL     1      -2.678  19.742  12.871  1.00  0.00     0.276 HD
ATOM     13  H11 UNL     1      -2.219  18.920  14.112  1.00  0.00     0.276 HD
ENDBRANCH   9  10
ENDBRANCH   8   9
ENDBRANCH   7   8
ENDBRANCH   4   7
ENDBRANCH   3   4
ENDBRANCH   2   3
ENDBRANCH   1   2
BRANCH   1  14
HETATM   14  C7  UNL     1      -1.618  15.291   9.725  1.00  0.00     0.092 C 
BRANCH  14  15
HETATM   15  C8  UNL     1      -2.485  14.125   9.263  1.00  0.00     0.274 C 
BRANCH  15  16
HETATM   16  N4  UNL     1      -2.152  13.739   7.904  1.00  0.00    -0.075 N 
ATOM     17  H43 UNL     1      -1.183  13.958   7.676  1.00  0.00     0.274 HD
ATOM     18  H42 UNL     1      -2.110  12.724   7.800  1.00  0.00     0.274 HD
ATOM     19  H41 UNL     1      -2.800  14.159   7.236  1.00  0.00     0.274 HD
ENDBRANCH  15  16
ENDBRANCH  14  15
ENDBRANCH   1  14
BRANCH   1  20
HETATM   20  C9  UNL     1       0.725  15.457   9.888  1.00  0.00     0.322 C 
HETATM   21  N5  UNL     1       0.452  16.048   8.530  1.00  0.00    -0.022 N 
HETATM   22  C10 UNL     1       1.697  15.889   7.860  1.00  0.00     0.353 C 
ATOM     23  H52 UNL     1      -0.349  15.646   8.043  1.00  0.00     0.282 HD
ATOM     24  H51 UNL     1       0.094  17.003   8.544  1.00  0.00     0.282 HD
HETATM   25  O1  UNL     1       2.667  15.657   8.881  1.00  0.00    -0.348 OA
HETATM   26  C13 UNL     1       1.732  14.521   7.201  1.00  0.00     0.177 C 
HETATM   27  C11 UNL     1       1.885  14.633   9.557  1.00  0.00     0.177 C 
HETATM   28  C12 UNL     1       1.781  13.651   8.470  1.00  0.00     0.072 C 
BRANCH  26  29
HETATM   29  O2  UNL     1       0.656  14.235   6.408  1.00  0.00    -0.391 OA
ATOM     30  H2  UNL     1       0.313  13.355   6.500  1.00  0.00     0.210 HD
ENDBRANCH  26  29
ENDBRANCH   1  20
TORSDOF 12
ENDMDL
MODEL 3
REMARK VINA RESULT: -5.475893654      1.581      2.265
REMARK  12 active torsions:
REMARK  status: ('A' for Active; 'I' for Inactive)
REMARK    1  A    between atoms: N1_2  and  C2_5 
REMARK    2  A    between atoms: C2_5  and  C3_6 
REMARK    3  A    between atoms: C3_6  and  C4_7 
REMARK    4  A    between atoms: C4_7  and  N2_8 
REMARK    5  A    between atoms: N2_8  and  C5_11 
REMARK    6  A    between atoms: C5_11  and  C6_12 
REMARK    7  A    between atoms: C6_12  and  N3_13 
REMARK    8  A    between atoms: N3_13  and  C7_14 
REMARK    9  A    between atoms: N3_13  and  C9_20 
REMARK   10  A    between atoms: C7_14  and  C8_15 
REMARK   11  A    between atoms: C8_15  and  N4_16 
REMARK   12  A    between atoms: C13_28  and  O2_29 
ROOT
HETATM    1  N3  UNL     1      -0.783  13.879  10.486  1.00  0.00    -0.340 N 
ENDROOT
BRANCH   1   2
HETATM    2  C6  UNL     1      -1.160  14.872  11.359  1.00  0.00     0.092 C 
BRANCH   2   3
HETATM    3  C5  UNL     1      -1.828  16.078  10.824  1.00  0.00     0.277 C 
BRANCH   3   4
HETATM    4  N2  UNL     1      -1.089  17.284  11.137  1.00  0.00    -0.071 N 
ATOM      5  H22 UNL     1      -1.275  18.040  10.479  1.00  0.00     0.277 HD
ATOM      6  H21 UNL     1      -0.088  17.189  10.960  1.00  0.00     0.277 HD
BRANCH   4   7
HETATM    7  C4  UNL     1      -1.371  17.649  12.479  1.00  0.00     0.234 C 
BRANCH   7   8
HETATM    8  C3  UNL     1      -2.659  18.386  12.634  1.00  0.00     0.055 C 
BRANCH   8   9
HETATM    9  C2  UNL     1      -3.608  17.597  13.518  1.00  0.00     0.233 C 
BRANCH   9  10
HETATM   10  N1  UNL     1      -2.907  16.643  14.351  1.00  0.00    -0.079 N 
HETATM   11  C1  UNL     1      -3.532  15.361  14.403  1.00  0.00     0.266 C 
ATOM     12  H12 UNL     1      -2.773  17.016  15.291  1.00  0.00     0.276 HD
ATOM     13  H11 UNL     1      -1.933  16.557  14.061  1.00  0.00     0.276 HD
ENDBRANCH   9  10
ENDBRANCH   8   9
ENDBRANCH   7   8
ENDBRANCH   4   7
ENDBRANCH   3   4
ENDBRANCH   2   3
ENDBRANCH   1   2
BRANCH   1  14
HETATM   14  C7  UNL     1      -1.615  12.794  10.164  1.00  0.00     0.092 C 
BRANCH  14  15
HETATM   15  C8  UNL     1      -2.859  13.142   9.354  1.00  0.00     0.274 C 
BRANCH  15  16
HETATM   16  N4  UNL     1      -2.499  13.733   8.078  1.00  0.00    -0.075 N 
ATOM     17  H43 UNL     1      -3.241  14.332   7.718  1.00  0.00     0.274 HD
ATOM     18  H42 UNL     1      -1.768  14.437   8.182  1.00  0.00     0.274 HD
ATOM     19  H41 UNL     1      -2.236  13.014   7.404  1.00  0.00     0.274 HD
ENDBRANCH  15  16
ENDBRANCH  14  15
ENDBRANCH   1  14
BRANCH   1  20
HETATM   20  C9  UNL     1       0.530  13.751  10.007  1.00  0.00     0.322 C 
HETATM   21  N5  UNL     1       1.489  14.453  10.932  1.00  0.00    -0.022 N 
HETATM   22  C10 UNL     1       2.545  14.838  10.059  1.00  0.00     0.353 C 
ATOM     23  H52 UNL     1       1.081  15.217  11.470  1.00  0.00     0.282 HD
ATOM     24  H51 UNL     1       1.782  13.904  11.739  1.00  0.00     0.282 HD
HETATM   25  O1  UNL     1       2.397  14.041   8.885  1.00  0.00    -0.348 OA
HETATM   26  C13 UNL     1       2.217  16.192   9.454  1.00  0.00     0.177 C 
HETATM   27  C11 UNL     1       0.976  14.315   8.734  1.00  0.00     0.177 C 
HETATM   28  C12 UNL     1       1.026  15.774   8.573  1.00  0.00     0.072 C 
BRANCH  26  29
HETATM   29  O2  UNL     1       1.888  17.163  10.358  1.00  0.00    -0.391 OA
ATOM     30  H2  UNL     1       0.956  17.291  10.487  1.00  0.00     0.210 HD
ENDBRANCH  26  29
ENDBRANCH   1  20
TORSDOF 12
ENDMDL
MODEL 4
REMARK VINA RESULT: -5.385517023      2.413      3.439
REMARK  12 active torsions:
REMARK  status: ('A' for Active; 'I' for Inactive)
REMARK    1  A    between atoms: N1_2  and  C2_5 
REMARK    2  A    between atoms: C2_5  and  C3_6 
REMARK    3  A    between atoms: C3_6  and  C4_7 
REMARK    4  A    between atoms: C4_7  and  N2_8 
REMARK    5  A    between atoms: N2_8  and  C5_11 
REMARK    6  A    between atoms: C5_11  and  C6_12 
REMARK    7  A    between atoms: C6_12  and  N3_13 
REMARK    8  A    between atoms: N3_13  and  C7_14 
REMARK    9  A    between atoms: N3_13  and  C9_20 
REMARK   10  A    between atoms: C7_14  and  C8_15 
REMARK   11  A    between atoms: C8_15  and  N4_16 
REMARK   12  A    between atoms: C13_28  and  O2_29 
ROOT
HETATM    1  N3  UNL     1       1.296  12.971  10.688  1.00  0.00    -0.340 N 
ENDROOT
BRANCH   1   2
HETATM    2  C6  UNL     1       1.073  13.466  11.951  1.00  0.00     0.092 C 
BRANCH   2   3
HETATM    3  C5  UNL     1      -0.189  14.187  12.225  1.00  0.00     0.277 C 
BRANCH   3   4
HETATM    4  N2  UNL     1       0.042  15.591  12.495  1.00  0.00    -0.071 N 
ATOM      5  H22 UNL     1      -0.216  16.189  11.711  1.00  0.00     0.277 HD
ATOM      6  H21 UNL     1       1.034  15.826  12.529  1.00  0.00     0.277 HD
BRANCH   4   7
HETATM    7  C4  UNL     1      -0.640  15.936  13.691  1.00  0.00     0.234 C 
BRANCH   7   8
HETATM    8  C3  UNL     1      -1.885  16.723  13.455  1.00  0.00     0.055 C 
BRANCH   8   9
HETATM    9  C2  UNL     1      -1.636  17.792  12.407  1.00  0.00     0.233 C 
BRANCH   9  10
HETATM   10  N1  UNL     1      -2.719  18.750  12.340  1.00  0.00    -0.079 N 
HETATM   11  C1  UNL     1      -3.870  18.367  13.091  1.00  0.00     0.266 C 
ATOM     12  H12 UNL     1      -2.969  18.943  11.370  1.00  0.00     0.276 HD
ATOM     13  H11 UNL     1      -2.398  19.677  12.621  1.00  0.00     0.276 HD
ENDBRANCH   9  10
ENDBRANCH   8   9
ENDBRANCH   7   8
ENDBRANCH   4   7
ENDBRANCH   3   4
ENDBRANCH   2   3
ENDBRANCH   1   2
BRANCH   1  14
HETATM   14  C7  UNL     1       0.968  11.656  10.319  1.00  0.00     0.092 C 
BRANCH  14  15
HETATM   15  C8  UNL     1       2.114  10.835   9.738  1.00  0.00     0.274 C 
BRANCH  15  16
HETATM   16  N4  UNL     1       1.639   9.554   9.248  1.00  0.00    -0.075 N 
ATOM     17  H43 UNL     1       0.674   9.610   8.921  1.00  0.00     0.274 HD
ATOM     18  H42 UNL     1       2.086   9.298   8.367  1.00  0.00     0.274 HD
ATOM     19  H41 UNL     1       1.755   8.827   9.954  1.00  0.00     0.274 HD
ENDBRANCH  15  16
ENDBRANCH  14  15
ENDBRANCH   1  14
BRANCH   1  20
HETATM   20  C9  UNL     1       2.054  13.659   9.729  1.00  0.00     0.322 C 
HETATM   21  N5  UNL     1       2.824  14.777  10.381  1.00  0.00    -0.022 N 
HETATM   22  C10 UNL     1       2.945  15.731   9.333  1.00  0.00     0.353 C 
ATOM     23  H52 UNL     1       2.407  15.138  11.240  1.00  0.00     0.282 HD
ATOM     24  H51 UNL     1       3.707  14.496  10.807  1.00  0.00     0.282 HD
HETATM   25  O1  UNL     1       2.675  15.024   8.123  1.00  0.00    -0.348 OA
HETATM   26  C13 UNL     1       1.724  16.635   9.343  1.00  0.00     0.177 C 
HETATM   27  C11 UNL     1       1.458  14.401   8.620  1.00  0.00     0.177 C 
HETATM   28  C12 UNL     1       0.667  15.605   8.904  1.00  0.00     0.072 C 
BRANCH  26  29
HETATM   29  O2  UNL     1       1.436  17.201  10.553  1.00  0.00    -0.391 OA
ATOM     30  H2  UNL     1       2.125  17.747  10.914  1.00  0.00     0.210 HD
ENDBRANCH  26  29
ENDBRANCH   1  20
TORSDOF 12
ENDMDL
MODEL 5
REMARK VINA RESULT: -5.348408782      1.867      2.460
REMARK  12 active torsions:
REMARK  status: ('A' for Active; 'I' for Inactive)
REMARK    1  A    between atoms: N1_2  and  C2_5 
REMARK    2  A    between atoms: C2_5  and  C3_6 
REMARK    3  A    between atoms: C3_6  and  C4_7 
REMARK    4  A    between atoms: C4_7  and  N2_8 
REMARK    5  A    between atoms: N2_8  and  C5_11 
REMARK    6  A    between atoms: C5_11  and  C6_12 
REMARK    7  A    between atoms: C6_12  and  N3_13 
REMARK    8  A    between atoms: N3_13  and  C7_14 
REMARK    9  A    between atoms: N3_13  and  C9_20 
REMARK   10  A    between atoms: C7_14  and  C8_15 
REMARK   11  A    between atoms: C8_15  and  N4_16 
REMARK   12  A    between atoms: C13_28  and  O2_29 
ROOT
HETATM    1  N3  UNL     1      -0.345  16.068  10.458  1.00  0.00    -0.340 N 
ENDROOT
BRANCH   1   2
HETATM    2  C6  UNL     1      -0.493  15.985  11.823  1.00  0.00     0.092 C 
BRANCH   2   3
HETATM    3  C5  UNL     1      -0.454  17.227  12.623  1.00  0.00     0.277 C 
BRANCH   3   4
HETATM    4  N2  UNL     1      -0.889  17.002  13.987  1.00  0.00    -0.071 N 
ATOM      5  H22 UNL     1      -1.870  17.244  14.130  1.00  0.00     0.277 HD
ATOM      6  H21 UNL     1      -0.484  17.670  14.643  1.00  0.00     0.277 HD
BRANCH   4   7
HETATM    7  C4  UNL     1      -0.604  15.656  14.333  1.00  0.00     0.234 C 
BRANCH   7   8
HETATM    8  C3  UNL     1      -0.280  15.473  15.777  1.00  0.00     0.055 C 
BRANCH   8   9
HETATM    9  C2  UNL     1       0.830  14.449  15.937  1.00  0.00     0.233 C 
BRANCH   9  10
HETATM   10  N1  UNL     1       1.371  14.031  14.661  1.00  0.00    -0.079 N 
HETATM   11  C1  UNL     1       1.570  12.622  14.559  1.00  0.00     0.266 C 
ATOM     12  H12 UNL     1       2.234  14.533  14.455  1.00  0.00     0.276 HD
ATOM     13  H11 UNL     1       0.789  14.369  13.895  1.00  0.00     0.276 HD
ENDBRANCH   9  10
ENDBRANCH   8   9
ENDBRANCH   7   8
ENDBRANCH   4   7
ENDBRANCH   3   4
ENDBRANCH   2   3
ENDBRANCH   1   2
BRANCH   1  14
HETATM   14  C7  UNL     1      -1.381  15.757   9.561  1.00  0.00     0.092 C 
BRANCH  14  15
HETATM   15  C8  UNL     1      -1.836  14.301   9.569  1.00  0.00     0.274 C 
BRANCH  15  16
HETATM   16  N4  UNL     1      -2.108  13.836   8.221  1.00  0.00    -0.075 N 
ATOM     17  H43 UNL     1      -2.898  14.330   7.805  1.00  0.00     0.274 HD
ATOM     18  H42 UNL     1      -1.381  14.129   7.567  1.00  0.00     0.274 HD
ATOM     19  H41 UNL     1      -2.245  12.826   8.204  1.00  0.00     0.274 HD
ENDBRANCH  15  16
ENDBRANCH  14  15
ENDBRANCH   1  14
BRANCH   1  20
HETATM   20  C9  UNL     1       0.901  16.265   9.843  1.00  0.00     0.322 C 
HETATM   21  N5  UNL     1       0.715  16.551   8.376  1.00  0.00    -0.022 N 
HETATM   22  C10 UNL     1       1.918  16.055   7.802  1.00  0.00     0.353 C 
ATOM     23  H52 UNL     1      -0.140  16.169   7.972  1.00  0.00     0.282 HD
ATOM     24  H51 UNL     1       0.506  17.525   8.155  1.00  0.00     0.282 HD
HETATM   25  O1  UNL     1       2.846  15.930   8.878  1.00  0.00    -0.348 OA
HETATM   26  C13 UNL     1       1.743  14.580   7.484  1.00  0.00     0.177 C 
HETATM   27  C11 UNL     1       1.921  15.222   9.751  1.00  0.00     0.177 C 
HETATM   28  C12 UNL     1       1.665  14.038   8.922  1.00  0.00     0.072 C 
BRANCH  26  29
HETATM   29  O2  UNL     1       0.631  14.278   6.746  1.00  0.00    -0.391 OA
ATOM     30  H2  UNL     1       0.309  14.985   6.200  1.00  0.00     0.210 HD
ENDBRANCH  26  29
ENDBRANCH   1  20
TORSDOF 12
ENDMDL
