MODEL 1
REMARK VINA RESULT: -5.014512350      0.000      0.000
REMARK  7 active torsions:
REMARK  status: ('A' for Active; 'I' for Inactive)
REMARK    1  A    between atoms: C3_3  and  N1_4 
REMARK    2  A    between atoms: N1_4  and  N2_5 
REMARK       I    between atoms: N1_4  and  C9_18 
REMARK    3  A    between atoms: C4_7  and  C5_8 
REMARK    4  A    between atoms: C6_10  and  N3_11 
REMARK    5  A    between atoms: C9_18  and  C10_20 
REMARK    6  A    between atoms: C10_20  and  N5_21 
REMARK    7  A    between atoms: C10_20  and  C12_27 
ROOT
HETATM    1  C1  UNL     1       8.750   6.936  26.273  1.00  0.00     0.014 C 
HETATM    2  C2  UNL     1       9.647   7.157  27.045  1.00  0.00    -0.096 C 
HETATM    3  C3  UNL     1      10.765   7.425  27.985  1.00  0.00     0.245 C 
ENDROOT
BRANCH   3   4
HETATM    4  N1  UNL     1      11.957   7.703  27.142  1.00  0.00    -0.247 N 
HETATM    5  C9  UNL     1      12.340   9.032  27.004  1.00  0.00     0.299 C 
HETATM    6  O1  UNL     1      11.652   9.954  27.557  1.00  0.00    -0.267 OA
BRANCH   4   7
HETATM    7  N2  UNL     1      12.593   6.659  26.551  1.00  0.00    -0.305 N 
HETATM    8  C4  UNL     1      13.290   5.719  27.022  1.00  0.00     0.128 C 
ATOM      9  H2  UNL     1      12.486   6.629  25.537  1.00  0.00     0.186 HD
BRANCH   8  10
HETATM   10  C5  UNL     1      13.547   5.605  28.469  1.00  0.00     0.047 A 
HETATM   11  S1  UNL     1      14.398   6.660  29.515  1.00  0.00    -0.051 SA
HETATM   12  C6  UNL     1      14.194   5.793  30.967  1.00  0.00     0.143 A 
HETATM   13  N4  UNL     1      13.482   4.732  30.585  1.00  0.00    -0.340 N 
HETATM   14  C7  UNL     1      13.148   4.620  29.333  1.00  0.00     0.026 A 
ATOM     15  H4  UNL     1      13.206   4.022  31.262  1.00  0.00     0.168 HD
HETATM   16  C8  UNL     1      12.337   3.445  28.799  1.00  0.00     0.070 C 
BRANCH  12  17
HETATM   17  N3  UNL     1      14.623   6.081  32.175  1.00  0.00    -0.380 N 
ATOM     18  H32 UNL     1      14.126   5.964  33.058  1.00  0.00     0.158 HD
ATOM     19  H31 UNL     1      15.520   6.472  32.466  1.00  0.00     0.158 HD
ENDBRANCH  12  17
ENDBRANCH   8  10
ENDBRANCH   4   7
BRANCH   5  20
HETATM   20  C10 UNL     1      13.522   9.459  26.239  1.00  0.00     0.367 C 
HETATM   21  C11 UNL     1      13.301  10.898  25.901  1.00  0.00     0.119 C 
HETATM   22  N6  UNL     1      13.140  12.013  25.657  1.00  0.00    -0.194 NA
BRANCH  20  23
HETATM   23  N5  UNL     1      14.777   9.295  26.890  1.00  0.00    -0.040 N 
ATOM     24  H53 UNL     1      14.786   8.416  27.408  1.00  0.00     0.277 HD
ATOM     25  H52 UNL     1      15.504   9.108  26.199  1.00  0.00     0.277 HD
ATOM     26  H51 UNL     1      15.067  10.059  27.499  1.00  0.00     0.277 HD
ENDBRANCH  20  23
BRANCH  20  27
HETATM   27  C12 UNL     1      13.559   8.767  24.900  1.00  0.00     0.292 C 
HETATM   28  N7  UNL     1      12.436   8.897  24.045  1.00  0.00    -0.058 NA
HETATM   29  O2  UNL     1      14.545   8.091  24.533  1.00  0.00    -0.272 OA
ENDBRANCH  20  27
ENDBRANCH   5  20
ENDBRANCH   3   4
TORSDOF 7
ENDMDL
MODEL 2
REMARK VINA RESULT: -4.953839137      2.882      6.114
REMARK  7 active torsions:
REMARK  status: ('A' for Active; 'I' for Inactive)
REMARK    1  A    between atoms: C3_3  and  N1_4 
REMARK    2  A    between atoms: N1_4  and  N2_5 
REMARK       I    between atoms: N1_4  and  C9_18 
REMARK    3  A    between atoms: C4_7  and  C5_8 
REMARK    4  A    between atoms: C6_10  and  N3_11 
REMARK    5  A    between atoms: C9_18  and  C10_20 
REMARK    6  A    between atoms: C10_20  and  N5_21 
REMARK    7  A    between atoms: C10_20  and  C12_27 
ROOT
HETATM    1  C1  UNL     1      12.842   7.292  31.625  1.00  0.00     0.014 C 
HETATM    2  C2  UNL     1      13.177   6.979  30.512  1.00  0.00    -0.096 C 
HETATM    3  C3  UNL     1      13.580   6.579  29.140  1.00  0.00     0.245 C 
ENDROOT
BRANCH   3   4
HETATM    4  N1  UNL     1      12.480   5.728  28.617  1.00  0.00    -0.247 N 
HETATM    5  C9  UNL     1      12.830   4.485  28.102  1.00  0.00     0.299 C 
HETATM    6  O1  UNL     1      14.058   4.137  28.057  1.00  0.00    -0.267 OA
BRANCH   4   7
HETATM    7  N2  UNL     1      11.211   6.207  28.660  1.00  0.00    -0.305 N 
HETATM    8  C4  UNL     1      10.654   7.178  28.078  1.00  0.00     0.128 C 
ATOM      9  H2  UNL     1      10.591   5.684  29.279  1.00  0.00     0.186 HD
BRANCH   8  10
HETATM   10  C5  UNL     1      11.400   8.042  27.146  1.00  0.00     0.047 A 
HETATM   11  S1  UNL     1      11.839   7.769  25.513  1.00  0.00    -0.051 SA
HETATM   12  C6  UNL     1      12.636   9.245  25.216  1.00  0.00     0.143 A 
HETATM   13  N4  UNL     1      12.530   9.883  26.382  1.00  0.00    -0.340 N 
HETATM   14  C7  UNL     1      11.912   9.294  27.365  1.00  0.00     0.026 A 
ATOM     15  H4  UNL     1      12.926  10.814  26.502  1.00  0.00     0.168 HD
HETATM   16  C8  UNL     1      11.739   9.940  28.734  1.00  0.00     0.070 C 
BRANCH  12  17
HETATM   17  N3  UNL     1      13.218   9.669  24.117  1.00  0.00    -0.380 N 
ATOM     18  H32 UNL     1      14.090   9.338  23.705  1.00  0.00     0.158 HD
ATOM     19  H31 UNL     1      12.920  10.400  23.470  1.00  0.00     0.158 HD
ENDBRANCH  12  17
ENDBRANCH   8  10
ENDBRANCH   4   7
BRANCH   5  20
HETATM   20  C10 UNL     1      11.851   3.515  27.589  1.00  0.00     0.367 C 
HETATM   21  C11 UNL     1      12.629   2.295  27.216  1.00  0.00     0.119 C 
HETATM   22  N6  UNL     1      13.227   1.347  26.946  1.00  0.00    -0.194 NA
BRANCH  20  23
HETATM   23  N5  UNL     1      10.793   3.170  28.476  1.00  0.00    -0.040 N 
ATOM     24  H53 UNL     1      10.542   3.978  29.047  1.00  0.00     0.277 HD
ATOM     25  H52 UNL     1       9.928   3.040  27.951  1.00  0.00     0.277 HD
ATOM     26  H51 UNL     1      10.959   2.362  29.075  1.00  0.00     0.277 HD
ENDBRANCH  20  23
BRANCH  20  27
HETATM   27  C12 UNL     1      11.270   3.996  26.283  1.00  0.00     0.292 C 
HETATM   28  N7  UNL     1      12.067   3.892  25.115  1.00  0.00    -0.058 NA
HETATM   29  O2  UNL     1      10.119   4.477  26.209  1.00  0.00    -0.272 OA
ENDBRANCH  20  27
ENDBRANCH   5  20
ENDBRANCH   3   4
TORSDOF 7
ENDMDL
MODEL 3
REMARK VINA RESULT: -4.818000144      2.700      5.086
REMARK  7 active torsions:
REMARK  status: ('A' for Active; 'I' for Inactive)
REMARK    1  A    between atoms: C3_3  and  N1_4 
REMARK    2  A    between atoms: N1_4  and  N2_5 
REMARK       I    between atoms: N1_4  and  C9_18 
REMARK    3  A    between atoms: C4_7  and  C5_8 
REMARK    4  A    between atoms: C6_10  and  N3_11 
REMARK    5  A    between atoms: C9_18  and  C10_20 
REMARK    6  A    between atoms: C10_20  and  N5_21 
REMARK    7  A    between atoms: C10_20  and  C12_27 
ROOT
HETATM    1  C1  UNL     1      13.303   6.588  31.853  1.00  0.00     0.014 C 
HETATM    2  C2  UNL     1      13.114   7.232  30.853  1.00  0.00    -0.096 C 
HETATM    3  C3  UNL     1      12.884   8.012  29.611  1.00  0.00     0.245 C 
ENDROOT
BRANCH   3   4
HETATM    4  N1  UNL     1      12.607   7.016  28.542  1.00  0.00    -0.247 N 
HETATM    5  C9  UNL     1      11.387   7.117  27.883  1.00  0.00     0.299 C 
HETATM    6  O1  UNL     1      10.546   8.012  28.232  1.00  0.00    -0.267 OA
BRANCH   4   7
HETATM    7  N2  UNL     1      13.543   6.069  28.279  1.00  0.00    -0.305 N 
HETATM    8  C4  UNL     1      14.687   6.135  27.754  1.00  0.00     0.128 C 
ATOM      9  H2  UNL     1      13.268   5.127  28.557  1.00  0.00     0.186 HD
BRANCH   8  10
HETATM   10  C5  UNL     1      15.246   7.419  27.293  1.00  0.00     0.047 A 
HETATM   11  S1  UNL     1      14.657   8.507  26.109  1.00  0.00    -0.051 SA
HETATM   12  C6  UNL     1      15.872   9.694  26.231  1.00  0.00     0.143 A 
HETATM   13  N4  UNL     1      16.677   9.205  27.174  1.00  0.00    -0.340 N 
HETATM   14  C7  UNL     1      16.379   8.061  27.720  1.00  0.00     0.026 A 
ATOM     15  H4  UNL     1      17.510   9.716  27.462  1.00  0.00     0.168 HD
HETATM   16  C8  UNL     1      17.234   7.419  28.805  1.00  0.00     0.070 C 
BRANCH  12  17
HETATM   17  N3  UNL     1      16.002  10.822  25.568  1.00  0.00    -0.380 N 
ATOM     18  H32 UNL     1      15.262  11.439  25.235  1.00  0.00     0.158 HD
ATOM     19  H31 UNL     1      16.852  11.295  25.261  1.00  0.00     0.158 HD
ENDBRANCH  12  17
ENDBRANCH   8  10
ENDBRANCH   4   7
BRANCH   5  20
HETATM   20  C10 UNL     1      10.989   6.234  26.776  1.00  0.00     0.367 C 
HETATM   21  C11 UNL     1       9.582   6.602  26.435  1.00  0.00     0.119 C 
HETATM   22  N6  UNL     1       8.503   6.900  26.158  1.00  0.00    -0.194 NA
BRANCH  20  23
HETATM   23  N5  UNL     1      11.807   6.286  25.613  1.00  0.00    -0.040 N 
ATOM     24  H53 UNL     1      12.280   5.392  25.480  1.00  0.00     0.277 HD
ATOM     25  H52 UNL     1      11.222   6.309  24.778  1.00  0.00     0.277 HD
ATOM     26  H51 UNL     1      12.487   7.046  25.580  1.00  0.00     0.277 HD
ENDBRANCH  20  23
BRANCH  20  27
HETATM   27  C12 UNL     1      10.891   4.806  27.253  1.00  0.00     0.292 C 
HETATM   28  N7  UNL     1      11.859   3.877  26.796  1.00  0.00    -0.058 NA
HETATM   29  O2  UNL     1       9.988   4.430  28.032  1.00  0.00    -0.272 OA
ENDBRANCH  20  27
ENDBRANCH   5  20
ENDBRANCH   3   4
TORSDOF 7
ENDMDL
MODEL 4
REMARK VINA RESULT: -4.694849699      2.748      5.886
REMARK  7 active torsions:
REMARK  status: ('A' for Active; 'I' for Inactive)
REMARK    1  A    between atoms: C3_3  and  N1_4 
REMARK    2  A    between atoms: N1_4  and  N2_5 
REMARK       I    between atoms: N1_4  and  C9_18 
REMARK    3  A    between atoms: C4_7  and  C5_8 
REMARK    4  A    between atoms: C6_10  and  N3_11 
REMARK    5  A    between atoms: C9_18  and  C10_20 
REMARK    6  A    between atoms: C10_20  and  N5_21 
REMARK    7  A    between atoms: C10_20  and  C12_27 
ROOT
HETATM    1  C1  UNL     1      13.303   4.719  23.100  1.00  0.00     0.014 C 
HETATM    2  C2  UNL     1      13.506   5.542  23.955  1.00  0.00    -0.096 C 
HETATM    3  C3  UNL     1      13.739   6.556  25.015  1.00  0.00     0.245 C 
ENDROOT
BRANCH   3   4
HETATM    4  N1  UNL     1      12.674   6.346  26.030  1.00  0.00    -0.247 N 
HETATM    5  C9  UNL     1      12.988   5.547  27.123  1.00  0.00     0.299 C 
HETATM    6  O1  UNL     1      14.139   4.999  27.202  1.00  0.00    -0.267 OA
BRANCH   4   7
HETATM    7  N2  UNL     1      11.463   6.928  25.832  1.00  0.00    -0.305 N 
HETATM    8  C4  UNL     1      11.110   8.137  25.754  1.00  0.00     0.128 C 
ATOM      9  H2  UNL     1      10.696   6.264  25.727  1.00  0.00     0.186 HD
BRANCH   8  10
HETATM   10  C5  UNL     1      12.089   9.231  25.882  1.00  0.00     0.047 A 
HETATM   11  S1  UNL     1      13.043   9.993  24.681  1.00  0.00    -0.051 SA
HETATM   12  C6  UNL     1      13.844  11.122  25.673  1.00  0.00     0.143 A 
HETATM   13  N4  UNL     1      13.345  10.865  26.883  1.00  0.00    -0.340 N 
HETATM   14  C7  UNL     1      12.461   9.918  27.008  1.00  0.00     0.026 A 
ATOM     15  H4  UNL     1      13.650  11.401  27.695  1.00  0.00     0.168 HD
HETATM   16  C8  UNL     1      11.833   9.550  28.346  1.00  0.00     0.070 C 
BRANCH  12  17
HETATM   17  N3  UNL     1      14.736  12.029  25.348  1.00  0.00    -0.380 N 
ATOM     18  H32 UNL     1      14.584  12.899  24.836  1.00  0.00     0.158 HD
ATOM     19  H31 UNL     1      15.739  12.047  25.537  1.00  0.00     0.158 HD
ENDBRANCH  12  17
ENDBRANCH   8  10
ENDBRANCH   4   7
BRANCH   5  20
HETATM   20  C10 UNL     1      12.056   5.283  28.230  1.00  0.00     0.367 C 
HETATM   21  C11 UNL     1      12.447   3.959  28.798  1.00  0.00     0.119 C 
HETATM   22  N6  UNL     1      12.761   2.945  29.248  1.00  0.00    -0.194 NA
BRANCH  20  23
HETATM   23  N5  UNL     1      12.017   6.267  29.259  1.00  0.00    -0.040 N 
ATOM     24  H53 UNL     1      11.328   6.983  29.027  1.00  0.00     0.277 HD
ATOM     25  H52 UNL     1      11.595   5.872  30.099  1.00  0.00     0.277 HD
ATOM     26  H51 UNL     1      12.908   6.704  29.491  1.00  0.00     0.277 HD
ENDBRANCH  20  23
BRANCH  20  27
HETATM   27  C12 UNL     1      10.661   5.060  27.699  1.00  0.00     0.292 C 
HETATM   28  N7  UNL     1       9.638   5.954  28.103  1.00  0.00    -0.058 NA
HETATM   29  O2  UNL     1      10.393   4.119  26.922  1.00  0.00    -0.272 OA
ENDBRANCH  20  27
ENDBRANCH   5  20
ENDBRANCH   3   4
TORSDOF 7
ENDMDL
MODEL 5
REMARK VINA RESULT: -4.670782081      2.428      3.572
REMARK  7 active torsions:
REMARK  status: ('A' for Active; 'I' for Inactive)
REMARK    1  A    between atoms: C3_3  and  N1_4 
REMARK    2  A    between atoms: N1_4  and  N2_5 
REMARK       I    between atoms: N1_4  and  C9_18 
REMARK    3  A    between atoms: C4_7  and  C5_8 
REMARK    4  A    between atoms: C6_10  and  N3_11 
REMARK    5  A    between atoms: C9_18  and  C10_20 
REMARK    6  A    between atoms: C10_20  and  N5_21 
REMARK    7  A    between atoms: C10_20  and  C12_27 
ROOT
HETATM    1  C1  UNL     1      12.841   7.636  29.733  1.00  0.00     0.014 C 
HETATM    2  C2  UNL     1      12.562   8.540  28.988  1.00  0.00    -0.096 C 
HETATM    3  C3  UNL     1      12.231   9.648  28.058  1.00  0.00     0.245 C 
ENDROOT
BRANCH   3   4
HETATM    4  N1  UNL     1      12.613   9.178  26.701  1.00  0.00    -0.247 N 
HETATM    5  C9  UNL     1      13.970   9.025  26.441  1.00  0.00     0.299 C 
HETATM    6  O1  UNL     1      14.828   9.324  27.339  1.00  0.00    -0.267 OA
BRANCH   4   7
HETATM    7  N2  UNL     1      11.630   8.936  25.796  1.00  0.00    -0.305 N 
HETATM    8  C4  UNL     1      10.829   7.972  25.657  1.00  0.00     0.128 C 
ATOM      9  H2  UNL     1      11.519   9.672  25.098  1.00  0.00     0.186 HD
BRANCH   8  10
HETATM   10  C5  UNL     1      10.847   6.821  26.577  1.00  0.00     0.047 A 
HETATM   11  S1  UNL     1      11.955   5.519  26.679  1.00  0.00    -0.051 SA
HETATM   12  C6  UNL     1      11.251   4.691  27.989  1.00  0.00     0.143 A 
HETATM   13  N4  UNL     1      10.196   5.448  28.291  1.00  0.00    -0.340 N 
HETATM   14  C7  UNL     1       9.976   6.524  27.592  1.00  0.00     0.026 A 
ATOM     15  H4  UNL     1       9.573   5.190  29.056  1.00  0.00     0.168 HD
HETATM   16  C8  UNL     1       8.799   7.453  27.859  1.00  0.00     0.070 C 
BRANCH  12  17
HETATM   17  N3  UNL     1      11.635   3.579  28.574  1.00  0.00    -0.380 N 
ATOM     18  H32 UNL     1      12.024   2.745  28.134  1.00  0.00     0.158 HD
ATOM     19  H31 UNL     1      11.622   3.331  29.564  1.00  0.00     0.158 HD
ENDBRANCH  12  17
ENDBRANCH   8  10
ENDBRANCH   4   7
BRANCH   5  20
HETATM   20  C10 UNL     1      14.500   8.527  25.163  1.00  0.00     0.367 C 
HETATM   21  C11 UNL     1      15.934   8.943  25.116  1.00  0.00     0.119 C 
HETATM   22  N6  UNL     1      17.046   9.247  25.089  1.00  0.00    -0.194 NA
BRANCH  20  23
HETATM   23  N5  UNL     1      14.388   7.125  24.946  1.00  0.00    -0.040 N 
ATOM     24  H53 UNL     1      13.929   6.687  25.745  1.00  0.00     0.277 HD
ATOM     25  H52 UNL     1      13.699   6.941  24.216  1.00  0.00     0.277 HD
ATOM     26  H51 UNL     1      15.257   6.636  24.734  1.00  0.00     0.277 HD
ENDBRANCH  20  23
BRANCH  20  27
HETATM   27  C12 UNL     1      13.865   9.263  24.009  1.00  0.00     0.292 C 
HETATM   28  N7  UNL     1      13.971  10.676  23.974  1.00  0.00    -0.058 NA
HETATM   29  O2  UNL     1      13.256   8.662  23.097  1.00  0.00    -0.272 OA
ENDBRANCH  20  27
ENDBRANCH   5  20
ENDBRANCH   3   4
TORSDOF 7
ENDMDL
