MODEL 1
REMARK VINA RESULT: -5.148659907      0.000      0.000
REMARK  9 active torsions:
REMARK  status: ('A' for Active; 'I' for Inactive)
REMARK       I    between atoms: C2_2  and  N1_4 
REMARK    1  A    between atoms: N1_4  and  C3_6 
REMARK    2  A    between atoms: C4_7  and  O2_8 
REMARK    3  A    between atoms: C5_10  and  N2_11 
REMARK    4  A    between atoms: N2_11  and  N3_13 
REMARK    5  A    between atoms: C6_18  and  N5_19 
REMARK       I    between atoms: N5_19  and  C7_21 
REMARK    6  A    between atoms: C9_24  and  O4_25 
REMARK    7  A    between atoms: C10_27  and  N6_28 
REMARK    8  A    between atoms: N6_28  and  N7_30 
REMARK    9  A    between atoms: N7_30  and  N8_31 
ROOT
HETATM    1  C3  UNL     1      12.500   6.582  27.190  1.00  0.00     0.048 C 
HETATM    2  C4  UNL     1      12.632   6.218  28.631  1.00  0.00     0.192 C 
HETATM    3  C5  UNL     1      12.860   4.733  28.838  1.00  0.00     0.160 C 
HETATM    4  C6  UNL     1      11.777   3.960  28.108  1.00  0.00     0.142 C 
HETATM    5  C9  UNL     1      12.096   4.186  26.644  1.00  0.00     0.173 C 
HETATM    6  C10 UNL     1      11.666   5.634  26.385  1.00  0.00     0.193 C 
ENDROOT
BRANCH   3   7
HETATM    7  N2  UNL     1      12.942   4.421  30.234  1.00  0.00    -0.313 N 
ATOM      8  H2  UNL     1      12.669   3.505  30.591  1.00  0.00     0.182 HD
BRANCH   7   9
HETATM    9  N3  UNL     1      13.359   5.312  30.992  1.00  0.00    -0.253 N 
HETATM   10  N4  UNL     1      13.353   6.110  31.912  1.00  0.00    -0.331 N 
ATOM     11  H42 UNL     1      12.421   5.903  32.271  1.00  0.00     0.178 HD
ATOM     12  H41 UNL     1      13.696   6.843  32.534  1.00  0.00     0.178 HD
ATOM     13  H3  UNL     1      14.283   5.483  30.596  1.00  0.00     0.207 HD
ENDBRANCH   7   9
ENDBRANCH   3   7
BRANCH   2  14
HETATM   14  O2  UNL     1      11.456   6.497  29.302  1.00  0.00    -0.388 OA
ATOM     15  H2  UNL     1      11.550   7.294  29.810  1.00  0.00     0.210 HD
ENDBRANCH   2  14
BRANCH   4  16
HETATM   16  N5  UNL     1      11.796   2.571  28.433  1.00  0.00    -0.352 N 
HETATM   17  C7  UNL     1      10.632   1.775  28.415  1.00  0.00     0.214 C 
HETATM   18  C8  UNL     1      10.727   0.345  28.762  1.00  0.00     0.117 C 
HETATM   19  O3  UNL     1       9.516   2.274  28.105  1.00  0.00    -0.274 OA
ATOM     20  H5  UNL     1      12.684   2.137  28.687  1.00  0.00     0.163 HD
ENDBRANCH   4  16
BRANCH   1  21
HETATM   21  N1  UNL     1      12.352   7.938  26.838  1.00  0.00    -0.330 N 
HETATM   22  C2  UNL     1      13.268   9.006  26.950  1.00  0.00     0.217 C 
HETATM   23  C1  UNL     1      12.906  10.406  26.507  1.00  0.00     0.117 C 
HETATM   24  O1  UNL     1      14.410   8.791  27.427  1.00  0.00    -0.274 OA
ATOM     25  H1  UNL     1      11.445   8.186  26.442  1.00  0.00     0.168 HD
ENDBRANCH   1  21
BRANCH   5  26
HETATM   26  O4  UNL     1      11.421   3.339  25.800  1.00  0.00    -0.391 OA
ATOM     27  H4  UNL     1      10.658   3.737  25.397  1.00  0.00     0.210 HD
ENDBRANCH   5  26
BRANCH   6  28
HETATM   28  N6  UNL     1      10.263   5.648  26.716  1.00  0.00    -0.240 N 
ATOM     29  H6  UNL     1       9.762   4.761  26.763  1.00  0.00     0.198 HD
BRANCH  28  30
HETATM   30  N7  UNL     1       9.650   6.683  26.944  1.00  0.00    -0.248 NA
BRANCH  30  31
HETATM   31  N8  UNL     1       8.979   7.566  27.446  1.00  0.00    -0.261 N 
ATOM     32  H82 UNL     1       8.527   6.928  28.100  1.00  0.00     0.193 HD
ATOM     33  H81 UNL     1       8.545   8.456  27.688  1.00  0.00     0.193 HD
ENDBRANCH  30  31
ENDBRANCH  28  30
ENDBRANCH   6  28
TORSDOF 9
ENDMDL
MODEL 2
REMARK VINA RESULT: -5.099490015      1.462      6.135
REMARK  9 active torsions:
REMARK  status: ('A' for Active; 'I' for Inactive)
REMARK       I    between atoms: C2_2  and  N1_4 
REMARK    1  A    between atoms: N1_4  and  C3_6 
REMARK    2  A    between atoms: C4_7  and  O2_8 
REMARK    3  A    between atoms: C5_10  and  N2_11 
REMARK    4  A    between atoms: N2_11  and  N3_13 
REMARK    5  A    between atoms: C6_18  and  N5_19 
REMARK       I    between atoms: N5_19  and  C7_21 
REMARK    6  A    between atoms: C9_24  and  O4_25 
REMARK    7  A    between atoms: C10_27  and  N6_28 
REMARK    8  A    between atoms: N6_28  and  N7_30 
REMARK    9  A    between atoms: N7_30  and  N8_31 
ROOT
HETATM    1  C3  UNL     1      11.543   4.638  27.692  1.00  0.00     0.048 C 
HETATM    2  C4  UNL     1      10.472   5.671  27.602  1.00  0.00     0.192 C 
HETATM    3  C5  UNL     1      10.753   6.711  26.535  1.00  0.00     0.160 C 
HETATM    4  C6  UNL     1      12.141   7.287  26.759  1.00  0.00     0.142 C 
HETATM    5  C9  UNL     1      13.068   6.138  26.415  1.00  0.00     0.173 C 
HETATM    6  C10 UNL     1      12.937   5.181  27.605  1.00  0.00     0.193 C 
ENDROOT
BRANCH   3   7
HETATM    7  N2  UNL     1       9.721   7.705  26.507  1.00  0.00    -0.313 N 
ATOM      8  H2  UNL     1       9.923   8.687  26.695  1.00  0.00     0.182 HD
BRANCH   7   9
HETATM    9  N3  UNL     1       8.570   7.320  26.245  1.00  0.00    -0.253 N 
HETATM   10  N4  UNL     1       7.453   7.339  25.759  1.00  0.00    -0.331 N 
ATOM     11  H42 UNL     1       7.531   8.229  25.266  1.00  0.00     0.178 HD
ATOM     12  H41 UNL     1       6.507   7.022  25.544  1.00  0.00     0.178 HD
ATOM     13  H3  UNL     1       8.542   6.438  26.755  1.00  0.00     0.207 HD
ENDBRANCH   7   9
ENDBRANCH   3   7
BRANCH   2  14
HETATM   14  O2  UNL     1      10.395   6.383  28.785  1.00  0.00    -0.388 OA
ATOM     15  H2  UNL     1      11.201   6.863  28.932  1.00  0.00     0.210 HD
ENDBRANCH   2  14
BRANCH   4  16
HETATM   16  N5  UNL     1      12.393   8.420  25.930  1.00  0.00    -0.352 N 
HETATM   17  C7  UNL     1      12.817   9.659  26.455  1.00  0.00     0.214 C 
HETATM   18  C8  UNL     1      13.059  10.788  25.537  1.00  0.00     0.117 C 
HETATM   19  O3  UNL     1      12.991   9.807  27.694  1.00  0.00    -0.274 OA
ATOM     20  H5  UNL     1      12.262   8.332  24.922  1.00  0.00     0.163 HD
ENDBRANCH   4  16
BRANCH   1  21
HETATM   21  N1  UNL     1      11.387   3.567  28.595  1.00  0.00    -0.330 N 
HETATM   22  C2  UNL     1      11.698   2.199  28.436  1.00  0.00     0.217 C 
HETATM   23  C1  UNL     1      11.450   1.201  29.544  1.00  0.00     0.117 C 
HETATM   24  O1  UNL     1      12.194   1.802  27.352  1.00  0.00    -0.274 OA
ATOM     25  H1  UNL     1      10.989   3.818  29.500  1.00  0.00     0.168 HD
ENDBRANCH   1  21
BRANCH   5  26
HETATM   26  O4  UNL     1      14.377   6.520  26.263  1.00  0.00    -0.391 OA
ATOM     27  H4  UNL     1      14.792   6.779  27.078  1.00  0.00     0.210 HD
ENDBRANCH   5  26
BRANCH   6  28
HETATM   28  N6  UNL     1      13.338   5.974  28.739  1.00  0.00    -0.240 N 
ATOM     29  H6  UNL     1      13.649   6.933  28.582  1.00  0.00     0.198 HD
BRANCH  28  30
HETATM   30  N7  UNL     1      13.319   5.544  29.885  1.00  0.00    -0.248 NA
BRANCH  30  31
HETATM   31  N8  UNL     1      13.286   5.423  31.095  1.00  0.00    -0.261 N 
ATOM     32  H82 UNL     1      13.640   4.467  31.066  1.00  0.00     0.193 HD
ATOM     33  H81 UNL     1      13.167   5.571  32.097  1.00  0.00     0.193 HD
ENDBRANCH  30  31
ENDBRANCH  28  30
ENDBRANCH   6  28
TORSDOF 9
ENDMDL
MODEL 3
REMARK VINA RESULT: -4.936024767      2.317      6.052
REMARK  9 active torsions:
REMARK  status: ('A' for Active; 'I' for Inactive)
REMARK       I    between atoms: C2_2  and  N1_4 
REMARK    1  A    between atoms: N1_4  and  C3_6 
REMARK    2  A    between atoms: C4_7  and  O2_8 
REMARK    3  A    between atoms: C5_10  and  N2_11 
REMARK    4  A    between atoms: N2_11  and  N3_13 
REMARK    5  A    between atoms: C6_18  and  N5_19 
REMARK       I    between atoms: N5_19  and  C7_21 
REMARK    6  A    between atoms: C9_24  and  O4_25 
REMARK    7  A    between atoms: C10_27  and  N6_28 
REMARK    8  A    between atoms: N6_28  and  N7_30 
REMARK    9  A    between atoms: N7_30  and  N8_31 
ROOT
HETATM    1  C3  UNL     1      12.081   6.556  28.348  1.00  0.00     0.048 C 
HETATM    2  C4  UNL     1      13.324   6.797  27.560  1.00  0.00     0.192 C 
HETATM    3  C5  UNL     1      13.736   8.257  27.555  1.00  0.00     0.160 C 
HETATM    4  C6  UNL     1      12.556   9.102  27.110  1.00  0.00     0.142 C 
HETATM    5  C9  UNL     1      11.579   8.994  28.265  1.00  0.00     0.173 C 
HETATM    6  C10 UNL     1      11.006   7.578  28.139  1.00  0.00     0.193 C 
ENDROOT
BRANCH   3   7
HETATM    7  N2  UNL     1      14.910   8.451  26.756  1.00  0.00    -0.313 N 
ATOM      8  H2  UNL     1      14.941   8.165  25.778  1.00  0.00     0.182 HD
BRANCH   7   9
HETATM    9  N3  UNL     1      15.889   8.982  27.306  1.00  0.00    -0.253 N 
HETATM   10  N4  UNL     1      16.929   9.607  27.407  1.00  0.00    -0.331 N 
ATOM     11  H42 UNL     1      17.064   9.815  26.417  1.00  0.00     0.178 HD
ATOM     12  H41 UNL     1      17.733  10.043  27.859  1.00  0.00     0.178 HD
ATOM     13  H3  UNL     1      15.710   8.749  28.283  1.00  0.00     0.207 HD
ENDBRANCH   7   9
ENDBRANCH   3   7
BRANCH   2  14
HETATM   14  O2  UNL     1      13.115   6.479  26.231  1.00  0.00    -0.388 OA
ATOM     15  H2  UNL     1      13.660   7.023  25.674  1.00  0.00     0.210 HD
ENDBRANCH   2  14
BRANCH   4  16
HETATM   16  N5  UNL     1      12.926  10.459  26.872  1.00  0.00    -0.352 N 
HETATM   17  C7  UNL     1      13.210  10.948  25.580  1.00  0.00     0.214 C 
HETATM   18  C8  UNL     1      13.587  12.364  25.409  1.00  0.00     0.117 C 
HETATM   19  O3  UNL     1      13.145  10.189  24.576  1.00  0.00    -0.274 OA
ATOM     20  H5  UNL     1      12.987  11.099  27.664  1.00  0.00     0.163 HD
ENDBRANCH   4  16
BRANCH   1  21
HETATM   21  N1  UNL     1      11.613   5.235  28.499  1.00  0.00    -0.330 N 
HETATM   22  C2  UNL     1      11.103   4.342  27.532  1.00  0.00     0.217 C 
HETATM   23  C1  UNL     1      10.649   2.949  27.908  1.00  0.00     0.117 C 
HETATM   24  O1  UNL     1      11.024   4.709  26.334  1.00  0.00    -0.274 OA
ATOM     25  H1  UNL     1      11.648   4.869  29.451  1.00  0.00     0.168 HD
ENDBRANCH   1  21
BRANCH   5  26
HETATM   26  O4  UNL     1      10.564   9.916  28.209  1.00  0.00    -0.391 OA
ATOM     27  H4  UNL     1       9.867   9.675  27.611  1.00  0.00     0.210 HD
ENDBRANCH   5  26
BRANCH   6  28
HETATM   28  N6  UNL     1      10.410   7.555  26.828  1.00  0.00    -0.240 N 
ATOM     29  H6  UNL     1      11.013   7.672  26.013  1.00  0.00     0.198 HD
BRANCH  28  30
HETATM   30  N7  UNL     1       9.209   7.399  26.651  1.00  0.00    -0.248 NA
BRANCH  30  31
HETATM   31  N8  UNL     1       8.060   7.468  26.257  1.00  0.00    -0.261 N 
ATOM     32  H82 UNL     1       7.925   6.457  26.301  1.00  0.00     0.193 HD
ATOM     33  H81 UNL     1       7.151   7.785  25.921  1.00  0.00     0.193 HD
ENDBRANCH  30  31
ENDBRANCH  28  30
ENDBRANCH   6  28
TORSDOF 9
ENDMDL
MODEL 4
REMARK VINA RESULT: -4.918963112      2.148      4.083
REMARK  9 active torsions:
REMARK  status: ('A' for Active; 'I' for Inactive)
REMARK       I    between atoms: C2_2  and  N1_4 
REMARK    1  A    between atoms: N1_4  and  C3_6 
REMARK    2  A    between atoms: C4_7  and  O2_8 
REMARK    3  A    between atoms: C5_10  and  N2_11 
REMARK    4  A    between atoms: N2_11  and  N3_13 
REMARK    5  A    between atoms: C6_18  and  N5_19 
REMARK       I    between atoms: N5_19  and  C7_21 
REMARK    6  A    between atoms: C9_24  and  O4_25 
REMARK    7  A    between atoms: C10_27  and  N6_28 
REMARK    8  A    between atoms: N6_28  and  N7_30 
REMARK    9  A    between atoms: N7_30  and  N8_31 
ROOT
HETATM    1  C3  UNL     1      12.538   9.172  27.760  1.00  0.00     0.048 C 
HETATM    2  C4  UNL     1      11.125   8.738  27.560  1.00  0.00     0.192 C 
HETATM    3  C5  UNL     1      10.811   7.433  28.266  1.00  0.00     0.160 C 
HETATM    4  C6  UNL     1      11.836   6.390  27.856  1.00  0.00     0.142 C 
HETATM    5  C9  UNL     1      13.119   6.868  28.507  1.00  0.00     0.173 C 
HETATM    6  C10 UNL     1      13.546   8.069  27.656  1.00  0.00     0.193 C 
ENDROOT
BRANCH   3   7
HETATM    7  N2  UNL     1       9.458   7.032  28.017  1.00  0.00    -0.313 N 
ATOM      8  H2  UNL     1       8.923   6.508  28.709  1.00  0.00     0.182 HD
BRANCH   7   9
HETATM    9  N3  UNL     1       8.965   7.350  26.923  1.00  0.00    -0.253 N 
HETATM   10  N4  UNL     1       8.144   7.404  26.024  1.00  0.00    -0.331 N 
ATOM     11  H42 UNL     1       7.424   6.824  26.457  1.00  0.00     0.178 HD
ATOM     12  H41 UNL     1       7.738   7.665  25.125  1.00  0.00     0.178 HD
ATOM     13  H3  UNL     1       9.713   7.921  26.533  1.00  0.00     0.207 HD
ENDBRANCH   7   9
ENDBRANCH   3   7
BRANCH   2  14
HETATM   14  O2  UNL     1      10.888   8.487  26.221  1.00  0.00    -0.388 OA
ATOM     15  H2  UNL     1      10.011   8.764  25.985  1.00  0.00     0.210 HD
ENDBRANCH   2  14
BRANCH   4  16
HETATM   16  N5  UNL     1      11.484   5.083  28.306  1.00  0.00    -0.352 N 
HETATM   17  C7  UNL     1      10.707   4.201  27.528  1.00  0.00     0.214 C 
HETATM   18  C8  UNL     1      10.381   2.863  28.059  1.00  0.00     0.117 C 
HETATM   19  O3  UNL     1      10.291   4.543  26.388  1.00  0.00    -0.274 OA
ATOM     20  H5  UNL     1      11.805   4.776  29.225  1.00  0.00     0.163 HD
ENDBRANCH   4  16
BRANCH   1  21
HETATM   21  N1  UNL     1      12.958  10.403  27.218  1.00  0.00    -0.330 N 
HETATM   22  C2  UNL     1      13.136  10.783  25.869  1.00  0.00     0.217 C 
HETATM   23  C1  UNL     1      13.599  12.173  25.497  1.00  0.00     0.117 C 
HETATM   24  O1  UNL     1      12.903   9.950  24.959  1.00  0.00    -0.274 OA
ATOM     25  H1  UNL     1      13.165  11.130  27.903  1.00  0.00     0.168 HD
ENDBRANCH   1  21
BRANCH   5  26
HETATM   26  O4  UNL     1      14.113   5.922  28.515  1.00  0.00    -0.391 OA
ATOM     27  H4  UNL     1      14.947   6.253  28.827  1.00  0.00     0.210 HD
ENDBRANCH   5  26
BRANCH   6  28
HETATM   28  N6  UNL     1      13.698   7.525  26.331  1.00  0.00    -0.240 N 
ATOM     29  H6  UNL     1      12.896   7.539  25.701  1.00  0.00     0.198 HD
BRANCH  28  30
HETATM   30  N7  UNL     1      14.751   7.046  25.930  1.00  0.00    -0.248 NA
BRANCH  30  31
HETATM   31  N8  UNL     1      15.789   6.424  25.812  1.00  0.00    -0.261 N 
ATOM     32  H82 UNL     1      15.322   5.520  25.888  1.00  0.00     0.193 HD
ATOM     33  H81 UNL     1      16.764   6.146  25.694  1.00  0.00     0.193 HD
ENDBRANCH  30  31
ENDBRANCH  28  30
ENDBRANCH   6  28
TORSDOF 9
ENDMDL
MODEL 5
REMARK VINA RESULT: -4.890330529      2.907      4.942
REMARK  9 active torsions:
REMARK  status: ('A' for Active; 'I' for Inactive)
REMARK       I    between atoms: C2_2  and  N1_4 
REMARK    1  A    between atoms: N1_4  and  C3_6 
REMARK    2  A    between atoms: C4_7  and  O2_8 
REMARK    3  A    between atoms: C5_10  and  N2_11 
REMARK    4  A    between atoms: N2_11  and  N3_13 
REMARK    5  A    between atoms: C6_18  and  N5_19 
REMARK       I    between atoms: N5_19  and  C7_21 
REMARK    6  A    between atoms: C9_24  and  O4_25 
REMARK    7  A    between atoms: C10_27  and  N6_28 
REMARK    8  A    between atoms: N6_28  and  N7_30 
REMARK    9  A    between atoms: N7_30  and  N8_31 
ROOT
HETATM    1  C3  UNL     1      10.620   7.478  26.019  1.00  0.00     0.048 C 
HETATM    2  C4  UNL     1      11.289   8.626  26.697  1.00  0.00     0.192 C 
HETATM    3  C5  UNL     1      12.782   8.416  26.863  1.00  0.00     0.160 C 
HETATM    4  C6  UNL     1      13.019   7.080  27.545  1.00  0.00     0.142 C 
HETATM    5  C9  UNL     1      12.612   6.062  26.497  1.00  0.00     0.173 C 
HETATM    6  C10 UNL     1      11.082   6.130  26.482  1.00  0.00     0.193 C 
ENDROOT
BRANCH   3   7
HETATM    7  N2  UNL     1      13.378   9.522  27.551  1.00  0.00    -0.313 N 
ATOM      8  H2  UNL     1      13.913   9.388  28.409  1.00  0.00     0.182 HD
BRANCH   7   9
HETATM    9  N3  UNL     1      13.216  10.650  27.059  1.00  0.00    -0.253 N 
HETATM   10  N4  UNL     1      13.422  11.613  26.341  1.00  0.00    -0.331 N 
ATOM     11  H42 UNL     1      14.234  11.245  25.844  1.00  0.00     0.178 HD
ATOM     12  H41 UNL     1      13.289  12.540  25.937  1.00  0.00     0.178 HD
ATOM     13  H3  UNL     1      12.403  10.973  27.583  1.00  0.00     0.207 HD
ENDBRANCH   7   9
ENDBRANCH   3   7
BRANCH   2  14
HETATM   14  O2  UNL     1      10.802   8.771  27.982  1.00  0.00    -0.388 OA
ATOM     15  H2  UNL     1      10.832   9.683  28.244  1.00  0.00     0.210 HD
ENDBRANCH   2  14
BRANCH   4  16
HETATM   16  N5  UNL     1      14.382   6.908  27.931  1.00  0.00    -0.352 N 
HETATM   17  C7  UNL     1      14.769   6.736  29.276  1.00  0.00     0.214 C 
HETATM   18  C8  UNL     1      16.197   6.564  29.601  1.00  0.00     0.117 C 
HETATM   19  O3  UNL     1      13.909   6.727  30.197  1.00  0.00    -0.274 OA
ATOM     20  H5  UNL     1      15.102   6.910  27.208  1.00  0.00     0.163 HD
ENDBRANCH   4  16
BRANCH   1  21
HETATM   21  N1  UNL     1       9.242   7.560  25.734  1.00  0.00    -0.330 N 
HETATM   22  C2  UNL     1       8.135   7.499  26.607  1.00  0.00     0.217 C 
HETATM   23  C1  UNL     1       6.717   7.610  26.092  1.00  0.00     0.117 C 
HETATM   24  O1  UNL     1       8.328   7.349  27.839  1.00  0.00    -0.274 OA
ATOM     25  H1  UNL     1       9.010   7.683  24.749  1.00  0.00     0.168 HD
ENDBRANCH   1  21
BRANCH   5  26
HETATM   26  O4  UNL     1      13.022   4.785  26.790  1.00  0.00    -0.391 OA
ATOM     27  H4  UNL     1      13.912   4.740  27.118  1.00  0.00     0.210 HD
ENDBRANCH   5  26
BRANCH   6  28
HETATM   28  N6  UNL     1      10.702   5.805  27.834  1.00  0.00    -0.240 N 
ATOM     29  H6  UNL     1      10.551   6.565  28.497  1.00  0.00     0.198 HD
BRANCH  28  30
HETATM   30  N7  UNL     1      10.552   4.652  28.218  1.00  0.00    -0.248 NA
BRANCH  30  31
HETATM   31  N8  UNL     1      10.696   3.473  28.482  1.00  0.00    -0.261 N 
ATOM     32  H82 UNL     1      10.069   3.172  27.736  1.00  0.00     0.193 HD
ATOM     33  H81 UNL     1      10.975   2.582  28.892  1.00  0.00     0.193 HD
ENDBRANCH  30  31
ENDBRANCH  28  30
ENDBRANCH   6  28
TORSDOF 9
ENDMDL
