MODEL 1
REMARK VINA RESULT: -5.371112285      0.000      0.000
REMARK  6 active torsions:
REMARK  status: ('A' for Active; 'I' for Inactive)
REMARK    1  A    between atoms: O1_2  and  C2_3 
REMARK    2  A    between atoms: C2_3  and  C3_5 
REMARK    3  A    between atoms: C6_9  and  C7_10 
REMARK       I    between atoms: C7_10  and  N2_12 
REMARK    4  A    between atoms: N2_12  and  N3_14 
REMARK    5  A    between atoms: N3_14  and  S1_16 
REMARK    6  A    between atoms: S1_16  and  N4_17 
ROOT
HETATM    1  C3  UNL     1      14.839  11.709  24.217  1.00  0.00     0.085 A 
HETATM    2  C4  UNL     1      14.234  10.520  23.858  1.00  0.00     0.067 A 
HETATM    3  N1  UNL     1      14.519   9.937  22.602  1.00  0.00    -0.101 NA
HETATM    4  C5  UNL     1      13.361   9.927  24.745  1.00  0.00     0.063 A 
HETATM    5  C6  UNL     1      13.067  10.478  25.979  1.00  0.00     0.104 A 
HETATM    6  N5  UNL     1      13.701  11.653  26.267  1.00  0.00    -0.354 N 
ATOM      7  H5  UNL     1      13.508  12.086  27.170  1.00  0.00     0.166 HD
HETATM    8  C8  UNL     1      14.556  12.275  25.453  1.00  0.00     0.024 A 
HETATM    9  C9  UNL     1      15.211  13.543  25.853  1.00  0.00     0.069 C 
ENDROOT
BRANCH   5  10
HETATM   10  C7  UNL     1      12.158   9.889  26.947  1.00  0.00     0.287 C 
HETATM   11  O3  UNL     1      12.220  10.271  28.137  1.00  0.00    -0.264 OA
HETATM   12  N2  UNL     1      11.223   8.911  26.563  1.00  0.00    -0.254 N 
ATOM     13  H2  UNL     1      11.157   8.578  25.602  1.00  0.00     0.191 HD
BRANCH  12  14
HETATM   14  N3  UNL     1      10.385   8.418  27.580  1.00  0.00    -0.207 N 
ATOM     15  H3  UNL     1       9.640   8.939  28.044  1.00  0.00     0.201 HD
BRANCH  14  16
HETATM   16  S1  UNL     1      10.823   6.799  27.905  1.00  0.00     0.330 S 
HETATM   17  O4  UNL     1       9.551   6.020  28.211  1.00  0.00    -0.181 OA
HETATM   18  O5  UNL     1      11.516   6.265  26.678  1.00  0.00    -0.181 OA
BRANCH  16  19
HETATM   19  N4  UNL     1      11.833   6.608  29.276  1.00  0.00    -0.310 N 
ATOM     20  H42 UNL     1      12.720   6.108  29.229  1.00  0.00     0.170 HD
ATOM     21  H41 UNL     1      11.466   7.034  30.127  1.00  0.00     0.170 HD
ENDBRANCH  16  19
ENDBRANCH  14  16
ENDBRANCH  12  14
ENDBRANCH   5  10
BRANCH   1  22
HETATM   22  C2  UNL     1      15.756  12.340  23.251  1.00  0.00     0.296 C 
HETATM   23  O2  UNL     1      17.003  12.088  23.309  1.00  0.00    -0.259 OA
BRANCH  22  24
HETATM   24  O1  UNL     1      15.357  13.206  22.266  1.00  0.00    -0.322 OA
HETATM   25  C1  UNL     1      14.104  13.845  22.228  1.00  0.00     0.213 C 
ENDBRANCH  22  24
ENDBRANCH   1  22
TORSDOF 6
ENDMDL
MODEL 2
REMARK VINA RESULT: -5.290788551      4.069      6.338
REMARK  6 active torsions:
REMARK  status: ('A' for Active; 'I' for Inactive)
REMARK    1  A    between atoms: O1_2  and  C2_3 
REMARK    2  A    between atoms: C2_3  and  C3_5 
REMARK    3  A    between atoms: C6_9  and  C7_10 
REMARK       I    between atoms: C7_10  and  N2_12 
REMARK    4  A    between atoms: N2_12  and  N3_14 
REMARK    5  A    between atoms: N3_14  and  S1_16 
REMARK    6  A    between atoms: S1_16  and  N4_17 
ROOT
HETATM    1  C3  UNL     1      11.880   7.930  27.876  1.00  0.00     0.085 A 
HETATM    2  C4  UNL     1      11.320   7.311  26.776  1.00  0.00     0.067 A 
HETATM    3  N1  UNL     1      11.027   8.066  25.617  1.00  0.00    -0.101 NA
HETATM    4  C5  UNL     1      11.061   5.958  26.837  1.00  0.00     0.063 A 
HETATM    5  C6  UNL     1      11.340   5.198  27.958  1.00  0.00     0.104 A 
HETATM    6  N5  UNL     1      11.893   5.876  29.007  1.00  0.00    -0.354 N 
ATOM      7  H5  UNL     1      12.113   5.344  29.850  1.00  0.00     0.166 HD
HETATM    8  C8  UNL     1      12.168   7.181  29.009  1.00  0.00     0.024 A 
HETATM    9  C9  UNL     1      12.783   7.833  30.190  1.00  0.00     0.069 C 
ENDROOT
BRANCH   5  10
HETATM   10  C7  UNL     1      11.089   3.772  28.068  1.00  0.00     0.287 C 
HETATM   11  O3  UNL     1       9.908   3.364  28.003  1.00  0.00    -0.264 OA
HETATM   12  N2  UNL     1      12.146   2.861  28.244  1.00  0.00    -0.254 N 
ATOM     13  H2  UNL     1      13.116   3.168  28.307  1.00  0.00     0.191 HD
BRANCH  12  14
HETATM   14  N3  UNL     1      11.790   1.502  28.327  1.00  0.00    -0.207 N 
ATOM     15  H3  UNL     1      11.374   0.948  27.579  1.00  0.00     0.201 HD
BRANCH  14  16
HETATM   16  S1  UNL     1      12.174   0.937  29.893  1.00  0.00     0.330 S 
HETATM   17  O4  UNL     1      11.039   0.036  30.359  1.00  0.00    -0.181 OA
HETATM   18  O5  UNL     1      13.474   0.181  29.793  1.00  0.00    -0.181 OA
BRANCH  16  19
HETATM   19  N4  UNL     1      12.307   2.174  31.072  1.00  0.00    -0.310 N 
ATOM     20  H42 UNL     1      11.640   2.943  31.126  1.00  0.00     0.170 HD
ATOM     21  H41 UNL     1      13.102   2.067  31.701  1.00  0.00     0.170 HD
ENDBRANCH  16  19
ENDBRANCH  14  16
ENDBRANCH  12  14
ENDBRANCH   5  10
BRANCH   1  22
HETATM   22  C2  UNL     1      12.134   9.380  27.802  1.00  0.00     0.296 C 
HETATM   23  O2  UNL     1      11.272  10.194  28.265  1.00  0.00    -0.259 OA
BRANCH  22  24
HETATM   24  O1  UNL     1      13.263   9.935  27.257  1.00  0.00    -0.322 OA
HETATM   25  C1  UNL     1      13.273  10.752  26.111  1.00  0.00     0.213 C 
ENDBRANCH  22  24
ENDBRANCH   1  22
TORSDOF 6
ENDMDL
MODEL 3
REMARK VINA RESULT: -5.251557148      3.743      7.568
REMARK  6 active torsions:
REMARK  status: ('A' for Active; 'I' for Inactive)
REMARK    1  A    between atoms: O1_2  and  C2_3 
REMARK    2  A    between atoms: C2_3  and  C3_5 
REMARK    3  A    between atoms: C6_9  and  C7_10 
REMARK       I    between atoms: C7_10  and  N2_12 
REMARK    4  A    between atoms: N2_12  and  N3_14 
REMARK    5  A    between atoms: N3_14  and  S1_16 
REMARK    6  A    between atoms: S1_16  and  N4_17 
ROOT
HETATM    1  C3  UNL     1      11.168   5.694  26.920  1.00  0.00     0.085 A 
HETATM    2  C4  UNL     1      10.302   6.737  26.658  1.00  0.00     0.067 A 
HETATM    3  N1  UNL     1       8.963   6.465  26.292  1.00  0.00    -0.101 NA
HETATM    4  C5  UNL     1      10.770   8.029  26.765  1.00  0.00     0.063 A 
HETATM    5  C6  UNL     1      12.073   8.320  27.123  1.00  0.00     0.104 A 
HETATM    6  N5  UNL     1      12.873   7.240  27.367  1.00  0.00    -0.354 N 
ATOM      7  H5  UNL     1      13.841   7.420  27.634  1.00  0.00     0.166 HD
HETATM    8  C8  UNL     1      12.480   5.968  27.281  1.00  0.00     0.024 A 
HETATM    9  C9  UNL     1      13.414   4.856  27.578  1.00  0.00     0.069 C 
ENDROOT
BRANCH   5  10
HETATM   10  C7  UNL     1      12.611   9.664  27.252  1.00  0.00     0.287 C 
HETATM   11  O3  UNL     1      12.189  10.391  28.179  1.00  0.00    -0.264 OA
HETATM   12  N2  UNL     1      13.586  10.144  26.360  1.00  0.00    -0.254 N 
ATOM     13  H2  UNL     1      13.941   9.574  25.593  1.00  0.00     0.191 HD
BRANCH  12  14
HETATM   14  N3  UNL     1      14.045  11.455  26.585  1.00  0.00    -0.207 N 
ATOM     15  H3  UNL     1      14.475  11.797  27.444  1.00  0.00     0.201 HD
BRANCH  14  16
HETATM   16  S1  UNL     1      13.760  12.377  25.175  1.00  0.00     0.330 S 
HETATM   17  O4  UNL     1      15.108  12.695  24.541  1.00  0.00    -0.181 OA
HETATM   18  O5  UNL     1      12.902  11.544  24.258  1.00  0.00    -0.181 OA
BRANCH  16  19
HETATM   19  N4  UNL     1      13.009  13.889  25.465  1.00  0.00    -0.310 N 
ATOM     20  H42 UNL     1      13.134  14.396  26.341  1.00  0.00     0.170 HD
ATOM     21  H41 UNL     1      12.436  14.226  24.692  1.00  0.00     0.170 HD
ENDBRANCH  16  19
ENDBRANCH  14  16
ENDBRANCH  12  14
ENDBRANCH   5  10
BRANCH   1  22
HETATM   22  C2  UNL     1      10.659   4.317  26.783  1.00  0.00     0.296 C 
HETATM   23  O2  UNL     1      10.780   3.709  25.672  1.00  0.00    -0.259 OA
BRANCH  22  24
HETATM   24  O1  UNL     1      10.045   3.622  27.793  1.00  0.00    -0.322 OA
HETATM   25  C1  UNL     1      10.324   2.281  28.118  1.00  0.00     0.213 C 
ENDBRANCH  22  24
ENDBRANCH   1  22
TORSDOF 6
ENDMDL
MODEL 4
REMARK VINA RESULT: -5.248395065      0.559      1.306
REMARK  6 active torsions:
REMARK  status: ('A' for Active; 'I' for Inactive)
REMARK    1  A    between atoms: O1_2  and  C2_3 
REMARK    2  A    between atoms: C2_3  and  C3_5 
REMARK    3  A    between atoms: C6_9  and  C7_10 
REMARK       I    between atoms: C7_10  and  N2_12 
REMARK    4  A    between atoms: N2_12  and  N3_14 
REMARK    5  A    between atoms: N3_14  and  S1_16 
REMARK    6  A    between atoms: S1_16  and  N4_17 
ROOT
HETATM    1  C3  UNL     1      14.861  11.692  24.211  1.00  0.00     0.085 A 
HETATM    2  C4  UNL     1      14.241  10.513  23.848  1.00  0.00     0.067 A 
HETATM    3  N1  UNL     1      14.514   9.934  22.587  1.00  0.00    -0.101 NA
HETATM    4  C5  UNL     1      13.366   9.924  24.735  1.00  0.00     0.063 A 
HETATM    5  C6  UNL     1      13.084  10.470  25.974  1.00  0.00     0.104 A 
HETATM    6  N5  UNL     1      13.734  11.636  26.266  1.00  0.00    -0.354 N 
ATOM      7  H5  UNL     1      13.549  12.065  27.174  1.00  0.00     0.166 HD
HETATM    8  C8  UNL     1      14.591  12.253  25.452  1.00  0.00     0.024 A 
HETATM    9  C9  UNL     1      15.263  13.511  25.858  1.00  0.00     0.069 C 
ENDROOT
BRANCH   5  10
HETATM   10  C7  UNL     1      12.174   9.885  26.943  1.00  0.00     0.287 C 
HETATM   11  O3  UNL     1      12.234  10.272  28.131  1.00  0.00    -0.264 OA
HETATM   12  N2  UNL     1      11.240   8.905  26.562  1.00  0.00    -0.254 N 
ATOM     13  H2  UNL     1      11.175   8.568  25.602  1.00  0.00     0.191 HD
BRANCH  12  14
HETATM   14  N3  UNL     1      10.399   8.416  27.578  1.00  0.00    -0.207 N 
ATOM     15  H3  UNL     1       9.655   8.939  28.040  1.00  0.00     0.201 HD
BRANCH  14  16
HETATM   16  S1  UNL     1      10.836   6.798  27.910  1.00  0.00     0.330 S 
HETATM   17  O4  UNL     1       9.563   6.020  28.212  1.00  0.00    -0.181 OA
HETATM   18  O5  UNL     1      11.534   6.261  26.688  1.00  0.00    -0.181 OA
BRANCH  16  19
HETATM   19  N4  UNL     1      11.839   6.610  29.286  1.00  0.00    -0.310 N 
ATOM     20  H42 UNL     1      12.652   5.995  29.283  1.00  0.00     0.170 HD
ATOM     21  H41 UNL     1      11.549   7.163  30.093  1.00  0.00     0.170 HD
ENDBRANCH  16  19
ENDBRANCH  14  16
ENDBRANCH  12  14
ENDBRANCH   5  10
BRANCH   1  22
HETATM   22  C2  UNL     1      15.781  12.320  23.245  1.00  0.00     0.296 C 
HETATM   23  O2  UNL     1      15.333  13.172  22.412  1.00  0.00    -0.259 OA
BRANCH  22  24
HETATM   24  O1  UNL     1      17.123  12.047  23.173  1.00  0.00    -0.322 OA
HETATM   25  C1  UNL     1      17.825  11.256  24.100  1.00  0.00     0.213 C 
ENDBRANCH  22  24
ENDBRANCH   1  22
TORSDOF 6
ENDMDL
MODEL 5
REMARK VINA RESULT: -5.242026891      3.587      6.873
REMARK  6 active torsions:
REMARK  status: ('A' for Active; 'I' for Inactive)
REMARK    1  A    between atoms: O1_2  and  C2_3 
REMARK    2  A    between atoms: C2_3  and  C3_5 
REMARK    3  A    between atoms: C6_9  and  C7_10 
REMARK       I    between atoms: C7_10  and  N2_12 
REMARK    4  A    between atoms: N2_12  and  N3_14 
REMARK    5  A    between atoms: N3_14  and  S1_16 
REMARK    6  A    between atoms: S1_16  and  N4_17 
ROOT
HETATM    1  C3  UNL     1      12.197   8.915  26.069  1.00  0.00     0.085 A 
HETATM    2  C4  UNL     1      12.550   9.329  24.800  1.00  0.00     0.067 A 
HETATM    3  N1  UNL     1      12.247   8.514  23.685  1.00  0.00    -0.101 NA
HETATM    4  C5  UNL     1      13.193  10.539  24.653  1.00  0.00     0.063 A 
HETATM    5  C6  UNL     1      13.499  11.354  25.728  1.00  0.00     0.104 A 
HETATM    6  N5  UNL     1      13.120  10.882  26.952  1.00  0.00    -0.354 N 
ATOM      7  H5  UNL     1      13.329  11.459  27.767  1.00  0.00     0.166 HD
HETATM    8  C8  UNL     1      12.496   9.721  27.160  1.00  0.00     0.024 A 
HETATM    9  C9  UNL     1      12.107   9.293  28.525  1.00  0.00     0.069 C 
ENDROOT
BRANCH   5  10
HETATM   10  C7  UNL     1      14.171  12.638  25.622  1.00  0.00     0.287 C 
HETATM   11  O3  UNL     1      13.848  13.409  24.692  1.00  0.00    -0.264 OA
HETATM   12  N2  UNL     1      15.164  13.015  26.545  1.00  0.00    -0.254 N 
ATOM     13  H2  UNL     1      15.450  12.402  27.308  1.00  0.00     0.191 HD
BRANCH  12  14
HETATM   14  N3  UNL     1      15.740  14.284  26.356  1.00  0.00    -0.207 N 
ATOM     15  H3  UNL     1      15.369  15.025  25.760  1.00  0.00     0.201 HD
BRANCH  14  16
HETATM   16  S1  UNL     1      17.166  14.376  27.292  1.00  0.00     0.330 S 
HETATM   17  O4  UNL     1      17.083  15.628  28.154  1.00  0.00    -0.181 OA
HETATM   18  O5  UNL     1      17.231  13.129  28.136  1.00  0.00    -0.181 OA
BRANCH  16  19
HETATM   19  N4  UNL     1      18.602  14.534  26.371  1.00  0.00    -0.310 N 
ATOM     20  H42 UNL     1      18.668  15.172  25.579  1.00  0.00     0.170 HD
ATOM     21  H41 UNL     1      19.368  13.938  26.685  1.00  0.00     0.170 HD
ENDBRANCH  16  19
ENDBRANCH  14  16
ENDBRANCH  12  14
ENDBRANCH   5  10
BRANCH   1  22
HETATM   22  C2  UNL     1      11.527   7.611  26.213  1.00  0.00     0.296 C 
HETATM   23  O2  UNL     1      12.225   6.558  26.371  1.00  0.00    -0.259 OA
BRANCH  22  24
HETATM   24  O1  UNL     1      10.167   7.438  26.187  1.00  0.00    -0.322 OA
HETATM   25  C1  UNL     1       9.388   7.091  27.307  1.00  0.00     0.213 C 
ENDBRANCH  22  24
ENDBRANCH   1  22
TORSDOF 6
ENDMDL
