MODEL 1
REMARK VINA RESULT: -5.602615269      0.000      0.000
REMARK  6 active torsions:
REMARK  status: ('A' for Active; 'I' for Inactive)
REMARK    1  A    between atoms: O1_2  and  C2_3 
REMARK    2  A    between atoms: C6_7  and  C7_8 
REMARK       I    between atoms: C7_8  and  N1_10 
REMARK    3  A    between atoms: N1_10  and  N2_12 
REMARK       I    between atoms: N2_12  and  C8_14 
REMARK       I    between atoms: C8_14  and  N5_20 
REMARK    4  A    between atoms: N3_15  and  N4_17 
REMARK    5  A    between atoms: N5_20  and  N6_22 
REMARK    6  A    between atoms: C9_25  and  O5_26 
ROOT
HETATM    1  C7  UNL     1      13.450   6.140  28.831  1.00  0.00     0.273 C 
HETATM    2  O2  UNL     1      12.592   5.230  28.526  1.00  0.00    -0.266 OA
HETATM    3  N1  UNL     1      13.381   7.300  28.039  1.00  0.00    -0.251 N 
ATOM      4  H1  UNL     1      14.036   8.061  28.219  1.00  0.00     0.191 HD
ENDROOT
BRANCH   3   5
HETATM    5  N2  UNL     1      12.435   7.445  27.003  1.00  0.00    -0.126 N 
HETATM    6  C8  UNL     1      11.368   8.358  27.016  1.00  0.00     0.730 C 
HETATM    7  N3  UNL     1      11.545   9.596  27.245  1.00  0.00    -0.136 N 
HETATM    8  N5  UNL     1      10.028   7.941  26.768  1.00  0.00    -0.069 N 
ATOM      9  H3  UNL     1      10.711  10.183  27.235  1.00  0.00     0.205 HD
ATOM     10  H5  UNL     1       9.382   8.621  26.365  1.00  0.00     0.212 HD
ATOM     11  H2  UNL     1      12.533   6.842  26.185  1.00  0.00     0.206 HD
BRANCH   7  12
HETATM   12  N4  UNL     1      12.739  10.232  27.506  1.00  0.00    -0.331 N 
ATOM     13  H42 UNL     1      13.193   9.965  28.379  1.00  0.00     0.177 HD
ATOM     14  H41 UNL     1      13.205  10.930  26.926  1.00  0.00     0.177 HD
ENDBRANCH   7  12
BRANCH   8  15
HETATM   15  N6  UNL     1       9.542   6.659  27.044  1.00  0.00    -0.024 N 
HETATM   16  O3  UNL     1       9.142   5.932  26.136  1.00  0.00    -0.516 OA
HETATM   17  O4  UNL     1       9.532   6.242  28.374  1.00  0.00    -0.516 OA
ENDBRANCH   8  15
ENDBRANCH   3   5
BRANCH   1  18
HETATM   18  C6  UNL     1      14.363   5.869  29.923  1.00  0.00     0.073 A 
HETATM   19  C4  UNL     1      14.072   6.400  31.181  1.00  0.00    -0.041 A 
HETATM   20  C3  UNL     1      14.972   6.169  32.203  1.00  0.00     0.044 A 
HETATM   21  C5  UNL     1      12.837   7.170  31.449  1.00  0.00     0.049 C 
HETATM   22  C2  UNL     1      16.136   5.448  32.060  1.00  0.00     0.071 A 
HETATM   23  C11 UNL     1      16.369   4.952  30.801  1.00  0.00     0.074 A 
HETATM   24  C9  UNL     1      15.519   5.137  29.717  1.00  0.00     0.087 A 
BRANCH  22  25
HETATM   25  O1  UNL     1      17.015   5.240  33.113  1.00  0.00    -0.356 OA
HETATM   26  C1  UNL     1      16.945   6.116  34.214  1.00  0.00     0.210 C 
ENDBRANCH  22  25
BRANCH  24  27
HETATM   27  O5  UNL     1      15.845   4.598  28.484  1.00  0.00    -0.355 OA
HETATM   28  C10 UNL     1      15.741   3.205  28.297  1.00  0.00     0.210 C 
ENDBRANCH  24  27
ENDBRANCH   1  18
TORSDOF 6
ENDMDL
MODEL 2
REMARK VINA RESULT: -5.553238230      3.854      6.751
REMARK  6 active torsions:
REMARK  status: ('A' for Active; 'I' for Inactive)
REMARK    1  A    between atoms: O1_2  and  C2_3 
REMARK    2  A    between atoms: C6_7  and  C7_8 
REMARK       I    between atoms: C7_8  and  N1_10 
REMARK    3  A    between atoms: N1_10  and  N2_12 
REMARK       I    between atoms: N2_12  and  C8_14 
REMARK       I    between atoms: C8_14  and  N5_20 
REMARK    4  A    between atoms: N3_15  and  N4_17 
REMARK    5  A    between atoms: N5_20  and  N6_22 
REMARK    6  A    between atoms: C9_25  and  O5_26 
ROOT
HETATM    1  C7  UNL     1      13.003   9.566  27.020  1.00  0.00     0.273 C 
HETATM    2  O2  UNL     1      12.490  10.672  27.435  1.00  0.00    -0.266 OA
HETATM    3  N1  UNL     1      14.267   9.698  26.416  1.00  0.00    -0.251 N 
ATOM      4  H1  UNL     1      14.732   8.863  26.057  1.00  0.00     0.191 HD
ENDROOT
BRANCH   3   5
HETATM    5  N2  UNL     1      14.912  10.945  26.291  1.00  0.00    -0.126 N 
HETATM    6  C8  UNL     1      15.825  11.275  25.276  1.00  0.00     0.730 C 
HETATM    7  N3  UNL     1      15.552  11.112  24.046  1.00  0.00    -0.136 N 
HETATM    8  N5  UNL     1      17.110  11.814  25.577  1.00  0.00    -0.069 N 
ATOM      9  H3  UNL     1      16.278  11.379  23.380  1.00  0.00     0.205 HD
ATOM     10  H5  UNL     1      17.549  12.420  24.884  1.00  0.00     0.212 HD
ATOM     11  H2  UNL     1      14.699  11.659  26.988  1.00  0.00     0.206 HD
BRANCH   7  12
HETATM   12  N4  UNL     1      14.383  10.615  23.511  1.00  0.00    -0.331 N 
ATOM     13  H42 UNL     1      13.528  11.063  23.839  1.00  0.00     0.177 HD
ATOM     14  H41 UNL     1      14.288   9.858  22.833  1.00  0.00     0.177 HD
ENDBRANCH   7  12
BRANCH   8  15
HETATM   15  N6  UNL     1      17.807  11.563  26.763  1.00  0.00    -0.024 N 
HETATM   16  O3  UNL     1      18.764  12.264  27.088  1.00  0.00    -0.516 OA
HETATM   17  O4  UNL     1      17.377  10.500  27.556  1.00  0.00    -0.516 OA
ENDBRANCH   8  15
ENDBRANCH   3   5
BRANCH   1  18
HETATM   18  C6  UNL     1      12.240   8.350  27.216  1.00  0.00     0.073 A 
HETATM   19  C4  UNL     1      11.440   7.892  26.167  1.00  0.00    -0.041 A 
HETATM   20  C3  UNL     1      10.686   6.754  26.381  1.00  0.00     0.044 A 
HETATM   21  C5  UNL     1      11.395   8.568  24.852  1.00  0.00     0.049 C 
HETATM   22  C2  UNL     1      10.675   6.044  27.560  1.00  0.00     0.071 A 
HETATM   23  C11 UNL     1      11.481   6.542  28.554  1.00  0.00     0.074 A 
HETATM   24  C9  UNL     1      12.270   7.679  28.426  1.00  0.00     0.087 A 
BRANCH  22  25
HETATM   25  O1  UNL     1       9.902   4.905  27.735  1.00  0.00    -0.356 OA
HETATM   26  C1  UNL     1      10.561   3.661  27.783  1.00  0.00     0.210 C 
ENDBRANCH  22  25
BRANCH  24  27
HETATM   27  O5  UNL     1      13.048   8.104  29.490  1.00  0.00    -0.355 OA
HETATM   28  C10 UNL     1      12.738   7.648  30.788  1.00  0.00     0.210 C 
ENDBRANCH  24  27
ENDBRANCH   1  18
TORSDOF 6
ENDMDL
MODEL 3
REMARK VINA RESULT: -5.480784482      4.502      5.639
REMARK  6 active torsions:
REMARK  status: ('A' for Active; 'I' for Inactive)
REMARK    1  A    between atoms: O1_2  and  C2_3 
REMARK    2  A    between atoms: C6_7  and  C7_8 
REMARK       I    between atoms: C7_8  and  N1_10 
REMARK    3  A    between atoms: N1_10  and  N2_12 
REMARK       I    between atoms: N2_12  and  C8_14 
REMARK       I    between atoms: C8_14  and  N5_20 
REMARK    4  A    between atoms: N3_15  and  N4_17 
REMARK    5  A    between atoms: N5_20  and  N6_22 
REMARK    6  A    between atoms: C9_25  and  O5_26 
ROOT
HETATM    1  C7  UNL     1      12.925   9.804  26.666  1.00  0.00     0.273 C 
HETATM    2  O2  UNL     1      12.048   9.457  25.790  1.00  0.00    -0.266 OA
HETATM    3  N1  UNL     1      13.551  11.038  26.412  1.00  0.00    -0.251 N 
ATOM      4  H1  UNL     1      14.263  11.374  27.060  1.00  0.00     0.191 HD
ENDROOT
BRANCH   3   5
HETATM    5  N2  UNL     1      13.225  11.826  25.289  1.00  0.00    -0.126 N 
HETATM    6  C8  UNL     1      14.073  12.042  24.190  1.00  0.00     0.730 C 
HETATM    7  N3  UNL     1      14.614  11.080  23.559  1.00  0.00    -0.136 N 
HETATM    8  N5  UNL     1      14.368  13.356  23.723  1.00  0.00    -0.069 N 
ATOM      9  H3  UNL     1      15.216  11.334  22.775  1.00  0.00     0.205 HD
ATOM     10  H5  UNL     1      14.596  13.473  22.736  1.00  0.00     0.212 HD
ATOM     11  H2  UNL     1      12.307  12.271  25.274  1.00  0.00     0.206 HD
BRANCH   7  12
HETATM   12  N4  UNL     1      14.479   9.734  23.817  1.00  0.00    -0.331 N 
ATOM     13  H42 UNL     1      15.352   9.229  23.966  1.00  0.00     0.177 HD
ATOM     14  H41 UNL     1      13.611   9.201  23.873  1.00  0.00     0.177 HD
ENDBRANCH   7  12
BRANCH   8  15
HETATM   15  N6  UNL     1      14.363  14.495  24.534  1.00  0.00    -0.024 N 
HETATM   16  O3  UNL     1      14.016  15.586  24.083  1.00  0.00    -0.516 OA
HETATM   17  O4  UNL     1      14.760  14.347  25.863  1.00  0.00    -0.516 OA
ENDBRANCH   8  15
ENDBRANCH   3   5
BRANCH   1  18
HETATM   18  C6  UNL     1      13.163   8.907  27.779  1.00  0.00     0.073 A 
HETATM   19  C4  UNL     1      12.287   8.949  28.866  1.00  0.00    -0.041 A 
HETATM   20  C3  UNL     1      12.548   8.118  29.937  1.00  0.00     0.044 A 
HETATM   21  C5  UNL     1      11.098   9.829  28.890  1.00  0.00     0.049 C 
HETATM   22  C2  UNL     1      13.615   7.250  30.000  1.00  0.00     0.071 A 
HETATM   23  C11 UNL     1      14.441   7.252  28.904  1.00  0.00     0.074 A 
HETATM   24  C9  UNL     1      14.254   8.056  27.784  1.00  0.00     0.087 A 
BRANCH  22  25
HETATM   25  O1  UNL     1      13.843   6.431  31.097  1.00  0.00    -0.356 OA
HETATM   26  C1  UNL     1      15.129   5.878  31.252  1.00  0.00     0.210 C 
ENDBRANCH  22  25
BRANCH  24  27
HETATM   27  O5  UNL     1      15.146   7.987  26.728  1.00  0.00    -0.355 OA
HETATM   28  C10 UNL     1      16.413   8.592  26.863  1.00  0.00     0.210 C 
ENDBRANCH  24  27
ENDBRANCH   1  18
TORSDOF 6
ENDMDL
MODEL 4
REMARK VINA RESULT: -5.296839771      4.916      6.799
REMARK  6 active torsions:
REMARK  status: ('A' for Active; 'I' for Inactive)
REMARK    1  A    between atoms: O1_2  and  C2_3 
REMARK    2  A    between atoms: C6_7  and  C7_8 
REMARK       I    between atoms: C7_8  and  N1_10 
REMARK    3  A    between atoms: N1_10  and  N2_12 
REMARK       I    between atoms: N2_12  and  C8_14 
REMARK       I    between atoms: C8_14  and  N5_20 
REMARK    4  A    between atoms: N3_15  and  N4_17 
REMARK    5  A    between atoms: N5_20  and  N6_22 
REMARK    6  A    between atoms: C9_25  and  O5_26 
ROOT
HETATM    1  C7  UNL     1      12.905   9.079  25.474  1.00  0.00     0.273 C 
HETATM    2  O2  UNL     1      12.434   9.550  24.372  1.00  0.00    -0.266 OA
HETATM    3  N1  UNL     1      14.099   9.683  25.906  1.00  0.00    -0.251 N 
ATOM      4  H1  UNL     1      14.534   9.356  26.769  1.00  0.00     0.191 HD
ENDROOT
BRANCH   3   5
HETATM    5  N2  UNL     1      14.714  10.727  25.186  1.00  0.00    -0.126 N 
HETATM    6  C8  UNL     1      15.514  11.731  25.757  1.00  0.00     0.730 C 
HETATM    7  N3  UNL     1      16.498  11.457  26.514  1.00  0.00    -0.136 N 
HETATM    8  N5  UNL     1      15.262  13.112  25.514  1.00  0.00    -0.069 N 
ATOM      9  H3  UNL     1      17.021  12.251  26.884  1.00  0.00     0.205 HD
ATOM     10  H5  UNL     1      16.052  13.758  25.559  1.00  0.00     0.212 HD
ATOM     11  H2  UNL     1      14.567  10.756  24.177  1.00  0.00     0.206 HD
BRANCH   7  12
HETATM   12  N4  UNL     1      16.937  10.206  26.889  1.00  0.00    -0.331 N 
ATOM     13  H42 UNL     1      16.432   9.424  26.473  1.00  0.00     0.177 HD
ATOM     14  H41 UNL     1      17.701   9.987  27.529  1.00  0.00     0.177 HD
ENDBRANCH   7  12
BRANCH   8  15
HETATM   15  N6  UNL     1      14.002  13.640  25.218  1.00  0.00    -0.024 N 
HETATM   16  O3  UNL     1      13.888  14.778  24.766  1.00  0.00    -0.516 OA
HETATM   17  O4  UNL     1      12.890  12.830  25.451  1.00  0.00    -0.516 OA
ENDBRANCH   8  15
ENDBRANCH   3   5
BRANCH   1  18
HETATM   18  C6  UNL     1      12.172   8.008  26.121  1.00  0.00     0.073 A 
HETATM   19  C4  UNL     1      12.328   6.708  25.636  1.00  0.00    -0.041 A 
HETATM   20  C3  UNL     1      11.593   5.705  26.234  1.00  0.00     0.044 A 
HETATM   21  C5  UNL     1      13.258   6.382  24.531  1.00  0.00     0.049 C 
HETATM   22  C2  UNL     1      10.719   5.904  27.279  1.00  0.00     0.071 A 
HETATM   23  C11 UNL     1      10.608   7.201  27.713  1.00  0.00     0.074 A 
HETATM   24  C9  UNL     1      11.308   8.272  27.168  1.00  0.00     0.087 A 
BRANCH  22  25
HETATM   25  O1  UNL     1       9.998   4.866  27.853  1.00  0.00    -0.356 OA
HETATM   26  C1  UNL     1      10.583   3.584  27.865  1.00  0.00     0.210 C 
ENDBRANCH  22  25
BRANCH  24  27
HETATM   27  O5  UNL     1      11.123   9.547  27.675  1.00  0.00    -0.355 OA
HETATM   28  C10 UNL     1      11.723   9.888  28.905  1.00  0.00     0.210 C 
ENDBRANCH  24  27
ENDBRANCH   1  18
TORSDOF 6
ENDMDL
MODEL 5
REMARK VINA RESULT: -5.198992378      5.298      8.079
REMARK  6 active torsions:
REMARK  status: ('A' for Active; 'I' for Inactive)
REMARK    1  A    between atoms: O1_2  and  C2_3 
REMARK    2  A    between atoms: C6_7  and  C7_8 
REMARK       I    between atoms: C7_8  and  N1_10 
REMARK    3  A    between atoms: N1_10  and  N2_12 
REMARK       I    between atoms: N2_12  and  C8_14 
REMARK       I    between atoms: C8_14  and  N5_20 
REMARK    4  A    between atoms: N3_15  and  N4_17 
REMARK    5  A    between atoms: N5_20  and  N6_22 
REMARK    6  A    between atoms: C9_25  and  O5_26 
ROOT
HETATM    1  C7  UNL     1      13.408  11.274  25.535  1.00  0.00     0.273 C 
HETATM    2  O2  UNL     1      12.758  12.049  24.739  1.00  0.00    -0.266 OA
HETATM    3  N1  UNL     1      14.498  11.883  26.184  1.00  0.00    -0.251 N 
ATOM      4  H1  UNL     1      15.065  11.327  26.825  1.00  0.00     0.191 HD
ENDROOT
BRANCH   3   5
HETATM    5  N2  UNL     1      14.833  13.236  25.977  1.00  0.00    -0.126 N 
HETATM    6  C8  UNL     1      16.022  13.684  25.377  1.00  0.00     0.730 C 
HETATM    7  N3  UNL     1      16.410  13.248  24.247  1.00  0.00    -0.136 N 
HETATM    8  N5  UNL     1      16.855  14.654  26.006  1.00  0.00    -0.069 N 
ATOM      9  H3  UNL     1      17.286  13.630  23.891  1.00  0.00     0.205 HD
ATOM     10  H5  UNL     1      17.425  15.254  25.409  1.00  0.00     0.212 HD
ATOM     11  H2  UNL     1      14.164  13.942  26.286  1.00  0.00     0.206 HD
BRANCH   7  12
HETATM   12  N4  UNL     1      15.778  12.318  23.451  1.00  0.00    -0.331 N 
ATOM     13  H42 UNL     1      14.825  12.083  23.728  1.00  0.00     0.177 HD
ATOM     14  H41 UNL     1      16.159  11.849  22.629  1.00  0.00     0.177 HD
ENDBRANCH   7  12
BRANCH   8  15
HETATM   15  N6  UNL     1      16.939  14.836  27.389  1.00  0.00    -0.024 N 
HETATM   16  O3  UNL     1      17.109  15.958  27.865  1.00  0.00    -0.516 OA
HETATM   17  O4  UNL     1      16.821  13.708  28.200  1.00  0.00    -0.516 OA
ENDBRANCH   8  15
ENDBRANCH   3   5
BRANCH   1  18
HETATM   18  C6  UNL     1      12.957   9.903  25.664  1.00  0.00     0.073 A 
HETATM   19  C4  UNL     1      13.110   9.048  24.572  1.00  0.00    -0.041 A 
HETATM   20  C3  UNL     1      12.638   7.755  24.694  1.00  0.00     0.044 A 
HETATM   21  C5  UNL     1      13.769   9.475  23.318  1.00  0.00     0.049 C 
HETATM   22  C2  UNL     1      12.030   7.258  25.824  1.00  0.00     0.071 A 
HETATM   23  C11 UNL     1      11.908   8.144  26.865  1.00  0.00     0.074 A 
HETATM   24  C9  UNL     1      12.353   9.461  26.828  1.00  0.00     0.087 A 
BRANCH  22  25
HETATM   25  O1  UNL     1      11.569   5.951  25.905  1.00  0.00    -0.356 OA
HETATM   26  C1  UNL     1      10.469   5.691  26.746  1.00  0.00     0.210 C 
ENDBRANCH  22  25
BRANCH  24  27
HETATM   27  O5  UNL     1      12.180  10.280  27.931  1.00  0.00    -0.355 OA
HETATM   28  C10 UNL     1      11.580   9.747  29.091  1.00  0.00     0.210 C 
ENDBRANCH  24  27
ENDBRANCH   1  18
TORSDOF 6
ENDMDL
