MODEL 1
REMARK VINA RESULT: -5.475821836      0.000      0.000
REMARK  9 active torsions:
REMARK  status: ('A' for Active; 'I' for Inactive)
REMARK    1  A    between atoms: C2_2  and  N1_4 
REMARK    2  A    between atoms: C2_2  and  C4_8 
REMARK       I    between atoms: C4_8  and  N2_10 
REMARK    3  A    between atoms: N2_10  and  N3_11 
REMARK       I    between atoms: N2_10  and  C5_15 
REMARK    4  A    between atoms: N3_11  and  O2_13 
REMARK    5  A    between atoms: C5_15  and  O4_17 
REMARK    6  A    between atoms: O4_17  and  C6_18 
REMARK    7  A    between atoms: C6_18  and  N4_19 
REMARK    8  A    between atoms: C6_18  and  C8_24 
REMARK    9  A    between atoms: N4_19  and  C7_21 
ROOT
HETATM    1  C4  UNL     1      12.958   4.378  29.012  1.00  0.00     0.284 C 
HETATM    2  O1  UNL     1      12.479   4.455  27.843  1.00  0.00    -0.268 OA
HETATM    3  N2  UNL     1      13.119   5.599  29.707  1.00  0.00    -0.143 N 
HETATM    4  C5  UNL     1      12.768   6.860  29.145  1.00  0.00     0.393 C 
HETATM    5  O3  UNL     1      12.927   7.928  29.798  1.00  0.00    -0.236 OA
ENDROOT
BRANCH   3   6
HETATM    6  N3  UNL     1      13.646   5.544  30.999  1.00  0.00    -0.196 N 
ATOM      7  H3  UNL     1      14.626   5.315  31.164  1.00  0.00     0.216 HD
BRANCH   6   8
HETATM    8  O2  UNL     1      12.855   5.790  31.957  1.00  0.00    -0.274 OA
ATOM      9  H2  UNL     1      12.204   5.129  32.164  1.00  0.00     0.246 HD
ENDBRANCH   6   8
ENDBRANCH   3   6
BRANCH   1  10
HETATM   10  C2  UNL     1      13.303   3.063  29.546  1.00  0.00     0.198 C 
HETATM   11  C1  UNL     1      14.773   2.936  29.890  1.00  0.00     0.056 C 
HETATM   12  C3  UNL     1      12.980   1.932  28.592  1.00  0.00     0.056 C 
BRANCH  10  13
HETATM   13  N1  UNL     1      12.568   2.821  30.772  1.00  0.00    -0.062 N 
ATOM     14  H13 UNL     1      12.902   2.008  31.288  1.00  0.00     0.275 HD
ATOM     15  H12 UNL     1      12.752   3.516  31.496  1.00  0.00     0.275 HD
ATOM     16  H11 UNL     1      11.583   2.757  30.513  1.00  0.00     0.275 HD
ENDBRANCH  10  13
ENDBRANCH   1  10
BRANCH   4  17
HETATM   17  O4  UNL     1      12.241   6.973  27.868  1.00  0.00    -0.266 OA
BRANCH  17  18
HETATM   18  C6  UNL     1      11.019   7.650  27.674  1.00  0.00     0.336 C 
BRANCH  18  19
HETATM   19  N4  UNL     1      11.085   8.560  26.542  1.00  0.00    -0.334 N 
ATOM     20  H4  UNL     1      10.341   8.501  25.847  1.00  0.00     0.164 HD
BRANCH  19  21
HETATM   21  C7  UNL     1      12.093   9.513  26.334  1.00  0.00     0.183 C 
HETATM   22  N5  UNL     1      12.507  10.351  27.392  1.00  0.00    -0.070 NA
HETATM   23  S1  UNL     1      12.787   9.655  24.877  1.00  0.00    -0.044 SA
ENDBRANCH  19  21
ENDBRANCH  18  19
BRANCH  18  24
HETATM   24  C8  UNL     1       9.885   6.736  27.509  1.00  0.00     0.224 C 
HETATM   25  O5  UNL     1       9.567   5.790  28.261  1.00  0.00    -0.645 OA
HETATM   26  O6  UNL     1       9.035   6.910  26.397  1.00  0.00    -0.645 OA
ENDBRANCH  18  24
ENDBRANCH  17  18
ENDBRANCH   4  17
TORSDOF 9
ENDMDL
MODEL 2
REMARK VINA RESULT: -5.178577567      2.324      2.940
REMARK  9 active torsions:
REMARK  status: ('A' for Active; 'I' for Inactive)
REMARK    1  A    between atoms: C2_2  and  N1_4 
REMARK    2  A    between atoms: C2_2  and  C4_8 
REMARK       I    between atoms: C4_8  and  N2_10 
REMARK    3  A    between atoms: N2_10  and  N3_11 
REMARK       I    between atoms: N2_10  and  C5_15 
REMARK    4  A    between atoms: N3_11  and  O2_13 
REMARK    5  A    between atoms: C5_15  and  O4_17 
REMARK    6  A    between atoms: O4_17  and  C6_18 
REMARK    7  A    between atoms: C6_18  and  N4_19 
REMARK    8  A    between atoms: C6_18  and  C8_24 
REMARK    9  A    between atoms: N4_19  and  C7_21 
ROOT
HETATM    1  C4  UNL     1      14.439   5.292  29.459  1.00  0.00     0.284 C 
HETATM    2  O1  UNL     1      14.721   5.760  28.316  1.00  0.00    -0.268 OA
HETATM    3  N2  UNL     1      13.660   6.119  30.301  1.00  0.00    -0.143 N 
HETATM    4  C5  UNL     1      13.205   7.411  29.909  1.00  0.00     0.393 C 
HETATM    5  O3  UNL     1      12.511   8.118  30.691  1.00  0.00    -0.236 OA
ENDROOT
BRANCH   3   6
HETATM    6  N3  UNL     1      13.333   5.628  31.567  1.00  0.00    -0.196 N 
ATOM      7  H3  UNL     1      12.735   4.811  31.682  1.00  0.00     0.216 HD
BRANCH   6   8
HETATM    8  O2  UNL     1      13.812   6.241  32.566  1.00  0.00    -0.274 OA
ATOM      9  H2  UNL     1      13.263   6.308  33.339  1.00  0.00     0.246 HD
ENDBRANCH   6   8
ENDBRANCH   3   6
BRANCH   1  10
HETATM   10  C2  UNL     1      14.928   3.963  29.815  1.00  0.00     0.198 C 
HETATM   11  C1  UNL     1      15.964   3.439  28.843  1.00  0.00     0.056 C 
HETATM   12  C3  UNL     1      13.828   2.925  29.882  1.00  0.00     0.056 C 
BRANCH  10  13
HETATM   13  N1  UNL     1      15.564   4.006  31.117  1.00  0.00    -0.062 N 
ATOM     14  H13 UNL     1      15.572   3.103  31.591  1.00  0.00     0.275 HD
ATOM     15  H12 UNL     1      16.576   4.131  31.067  1.00  0.00     0.275 HD
ATOM     16  H11 UNL     1      15.092   4.737  31.649  1.00  0.00     0.275 HD
ENDBRANCH  10  13
ENDBRANCH   1  10
BRANCH   4  17
HETATM   17  O4  UNL     1      13.499   7.946  28.665  1.00  0.00    -0.266 OA
BRANCH  17  18
HETATM   18  C6  UNL     1      12.454   8.221  27.758  1.00  0.00     0.336 C 
BRANCH  18  19
HETATM   19  N4  UNL     1      11.270   7.430  28.050  1.00  0.00    -0.334 N 
ATOM     20  H4  UNL     1      10.624   7.790  28.752  1.00  0.00     0.164 HD
BRANCH  19  21
HETATM   21  C7  UNL     1      10.947   6.209  27.439  1.00  0.00     0.183 C 
HETATM   22  N5  UNL     1       9.835   5.463  27.888  1.00  0.00    -0.070 NA
HETATM   23  S1  UNL     1      11.849   5.650  26.214  1.00  0.00    -0.044 SA
ENDBRANCH  19  21
ENDBRANCH  18  19
BRANCH  18  24
HETATM   24  C8  UNL     1      12.101   9.643  27.714  1.00  0.00     0.224 C 
HETATM   25  O5  UNL     1      12.713  10.551  27.112  1.00  0.00    -0.645 OA
HETATM   26  O6  UNL     1      10.953  10.075  28.411  1.00  0.00    -0.645 OA
ENDBRANCH  18  24
ENDBRANCH  17  18
ENDBRANCH   4  17
TORSDOF 9
ENDMDL
MODEL 3
REMARK VINA RESULT: -4.984682905      3.021      5.681
REMARK  9 active torsions:
REMARK  status: ('A' for Active; 'I' for Inactive)
REMARK    1  A    between atoms: C2_2  and  N1_4 
REMARK    2  A    between atoms: C2_2  and  C4_8 
REMARK       I    between atoms: C4_8  and  N2_10 
REMARK    3  A    between atoms: N2_10  and  N3_11 
REMARK       I    between atoms: N2_10  and  C5_15 
REMARK    4  A    between atoms: N3_11  and  O2_13 
REMARK    5  A    between atoms: C5_15  and  O4_17 
REMARK    6  A    between atoms: O4_17  and  C6_18 
REMARK    7  A    between atoms: C6_18  and  N4_19 
REMARK    8  A    between atoms: C6_18  and  C8_24 
REMARK    9  A    between atoms: N4_19  and  C7_21 
ROOT
HETATM    1  C4  UNL     1      13.077   9.009  25.155  1.00  0.00     0.284 C 
HETATM    2  O1  UNL     1      12.294   8.027  24.998  1.00  0.00    -0.268 OA
HETATM    3  N2  UNL     1      12.901   9.770  26.334  1.00  0.00    -0.143 N 
HETATM    4  C5  UNL     1      11.905   9.469  27.306  1.00  0.00     0.393 C 
HETATM    5  O3  UNL     1      11.780  10.174  28.346  1.00  0.00    -0.236 OA
ENDROOT
BRANCH   3   6
HETATM    6  N3  UNL     1      13.752  10.860  26.534  1.00  0.00    -0.196 N 
ATOM      7  H3  UNL     1      14.715  10.731  26.846  1.00  0.00     0.216 HD
BRANCH   6   8
HETATM    8  O2  UNL     1      13.279  12.012  26.311  1.00  0.00    -0.274 OA
ATOM      9  H2  UNL     1      12.335  12.087  26.233  1.00  0.00     0.246 HD
ENDBRANCH   6   8
ENDBRANCH   3   6
BRANCH   1  10
HETATM   10  C2  UNL     1      14.083   9.278  24.131  1.00  0.00     0.198 C 
HETATM   11  C1  UNL     1      13.856   8.482  22.862  1.00  0.00     0.056 C 
HETATM   12  C3  UNL     1      15.494   8.974  24.590  1.00  0.00     0.056 C 
BRANCH  10  13
HETATM   13  N1  UNL     1      14.041  10.677  23.755  1.00  0.00    -0.062 N 
ATOM     14  H13 UNL     1      14.631  11.269  24.340  1.00  0.00     0.275 HD
ATOM     15  H12 UNL     1      14.507  10.871  22.868  1.00  0.00     0.275 HD
ATOM     16  H11 UNL     1      13.059  10.952  23.764  1.00  0.00     0.275 HD
ENDBRANCH  10  13
ENDBRANCH   1  10
BRANCH   4  17
HETATM   17  O4  UNL     1      11.035   8.401  27.159  1.00  0.00    -0.266 OA
BRANCH  17  18
HETATM   18  C6  UNL     1      11.229   7.231  27.924  1.00  0.00     0.336 C 
BRANCH  18  19
HETATM   19  N4  UNL     1      11.635   7.542  29.285  1.00  0.00    -0.334 N 
ATOM     20  H4  UNL     1      10.977   8.065  29.864  1.00  0.00     0.164 HD
BRANCH  19  21
HETATM   21  C7  UNL     1      12.860   7.179  29.862  1.00  0.00     0.183 C 
HETATM   22  N5  UNL     1      12.990   7.113  31.267  1.00  0.00    -0.070 NA
HETATM   23  S1  UNL     1      14.131   6.832  28.920  1.00  0.00    -0.044 SA
ENDBRANCH  19  21
ENDBRANCH  18  19
BRANCH  18  24
HETATM   24  C8  UNL     1      10.047   6.365  27.945  1.00  0.00     0.224 C 
HETATM   25  O5  UNL     1      10.026   5.124  28.095  1.00  0.00    -0.645 OA
HETATM   26  O6  UNL     1       8.776   6.955  27.784  1.00  0.00    -0.645 OA
ENDBRANCH  18  24
ENDBRANCH  17  18
ENDBRANCH   4  17
TORSDOF 9
ENDMDL
MODEL 4
REMARK VINA RESULT: -4.977353552      3.671      5.657
REMARK  9 active torsions:
REMARK  status: ('A' for Active; 'I' for Inactive)
REMARK    1  A    between atoms: C2_2  and  N1_4 
REMARK    2  A    between atoms: C2_2  and  C4_8 
REMARK       I    between atoms: C4_8  and  N2_10 
REMARK    3  A    between atoms: N2_10  and  N3_11 
REMARK       I    between atoms: N2_10  and  C5_15 
REMARK    4  A    between atoms: N3_11  and  O2_13 
REMARK    5  A    between atoms: C5_15  and  O4_17 
REMARK    6  A    between atoms: O4_17  and  C6_18 
REMARK    7  A    between atoms: C6_18  and  N4_19 
REMARK    8  A    between atoms: C6_18  and  C8_24 
REMARK    9  A    between atoms: N4_19  and  C7_21 
ROOT
HETATM    1  C4  UNL     1      13.298   8.208  28.280  1.00  0.00     0.284 C 
HETATM    2  O1  UNL     1      14.551   8.352  28.167  1.00  0.00    -0.268 OA
HETATM    3  N2  UNL     1      12.496   8.991  27.419  1.00  0.00    -0.143 N 
HETATM    4  C5  UNL     1      13.042   9.900  26.468  1.00  0.00     0.393 C 
HETATM    5  O3  UNL     1      12.291  10.581  25.716  1.00  0.00    -0.236 OA
ENDROOT
BRANCH   3   6
HETATM    6  N3  UNL     1      11.109   8.852  27.521  1.00  0.00    -0.196 N 
ATOM      7  H3  UNL     1      10.626   8.044  27.129  1.00  0.00     0.216 HD
BRANCH   6   8
HETATM    8  O2  UNL     1      10.479   9.771  28.122  1.00  0.00    -0.274 OA
ATOM      9  H2  UNL     1      10.776  10.004  28.994  1.00  0.00     0.246 HD
ENDBRANCH   6   8
ENDBRANCH   3   6
BRANCH   1  10
HETATM   10  C2  UNL     1      12.785   7.264  29.270  1.00  0.00     0.198 C 
HETATM   11  C1  UNL     1      12.500   7.914  30.608  1.00  0.00     0.056 C 
HETATM   12  C3  UNL     1      13.730   6.112  29.537  1.00  0.00     0.056 C 
BRANCH  10  13
HETATM   13  N1  UNL     1      11.532   6.700  28.808  1.00  0.00    -0.062 N 
ATOM     14  H13 UNL     1      10.789   6.743  29.506  1.00  0.00     0.275 HD
ATOM     15  H12 UNL     1      11.071   7.269  28.097  1.00  0.00     0.275 HD
ATOM     16  H11 UNL     1      11.737   5.751  28.496  1.00  0.00     0.275 HD
ENDBRANCH  10  13
ENDBRANCH   1  10
BRANCH   4  17
HETATM   17  O4  UNL     1      14.409  10.076  26.323  1.00  0.00    -0.266 OA
BRANCH  17  18
HETATM   18  C6  UNL     1      14.898  11.206  25.634  1.00  0.00     0.336 C 
BRANCH  18  19
HETATM   19  N4  UNL     1      14.373  12.442  26.190  1.00  0.00    -0.334 N 
ATOM     20  H4  UNL     1      14.056  12.424  27.160  1.00  0.00     0.164 HD
BRANCH  19  21
HETATM   21  C7  UNL     1      14.268  13.656  25.496  1.00  0.00     0.183 C 
HETATM   22  N5  UNL     1      15.213  14.683  25.718  1.00  0.00    -0.070 NA
HETATM   23  S1  UNL     1      13.064  13.886  24.437  1.00  0.00    -0.044 SA
ENDBRANCH  19  21
ENDBRANCH  18  19
BRANCH  18  24
HETATM   24  C8  UNL     1      16.363  11.260  25.603  1.00  0.00     0.224 C 
HETATM   25  O5  UNL     1      17.090  11.359  24.591  1.00  0.00    -0.645 OA
HETATM   26  O6  UNL     1      17.066  11.198  26.824  1.00  0.00    -0.645 OA
ENDBRANCH  18  24
ENDBRANCH  17  18
ENDBRANCH   4  17
TORSDOF 9
ENDMDL
MODEL 5
REMARK VINA RESULT: -4.974053368      3.372      5.403
REMARK  9 active torsions:
REMARK  status: ('A' for Active; 'I' for Inactive)
REMARK    1  A    between atoms: C2_2  and  N1_4 
REMARK    2  A    between atoms: C2_2  and  C4_8 
REMARK       I    between atoms: C4_8  and  N2_10 
REMARK    3  A    between atoms: N2_10  and  N3_11 
REMARK       I    between atoms: N2_10  and  C5_15 
REMARK    4  A    between atoms: N3_11  and  O2_13 
REMARK    5  A    between atoms: C5_15  and  O4_17 
REMARK    6  A    between atoms: O4_17  and  C6_18 
REMARK    7  A    between atoms: C6_18  and  N4_19 
REMARK    8  A    between atoms: C6_18  and  C8_24 
REMARK    9  A    between atoms: N4_19  and  C7_21 
ROOT
HETATM    1  C4  UNL     1      12.442   8.412  28.061  1.00  0.00     0.284 C 
HETATM    2  O1  UNL     1      12.861   9.528  28.485  1.00  0.00    -0.268 OA
HETATM    3  N2  UNL     1      12.032   8.369  26.708  1.00  0.00    -0.143 N 
HETATM    4  C5  UNL     1      12.078   9.505  25.850  1.00  0.00     0.393 C 
HETATM    5  O3  UNL     1      11.702   9.425  24.648  1.00  0.00    -0.236 OA
ENDROOT
BRANCH   3   6
HETATM    6  N3  UNL     1      11.565   7.149  26.212  1.00  0.00    -0.196 N 
ATOM      7  H3  UNL     1      12.208   6.399  25.956  1.00  0.00     0.216 HD
BRANCH   6   8
HETATM    8  O2  UNL     1      10.312   7.014  26.094  1.00  0.00    -0.274 OA
ATOM      9  H2  UNL     1       9.827   7.751  25.741  1.00  0.00     0.246 HD
ENDBRANCH   6   8
ENDBRANCH   3   6
BRANCH   1  10
HETATM   10  C2  UNL     1      12.414   7.276  28.977  1.00  0.00     0.198 C 
HETATM   11  C1  UNL     1      12.656   7.677  30.418  1.00  0.00     0.056 C 
HETATM   12  C3  UNL     1      13.443   6.217  28.642  1.00  0.00     0.056 C 
BRANCH  10  13
HETATM   13  N1  UNL     1      11.110   6.643  28.937  1.00  0.00    -0.062 N 
ATOM     14  H13 UNL     1      10.952   6.101  28.088  1.00  0.00     0.275 HD
ATOM     15  H12 UNL     1      11.016   5.872  29.599  1.00  0.00     0.275 HD
ATOM     16  H11 UNL     1      10.422   7.383  29.078  1.00  0.00     0.275 HD
ENDBRANCH  10  13
ENDBRANCH   1  10
BRANCH   4  17
HETATM   17  O4  UNL     1      12.532  10.738  26.290  1.00  0.00    -0.266 OA
BRANCH  17  18
HETATM   18  C6  UNL     1      13.349  11.523  25.448  1.00  0.00     0.336 C 
BRANCH  18  19
HETATM   19  N4  UNL     1      13.370  12.914  25.867  1.00  0.00    -0.334 N 
ATOM     20  H4  UNL     1      13.336  13.104  26.869  1.00  0.00     0.164 HD
BRANCH  19  21
HETATM   21  C7  UNL     1      13.433  14.015  25.000  1.00  0.00     0.183 C 
HETATM   22  N5  UNL     1      12.272  14.454  24.327  1.00  0.00    -0.070 NA
HETATM   23  S1  UNL     1      14.838  14.787  24.769  1.00  0.00    -0.044 SA
ENDBRANCH  19  21
ENDBRANCH  18  19
BRANCH  18  24
HETATM   24  C8  UNL     1      14.720  11.013  25.354  1.00  0.00     0.224 C 
HETATM   25  O5  UNL     1      15.434  10.598  26.292  1.00  0.00    -0.645 OA
HETATM   26  O6  UNL     1      15.337  10.966  24.086  1.00  0.00    -0.645 OA
ENDBRANCH  18  24
ENDBRANCH  17  18
ENDBRANCH   4  17
TORSDOF 9
ENDMDL
