MODEL 1
REMARK VINA RESULT: -6.743615659      0.000      0.000
REMARK  9 active torsions:
REMARK  status: ('A' for Active; 'I' for Inactive)
REMARK    1  A    between atoms: N1_1  and  C1_4 
REMARK    2  A    between atoms: C2_7  and  N3_8 
REMARK    3  A    between atoms: N3_8  and  N4_10 
REMARK    4  A    between atoms: N6_18  and  C6_19 
REMARK    5  A    between atoms: C6_19  and  O2_20 
REMARK    6  A    between atoms: O2_20  and  C7_21 
REMARK    7  A    between atoms: C7_21  and  C8_22 
REMARK    8  A    between atoms: C8_22  and  C9_23 
REMARK    9  A    between atoms: C9_23  and  O3_24 
ROOT
HETATM    1  C1  UNL     1      24.127  17.034  63.415  1.00  0.00     0.705 A 
HETATM    2  N2  UNL     1      23.644  16.226  62.456  1.00  0.00    -0.020 N 
ATOM      3  H2  UNL     1      22.640  16.194  62.280  1.00  0.00     0.203 HD
HETATM    4  C2  UNL     1      24.464  15.469  61.733  1.00  0.00     0.735 A 
HETATM    5  N5  UNL     1      25.795  15.499  61.953  1.00  0.00     0.062 N 
HETATM    6  C3  UNL     1      26.567  14.702  61.184  1.00  0.00     0.285 A 
HETATM    7  O1  UNL     1      26.074  13.964  60.300  1.00  0.00    -0.266 OA
HETATM    8  C4  UNL     1      27.912  14.728  61.403  1.00  0.00     0.094 A 
HETATM    9  C5  UNL     1      28.408  15.554  62.385  1.00  0.00     0.117 A 
HETATM   10  N6  UNL     1      27.637  16.354  63.157  1.00  0.00    -0.170 N 
HETATM   11  C10 UNL     1      26.315  16.302  62.912  1.00  0.00     0.725 A 
HETATM   12  N7  UNL     1      25.460  17.050  63.618  1.00  0.00    -0.021 N 
ATOM     13  H7  UNL     1      25.833  17.661  64.344  1.00  0.00     0.203 HD
ENDROOT
BRANCH  10  14
HETATM   14  C6  UNL     1      28.218  17.209  64.173  1.00  0.00     0.316 C 
BRANCH  14  15
HETATM   15  O2  UNL     1      27.903  18.537  63.973  1.00  0.00    -0.371 OA
BRANCH  15  16
HETATM   16  C7  UNL     1      28.859  19.258  63.321  1.00  0.00     0.172 C 
BRANCH  16  17
HETATM   17  C8  UNL     1      28.308  20.296  62.377  1.00  0.00     0.052 C 
BRANCH  17  18
HETATM   18  C9  UNL     1      27.258  19.654  61.461  1.00  0.00     0.166 C 
BRANCH  18  19
HETATM   19  O3  UNL     1      26.004  19.712  62.061  1.00  0.00    -0.401 OA
ATOM     20  H3  UNL     1      25.501  18.937  61.838  1.00  0.00     0.209 HD
ENDBRANCH  18  19
ENDBRANCH  17  18
ENDBRANCH  16  17
ENDBRANCH  15  16
ENDBRANCH  14  15
ENDBRANCH  10  14
BRANCH   4  21
HETATM   21  N3  UNL     1      23.992  14.691  60.807  1.00  0.00    -0.137 N 
ATOM     22  H3  UNL     1      24.309  14.791  59.842  1.00  0.00     0.205 HD
BRANCH  21  23
HETATM   23  N4  UNL     1      23.048  13.715  61.138  1.00  0.00    -0.331 N 
ATOM     24  H42 UNL     1      23.266  13.041  61.871  1.00  0.00     0.177 HD
ATOM     25  H41 UNL     1      22.155  13.688  60.645  1.00  0.00     0.177 HD
ENDBRANCH  21  23
ENDBRANCH   4  21
BRANCH   1  26
HETATM   26  N1  UNL     1      23.338  17.790  64.140  1.00  0.00    -0.234 N 
ATOM     27  H12 UNL     1      22.380  17.971  63.839  1.00  0.00     0.174 HD
ATOM     28  H11 UNL     1      23.655  18.213  65.013  1.00  0.00     0.174 HD
ENDBRANCH   1  26
TORSDOF 9
ENDMDL
MODEL 2
REMARK VINA RESULT: -6.575035030      1.235      1.359
REMARK  9 active torsions:
REMARK  status: ('A' for Active; 'I' for Inactive)
REMARK    1  A    between atoms: N1_1  and  C1_4 
REMARK    2  A    between atoms: C2_7  and  N3_8 
REMARK    3  A    between atoms: N3_8  and  N4_10 
REMARK    4  A    between atoms: N6_18  and  C6_19 
REMARK    5  A    between atoms: C6_19  and  O2_20 
REMARK    6  A    between atoms: O2_20  and  C7_21 
REMARK    7  A    between atoms: C7_21  and  C8_22 
REMARK    8  A    between atoms: C8_22  and  C9_23 
REMARK    9  A    between atoms: C9_23  and  O3_24 
ROOT
HETATM    1  C1  UNL     1      24.173  17.014  63.234  1.00  0.00     0.705 A 
HETATM    2  N2  UNL     1      23.681  16.064  62.421  1.00  0.00    -0.020 N 
ATOM      3  H2  UNL     1      22.677  15.886  62.399  1.00  0.00     0.203 HD
HETATM    4  C2  UNL     1      24.493  15.353  61.643  1.00  0.00     0.735 A 
HETATM    5  N5  UNL     1      25.824  15.575  61.661  1.00  0.00     0.062 N 
HETATM    6  C3  UNL     1      26.589  14.815  60.848  1.00  0.00     0.285 A 
HETATM    7  O1  UNL     1      26.088  13.939  60.105  1.00  0.00    -0.266 OA
HETATM    8  C4  UNL     1      27.934  15.034  60.862  1.00  0.00     0.094 A 
HETATM    9  C5  UNL     1      28.437  16.006  61.694  1.00  0.00     0.117 A 
HETATM   10  N6  UNL     1      27.675  16.770  62.510  1.00  0.00    -0.170 N 
HETATM   11  C10 UNL     1      26.352  16.526  62.469  1.00  0.00     0.725 A 
HETATM   12  N7  UNL     1      25.505  17.221  63.236  1.00  0.00    -0.021 N 
ATOM     13  H7  UNL     1      25.885  17.941  63.850  1.00  0.00     0.203 HD
ENDROOT
BRANCH  10  14
HETATM   14  C6  UNL     1      28.263  17.785  63.361  1.00  0.00     0.316 C 
BRANCH  14  15
HETATM   15  O2  UNL     1      27.890  19.058  62.981  1.00  0.00    -0.371 OA
BRANCH  15  16
HETATM   16  C7  UNL     1      27.979  19.996  63.968  1.00  0.00     0.172 C 
BRANCH  16  17
HETATM   17  C8  UNL     1      27.286  19.607  65.249  1.00  0.00     0.052 C 
BRANCH  17  18
HETATM   18  C9  UNL     1      25.846  20.133  65.235  1.00  0.00     0.166 C 
BRANCH  18  19
HETATM   19  O3  UNL     1      25.385  20.228  63.926  1.00  0.00    -0.401 OA
ATOM     20  H3  UNL     1      24.444  20.102  63.902  1.00  0.00     0.209 HD
ENDBRANCH  18  19
ENDBRANCH  17  18
ENDBRANCH  16  17
ENDBRANCH  15  16
ENDBRANCH  14  15
ENDBRANCH  10  14
BRANCH   4  21
HETATM   21  N3  UNL     1      24.013  14.437  60.859  1.00  0.00    -0.137 N 
ATOM     22  H3  UNL     1      24.361  14.346  59.904  1.00  0.00     0.205 HD
BRANCH  21  23
HETATM   23  N4  UNL     1      23.019  13.575  61.329  1.00  0.00    -0.331 N 
ATOM     24  H42 UNL     1      22.376  13.903  62.051  1.00  0.00     0.177 HD
ATOM     25  H41 UNL     1      22.946  12.631  60.948  1.00  0.00     0.177 HD
ENDBRANCH  21  23
ENDBRANCH   4  21
BRANCH   1  26
HETATM   26  N1  UNL     1      23.391  17.728  64.010  1.00  0.00    -0.234 N 
ATOM     27  H12 UNL     1      22.665  18.318  63.604  1.00  0.00     0.174 HD
ATOM     28  H11 UNL     1      23.487  17.713  65.025  1.00  0.00     0.174 HD
ENDBRANCH   1  26
TORSDOF 9
ENDMDL
MODEL 3
REMARK VINA RESULT: -6.404881221      2.612      5.726
REMARK  9 active torsions:
REMARK  status: ('A' for Active; 'I' for Inactive)
REMARK    1  A    between atoms: N1_1  and  C1_4 
REMARK    2  A    between atoms: C2_7  and  N3_8 
REMARK    3  A    between atoms: N3_8  and  N4_10 
REMARK    4  A    between atoms: N6_18  and  C6_19 
REMARK    5  A    between atoms: C6_19  and  O2_20 
REMARK    6  A    between atoms: O2_20  and  C7_21 
REMARK    7  A    between atoms: C7_21  and  C8_22 
REMARK    8  A    between atoms: C8_22  and  C9_23 
REMARK    9  A    between atoms: C9_23  and  O3_24 
ROOT
HETATM    1  C1  UNL     1      27.262  18.432  60.242  1.00  0.00     0.705 A 
HETATM    2  N2  UNL     1      27.981  19.429  60.784  1.00  0.00    -0.020 N 
ATOM      3  H2  UNL     1      28.696  19.899  60.227  1.00  0.00     0.203 HD
HETATM    4  C2  UNL     1      27.769  19.810  62.040  1.00  0.00     0.735 A 
HETATM    5  N5  UNL     1      26.828  19.199  62.791  1.00  0.00     0.062 N 
HETATM    6  C3  UNL     1      26.668  19.636  64.058  1.00  0.00     0.285 A 
HETATM    7  O1  UNL     1      27.362  20.571  64.524  1.00  0.00    -0.266 OA
HETATM    8  C4  UNL     1      25.721  19.022  64.821  1.00  0.00     0.094 A 
HETATM    9  C5  UNL     1      24.985  18.001  64.267  1.00  0.00     0.117 A 
HETATM   10  N6  UNL     1      25.141  17.561  62.997  1.00  0.00    -0.170 N 
HETATM   11  C10 UNL     1      26.086  18.190  62.275  1.00  0.00     0.725 A 
HETATM   12  N7  UNL     1      26.327  17.835  61.008  1.00  0.00    -0.021 N 
ATOM     13  H7  UNL     1      25.777  17.078  60.603  1.00  0.00     0.203 HD
ENDROOT
BRANCH  10  14
HETATM   14  C6  UNL     1      24.331  16.483  62.467  1.00  0.00     0.316 C 
BRANCH  14  15
HETATM   15  O2  UNL     1      24.945  15.256  62.609  1.00  0.00    -0.371 OA
BRANCH  15  16
HETATM   16  C7  UNL     1      25.070  14.544  61.452  1.00  0.00     0.172 C 
BRANCH  16  17
HETATM   17  C8  UNL     1      26.375  13.800  61.327  1.00  0.00     0.052 C 
BRANCH  17  18
HETATM   18  C9  UNL     1      27.188  14.379  60.163  1.00  0.00     0.166 C 
BRANCH  18  19
HETATM   19  O3  UNL     1      26.377  15.184  59.369  1.00  0.00    -0.401 OA
ATOM     20  H3  UNL     1      26.733  15.238  58.490  1.00  0.00     0.209 HD
ENDBRANCH  18  19
ENDBRANCH  17  18
ENDBRANCH  16  17
ENDBRANCH  15  16
ENDBRANCH  14  15
ENDBRANCH  10  14
BRANCH   4  21
HETATM   21  N3  UNL     1      28.466  20.775  62.559  1.00  0.00    -0.137 N 
ATOM     22  H3  UNL     1      28.000  21.609  62.916  1.00  0.00     0.205 HD
BRANCH  21  23
HETATM   23  N4  UNL     1      29.857  20.665  62.625  1.00  0.00    -0.331 N 
ATOM     24  H42 UNL     1      30.291  20.359  63.496  1.00  0.00     0.177 HD
ATOM     25  H41 UNL     1      30.422  20.891  61.806  1.00  0.00     0.177 HD
ENDBRANCH  21  23
ENDBRANCH   4  21
BRANCH   1  26
HETATM   26  N1  UNL     1      27.454  18.039  59.005  1.00  0.00    -0.234 N 
ATOM     27  H12 UNL     1      26.755  17.463  58.535  1.00  0.00     0.174 HD
ATOM     28  H11 UNL     1      28.294  18.294  58.486  1.00  0.00     0.174 HD
ENDBRANCH   1  26
TORSDOF 9
ENDMDL
MODEL 4
REMARK VINA RESULT: -6.368933730      1.782      2.236
REMARK  9 active torsions:
REMARK  status: ('A' for Active; 'I' for Inactive)
REMARK    1  A    between atoms: N1_1  and  C1_4 
REMARK    2  A    between atoms: C2_7  and  N3_8 
REMARK    3  A    between atoms: N3_8  and  N4_10 
REMARK    4  A    between atoms: N6_18  and  C6_19 
REMARK    5  A    between atoms: C6_19  and  O2_20 
REMARK    6  A    between atoms: O2_20  and  C7_21 
REMARK    7  A    between atoms: C7_21  and  C8_22 
REMARK    8  A    between atoms: C8_22  and  C9_23 
REMARK    9  A    between atoms: C9_23  and  O3_24 
ROOT
HETATM    1  C1  UNL     1      23.949  17.168  63.365  1.00  0.00     0.705 A 
HETATM    2  N2  UNL     1      23.811  15.960  62.793  1.00  0.00    -0.020 N 
ATOM      3  H2  UNL     1      23.035  15.356  63.066  1.00  0.00     0.203 HD
HETATM    4  C2  UNL     1      24.678  15.544  61.875  1.00  0.00     0.735 A 
HETATM    5  N5  UNL     1      25.711  16.329  61.504  1.00  0.00     0.062 N 
HETATM    6  C3  UNL     1      26.554  15.842  60.569  1.00  0.00     0.285 A 
HETATM    7  O1  UNL     1      26.388  14.708  60.061  1.00  0.00    -0.266 OA
HETATM    8  C4  UNL     1      27.599  16.631  60.191  1.00  0.00     0.094 A 
HETATM    9  C5  UNL     1      27.741  17.867  60.776  1.00  0.00     0.117 A 
HETATM   10  N6  UNL     1      26.898  18.360  61.713  1.00  0.00    -0.170 N 
HETATM   11  C10 UNL     1      25.878  17.553  62.060  1.00  0.00     0.725 A 
HETATM   12  N7  UNL     1      24.986  17.938  62.980  1.00  0.00    -0.021 N 
ATOM     13  H7  UNL     1      25.096  18.857  63.409  1.00  0.00     0.203 HD
ENDROOT
BRANCH  10  14
HETATM   14  C6  UNL     1      27.095  19.674  62.289  1.00  0.00     0.316 C 
BRANCH  14  15
HETATM   15  O2  UNL     1      27.152  19.631  63.667  1.00  0.00    -0.371 OA
BRANCH  15  16
HETATM   16  C7  UNL     1      28.413  19.570  64.184  1.00  0.00     0.172 C 
BRANCH  16  17
HETATM   17  C8  UNL     1      29.130  20.895  64.211  1.00  0.00     0.052 C 
BRANCH  17  18
HETATM   18  C9  UNL     1      29.049  21.496  65.620  1.00  0.00     0.166 C 
BRANCH  18  19
HETATM   19  O3  UNL     1      28.642  22.824  65.549  1.00  0.00    -0.401 OA
ATOM     20  H3  UNL     1      27.958  22.989  66.188  1.00  0.00     0.209 HD
ENDBRANCH  18  19
ENDBRANCH  17  18
ENDBRANCH  16  17
ENDBRANCH  15  16
ENDBRANCH  14  15
ENDBRANCH  10  14
BRANCH   4  21
HETATM   21  N3  UNL     1      24.541  14.376  61.326  1.00  0.00    -0.137 N 
ATOM     22  H3  UNL     1      25.272  13.672  61.430  1.00  0.00     0.205 HD
BRANCH  21  23
HETATM   23  N4  UNL     1      23.387  14.087  60.592  1.00  0.00    -0.331 N 
ATOM     24  H42 UNL     1      22.554  13.762  61.082  1.00  0.00     0.177 HD
ATOM     25  H41 UNL     1      23.390  14.205  59.578  1.00  0.00     0.177 HD
ENDBRANCH  21  23
ENDBRANCH   4  21
BRANCH   1  26
HETATM   26  N1  UNL     1      23.105  17.600  64.273  1.00  0.00    -0.234 N 
ATOM     27  H12 UNL     1      22.541  18.431  64.097  1.00  0.00     0.174 HD
ATOM     28  H11 UNL     1      22.993  17.124  65.168  1.00  0.00     0.174 HD
ENDBRANCH   1  26
TORSDOF 9
ENDMDL
MODEL 5
REMARK VINA RESULT: -6.327283228      2.007      2.683
REMARK  9 active torsions:
REMARK  status: ('A' for Active; 'I' for Inactive)
REMARK    1  A    between atoms: N1_1  and  C1_4 
REMARK    2  A    between atoms: C2_7  and  N3_8 
REMARK    3  A    between atoms: N3_8  and  N4_10 
REMARK    4  A    between atoms: N6_18  and  C6_19 
REMARK    5  A    between atoms: C6_19  and  O2_20 
REMARK    6  A    between atoms: O2_20  and  C7_21 
REMARK    7  A    between atoms: C7_21  and  C8_22 
REMARK    8  A    between atoms: C8_22  and  C9_23 
REMARK    9  A    between atoms: C9_23  and  O3_24 
ROOT
HETATM    1  C1  UNL     1      24.277  16.679  61.086  1.00  0.00     0.705 A 
HETATM    2  N2  UNL     1      24.582  15.371  61.052  1.00  0.00    -0.020 N 
ATOM      3  H2  UNL     1      23.863  14.689  60.811  1.00  0.00     0.203 HD
HETATM    4  C2  UNL     1      25.815  14.957  61.330  1.00  0.00     0.735 A 
HETATM    5  N5  UNL     1      26.778  15.845  61.652  1.00  0.00     0.062 N 
HETATM    6  C3  UNL     1      28.006  15.354  61.925  1.00  0.00     0.285 A 
HETATM    7  O1  UNL     1      28.248  14.125  61.882  1.00  0.00    -0.266 OA
HETATM    8  C4  UNL     1      28.983  16.247  62.252  1.00  0.00     0.094 A 
HETATM    9  C5  UNL     1      28.671  17.586  62.287  1.00  0.00     0.117 A 
HETATM   10  N6  UNL     1      27.442  18.082  62.014  1.00  0.00    -0.170 N 
HETATM   11  C10 UNL     1      26.504  17.171  61.696  1.00  0.00     0.725 A 
HETATM   12  N7  UNL     1      25.254  17.550  61.409  1.00  0.00    -0.021 N 
ATOM     13  H7  UNL     1      25.029  18.545  61.436  1.00  0.00     0.203 HD
ENDROOT
BRANCH  10  14
HETATM   14  C6  UNL     1      27.175  19.505  62.061  1.00  0.00     0.316 C 
BRANCH  14  15
HETATM   15  O2  UNL     1      26.094  19.802  62.866  1.00  0.00    -0.371 OA
BRANCH  15  16
HETATM   16  C7  UNL     1      26.335  19.701  64.204  1.00  0.00     0.172 C 
BRANCH  16  17
HETATM   17  C8  UNL     1      25.267  18.959  64.966  1.00  0.00     0.052 C 
BRANCH  17  18
HETATM   18  C9  UNL     1      24.050  19.871  65.168  1.00  0.00     0.166 C 
BRANCH  18  19
HETATM   19  O3  UNL     1      24.213  21.049  64.445  1.00  0.00    -0.401 OA
ATOM     20  H3  UNL     1      23.365  21.398  64.197  1.00  0.00     0.209 HD
ENDBRANCH  18  19
ENDBRANCH  17  18
ENDBRANCH  16  17
ENDBRANCH  15  16
ENDBRANCH  14  15
ENDBRANCH  10  14
BRANCH   4  21
HETATM   21  N3  UNL     1      26.105  13.692  61.296  1.00  0.00    -0.137 N 
ATOM     22  H3  UNL     1      26.890  13.361  60.734  1.00  0.00     0.205 HD
BRANCH  21  23
HETATM   23  N4  UNL     1      25.337  12.785  62.032  1.00  0.00    -0.331 N 
ATOM     24  H42 UNL     1      24.325  12.771  61.903  1.00  0.00     0.177 HD
ATOM     25  H41 UNL     1      25.795  12.151  62.687  1.00  0.00     0.177 HD
ENDBRANCH  21  23
ENDBRANCH   4  21
BRANCH   1  26
HETATM   26  N1  UNL     1      23.068  17.111  60.815  1.00  0.00    -0.234 N 
ATOM     27  H12 UNL     1      22.264  16.734  61.316  1.00  0.00     0.174 HD
ATOM     28  H11 UNL     1      22.901  17.825  60.106  1.00  0.00     0.174 HD
ENDBRANCH   1  26
TORSDOF 9
ENDMDL
