MODEL 1
REMARK VINA RESULT: -6.749826392      0.000      0.000
REMARK  9 active torsions:
REMARK  status: ('A' for Active; 'I' for Inactive)
REMARK    1  A    between atoms: N1_1  and  C1_4 
REMARK    2  A    between atoms: C2_7  and  N3_8 
REMARK    3  A    between atoms: N3_8  and  C3_10 
REMARK    4  A    between atoms: C3_10  and  C4_11 
REMARK    5  A    between atoms: C4_11  and  O1_12 
REMARK    6  A    between atoms: N5_21  and  C8_22 
REMARK    7  A    between atoms: C8_22  and  C9_23 
REMARK    8  A    between atoms: C9_23  and  C10_24 
REMARK    9  A    between atoms: C10_24  and  N6_25 
ROOT
HETATM    1  C1  UNL     1      30.436  17.830  62.449  1.00  0.00     0.679 A 
HETATM    2  N2  UNL     1      30.222  18.935  63.186  1.00  0.00    -0.176 N 
ATOM      3  H2  UNL     1      30.999  19.438  63.615  1.00  0.00     0.186 HD
HETATM    4  C2  UNL     1      28.955  19.358  63.340  1.00  0.00     0.136 A 
HETATM    5  C5  UNL     1      27.885  18.669  62.752  1.00  0.00     0.121 A 
HETATM    6  C6  UNL     1      26.583  19.105  62.906  1.00  0.00     0.267 A 
HETATM    7  O2  UNL     1      26.369  20.135  63.591  1.00  0.00    -0.267 OA
HETATM    8  N4  UNL     1      25.564  18.418  62.318  1.00  0.00    -0.274 N 
ATOM      9  H4  UNL     1      24.604  18.741  62.432  1.00  0.00     0.173 HD
HETATM   10  C7  UNL     1      25.813  17.319  61.590  1.00  0.00     0.331 A 
HETATM   11  O3  UNL     1      24.852  16.707  61.060  1.00  0.00    -0.246 OA
HETATM   12  N5  UNL     1      27.094  16.877  61.430  1.00  0.00    -0.284 N 
HETATM   13  C11 UNL     1      28.123  17.540  62.002  1.00  0.00     0.146 A 
HETATM   14  N7  UNL     1      29.397  17.159  61.875  1.00  0.00    -0.175 N 
ATOM     15  H7  UNL     1      29.603  16.327  61.323  1.00  0.00     0.186 HD
ENDROOT
BRANCH  12  16
HETATM   16  C8  UNL     1      27.319  15.709  60.648  1.00  0.00     0.137 C 
BRANCH  16  17
HETATM   17  C9  UNL     1      27.529  14.456  61.445  1.00  0.00     0.048 C 
BRANCH  17  18
HETATM   18  C10 UNL     1      26.263  13.611  61.340  1.00  0.00     0.231 C 
BRANCH  18  19
HETATM   19  N6  UNL     1      25.481  13.930  60.185  1.00  0.00    -0.079 N 
ATOM     20  H63 UNL     1      24.569  14.299  60.451  1.00  0.00     0.274 HD
ATOM     21  H62 UNL     1      25.857  14.747  59.704  1.00  0.00     0.274 HD
ATOM     22  H61 UNL     1      25.384  13.142  59.546  1.00  0.00     0.274 HD
ENDBRANCH  18  19
ENDBRANCH  17  18
ENDBRANCH  16  17
ENDBRANCH  12  16
BRANCH   4  23
HETATM   23  N3  UNL     1      28.652  20.402  64.027  1.00  0.00    -0.373 N 
ATOM     24  H3  UNL     1      27.756  20.853  63.841  1.00  0.00     0.161 HD
BRANCH  23  25
HETATM   25  C3  UNL     1      29.498  20.976  65.041  1.00  0.00     0.147 C 
BRANCH  25  26
HETATM   26  C4  UNL     1      28.658  21.760  66.049  1.00  0.00     0.183 C 
BRANCH  26  27
HETATM   27  O1  UNL     1      28.655  23.107  65.689  1.00  0.00    -0.399 OA
ATOM     28  H1  UNL     1      27.870  23.292  65.189  1.00  0.00     0.209 HD
ENDBRANCH  26  27
ENDBRANCH  25  26
ENDBRANCH  23  25
ENDBRANCH   4  23
BRANCH   1  29
HETATM   29  N1  UNL     1      31.643  17.417  62.293  1.00  0.00    -0.234 N 
ATOM     30  H12 UNL     1      31.897  16.460  62.544  1.00  0.00     0.174 HD
ATOM     31  H11 UNL     1      32.336  18.061  61.915  1.00  0.00     0.174 HD
ENDBRANCH   1  29
TORSDOF 9
ENDMDL
MODEL 2
REMARK VINA RESULT: -6.505962570      2.731      5.842
REMARK  9 active torsions:
REMARK  status: ('A' for Active; 'I' for Inactive)
REMARK    1  A    between atoms: N1_1  and  C1_4 
REMARK    2  A    between atoms: C2_7  and  N3_8 
REMARK    3  A    between atoms: N3_8  and  C3_10 
REMARK    4  A    between atoms: C3_10  and  C4_11 
REMARK    5  A    between atoms: C4_11  and  O1_12 
REMARK    6  A    between atoms: N5_21  and  C8_22 
REMARK    7  A    between atoms: C8_22  and  C9_23 
REMARK    8  A    between atoms: C9_23  and  C10_24 
REMARK    9  A    between atoms: C10_24  and  N6_25 
ROOT
HETATM    1  C1  UNL     1      27.892  18.368  61.645  1.00  0.00     0.679 A 
HETATM    2  N2  UNL     1      27.550  17.405  60.770  1.00  0.00    -0.176 N 
ATOM      3  H2  UNL     1      28.161  17.165  59.989  1.00  0.00     0.186 HD
HETATM    4  C2  UNL     1      26.379  16.770  60.955  1.00  0.00     0.136 A 
HETATM    5  C5  UNL     1      25.538  17.098  62.027  1.00  0.00     0.121 A 
HETATM    6  C6  UNL     1      24.338  16.442  62.219  1.00  0.00     0.267 A 
HETATM    7  O2  UNL     1      24.005  15.541  61.411  1.00  0.00    -0.267 OA
HETATM    8  N4  UNL     1      23.543  16.779  63.274  1.00  0.00    -0.274 N 
ATOM      9  H4  UNL     1      22.657  16.293  63.414  1.00  0.00     0.173 HD
HETATM   10  C7  UNL     1      23.914  17.744  64.127  1.00  0.00     0.331 A 
HETATM   11  O3  UNL     1      23.160  18.033  65.090  1.00  0.00    -0.246 OA
HETATM   12  N5  UNL     1      25.097  18.401  63.948  1.00  0.00    -0.284 N 
HETATM   13  C11 UNL     1      25.904  18.085  62.912  1.00  0.00     0.146 A 
HETATM   14  N7  UNL     1      27.076  18.688  62.689  1.00  0.00    -0.175 N 
ATOM     15  H7  UNL     1      27.374  19.424  63.330  1.00  0.00     0.186 HD
ENDROOT
BRANCH  12  16
HETATM   16  C8  UNL     1      25.460  19.417  64.876  1.00  0.00     0.137 C 
BRANCH  16  17
HETATM   17  C9  UNL     1      26.314  18.946  66.015  1.00  0.00     0.048 C 
BRANCH  17  18
HETATM   18  C10 UNL     1      25.515  19.106  67.304  1.00  0.00     0.231 C 
BRANCH  18  19
HETATM   19  N6  UNL     1      24.767  17.934  67.639  1.00  0.00    -0.079 N 
ATOM     20  H63 UNL     1      23.959  18.168  68.214  1.00  0.00     0.274 HD
ATOM     21  H62 UNL     1      24.286  17.562  66.820  1.00  0.00     0.274 HD
ATOM     22  H61 UNL     1      25.338  17.217  68.085  1.00  0.00     0.274 HD
ENDBRANCH  18  19
ENDBRANCH  17  18
ENDBRANCH  16  17
ENDBRANCH  12  16
BRANCH   4  23
HETATM   23  N3  UNL     1      25.967  15.837  60.171  1.00  0.00    -0.373 N 
ATOM     24  H3  UNL     1      25.032  15.926  59.773  1.00  0.00     0.161 HD
BRANCH  23  25
HETATM   25  C3  UNL     1      26.741  14.675  59.820  1.00  0.00     0.147 C 
BRANCH  25  26
HETATM   26  C4  UNL     1      27.006  13.821  61.059  1.00  0.00     0.183 C 
BRANCH  26  27
HETATM   27  O1  UNL     1      25.802  13.275  61.502  1.00  0.00    -0.399 OA
ATOM     28  H1  UNL     1      25.229  13.977  61.784  1.00  0.00     0.209 HD
ENDBRANCH  26  27
ENDBRANCH  25  26
ENDBRANCH  23  25
ENDBRANCH   4  23
BRANCH   1  29
HETATM   29  N1  UNL     1      29.009  18.983  61.481  1.00  0.00    -0.234 N 
ATOM     30  H12 UNL     1      29.893  18.485  61.588  1.00  0.00     0.174 HD
ATOM     31  H11 UNL     1      28.991  19.974  61.241  1.00  0.00     0.174 HD
ENDBRANCH   1  29
TORSDOF 9
ENDMDL
MODEL 3
REMARK VINA RESULT: -6.422318913      2.817      3.500
REMARK  9 active torsions:
REMARK  status: ('A' for Active; 'I' for Inactive)
REMARK    1  A    between atoms: N1_1  and  C1_4 
REMARK    2  A    between atoms: C2_7  and  N3_8 
REMARK    3  A    between atoms: N3_8  and  C3_10 
REMARK    4  A    between atoms: C3_10  and  C4_11 
REMARK    5  A    between atoms: C4_11  and  O1_12 
REMARK    6  A    between atoms: N5_21  and  C8_22 
REMARK    7  A    between atoms: C8_22  and  C9_23 
REMARK    8  A    between atoms: C9_23  and  C10_24 
REMARK    9  A    between atoms: C10_24  and  N6_25 
ROOT
HETATM    1  C1  UNL     1      27.800  18.654  64.495  1.00  0.00     0.679 A 
HETATM    2  N2  UNL     1      26.901  19.491  65.044  1.00  0.00    -0.176 N 
ATOM      3  H2  UNL     1      27.201  20.310  65.573  1.00  0.00     0.186 HD
HETATM    4  C2  UNL     1      25.596  19.215  64.876  1.00  0.00     0.136 A 
HETATM    5  C5  UNL     1      25.180  18.091  64.150  1.00  0.00     0.121 A 
HETATM    6  C6  UNL     1      23.839  17.811  63.972  1.00  0.00     0.267 A 
HETATM    7  O2  UNL     1      22.989  18.582  64.479  1.00  0.00    -0.267 OA
HETATM    8  N4  UNL     1      23.465  16.712  63.257  1.00  0.00    -0.274 N 
ATOM      9  H4  UNL     1      22.475  16.507  63.126  1.00  0.00     0.173 HD
HETATM   10  C7  UNL     1      24.388  15.899  62.723  1.00  0.00     0.331 A 
HETATM   11  O3  UNL     1      24.013  14.894  62.068  1.00  0.00    -0.246 OA
HETATM   12  N5  UNL     1      25.716  16.164  62.892  1.00  0.00    -0.284 N 
HETATM   13  C11 UNL     1      26.114  17.246  63.595  1.00  0.00     0.146 A 
HETATM   14  N7  UNL     1      27.399  17.560  63.788  1.00  0.00    -0.175 N 
ATOM     15  H7  UNL     1      28.113  16.952  63.387  1.00  0.00     0.186 HD
ENDROOT
BRANCH  12  16
HETATM   16  C8  UNL     1      26.667  15.280  62.308  1.00  0.00     0.137 C 
BRANCH  16  17
HETATM   17  C9  UNL     1      27.145  15.689  60.946  1.00  0.00     0.048 C 
BRANCH  17  18
HETATM   18  C10 UNL     1      27.043  14.477  60.025  1.00  0.00     0.231 C 
BRANCH  18  19
HETATM   19  N6  UNL     1      25.724  13.925  59.983  1.00  0.00    -0.079 N 
ATOM     20  H63 UNL     1      25.582  13.259  60.742  1.00  0.00     0.274 HD
ATOM     21  H62 UNL     1      25.028  14.623  60.243  1.00  0.00     0.274 HD
ATOM     22  H61 UNL     1      25.502  13.505  59.081  1.00  0.00     0.274 HD
ENDBRANCH  18  19
ENDBRANCH  17  18
ENDBRANCH  16  17
ENDBRANCH  12  16
BRANCH   4  23
HETATM   23  N3  UNL     1      24.664  19.955  65.363  1.00  0.00    -0.373 N 
ATOM     24  H3  UNL     1      23.804  20.059  64.823  1.00  0.00     0.161 HD
BRANCH  23  25
HETATM   25  C3  UNL     1      24.756  20.647  66.623  1.00  0.00     0.147 C 
BRANCH  25  26
HETATM   26  C4  UNL     1      23.841  19.990  67.656  1.00  0.00     0.183 C 
BRANCH  26  27
HETATM   27  O1  UNL     1      22.642  19.635  67.041  1.00  0.00    -0.399 OA
ATOM     28  H1  UNL     1      21.938  19.694  67.676  1.00  0.00     0.209 HD
ENDBRANCH  26  27
ENDBRANCH  25  26
ENDBRANCH  23  25
ENDBRANCH   4  23
BRANCH   1  29
HETATM   29  N1  UNL     1      29.051  18.906  64.648  1.00  0.00    -0.234 N 
ATOM     30  H12 UNL     1      29.505  18.738  65.546  1.00  0.00     0.174 HD
ATOM     31  H11 UNL     1      29.577  19.275  63.856  1.00  0.00     0.174 HD
ENDBRANCH   1  29
TORSDOF 9
ENDMDL
MODEL 4
REMARK VINA RESULT: -6.386344289      2.314      2.977
REMARK  9 active torsions:
REMARK  status: ('A' for Active; 'I' for Inactive)
REMARK    1  A    between atoms: N1_1  and  C1_4 
REMARK    2  A    between atoms: C2_7  and  N3_8 
REMARK    3  A    between atoms: N3_8  and  C3_10 
REMARK    4  A    between atoms: C3_10  and  C4_11 
REMARK    5  A    between atoms: C4_11  and  O1_12 
REMARK    6  A    between atoms: N5_21  and  C8_22 
REMARK    7  A    between atoms: C8_22  and  C9_23 
REMARK    8  A    between atoms: C9_23  and  C10_24 
REMARK    9  A    between atoms: C10_24  and  N6_25 
ROOT
HETATM    1  C1  UNL     1      27.585  19.639  63.348  1.00  0.00     0.679 A 
HETATM    2  N2  UNL     1      26.931  20.038  64.453  1.00  0.00    -0.176 N 
ATOM      3  H2  UNL     1      27.307  20.778  65.047  1.00  0.00     0.186 HD
HETATM    4  C2  UNL     1      25.768  19.434  64.753  1.00  0.00     0.136 A 
HETATM    5  C5  UNL     1      25.249  18.418  63.941  1.00  0.00     0.121 A 
HETATM    6  C6  UNL     1      24.051  17.801  64.246  1.00  0.00     0.267 A 
HETATM    7  O2  UNL     1      23.430  18.164  65.274  1.00  0.00    -0.267 OA
HETATM    8  N4  UNL     1      23.568  16.819  63.433  1.00  0.00    -0.274 N 
ATOM      9  H4  UNL     1      22.684  16.364  63.660  1.00  0.00     0.173 HD
HETATM   10  C7  UNL     1      24.246  16.444  62.339  1.00  0.00     0.331 A 
HETATM   11  O3  UNL     1      23.775  15.535  61.609  1.00  0.00    -0.246 OA
HETATM   12  N5  UNL     1      25.431  17.045  62.026  1.00  0.00    -0.284 N 
HETATM   13  C11 UNL     1      25.931  18.022  62.814  1.00  0.00     0.146 A 
HETATM   14  N7  UNL     1      27.082  18.650  62.555  1.00  0.00    -0.175 N 
ATOM     15  H7  UNL     1      27.608  18.378  61.725  1.00  0.00     0.186 HD
ENDROOT
BRANCH  12  16
HETATM   16  C8  UNL     1      26.120  16.623  60.855  1.00  0.00     0.137 C 
BRANCH  16  17
HETATM   17  C9  UNL     1      27.157  15.564  61.089  1.00  0.00     0.048 C 
BRANCH  17  18
HETATM   18  C10 UNL     1      26.951  14.463  60.053  1.00  0.00     0.231 C 
BRANCH  18  19
HETATM   19  N6  UNL     1      25.612  13.961  60.041  1.00  0.00    -0.079 N 
ATOM     20  H63 UNL     1      25.588  12.975  60.300  1.00  0.00     0.274 HD
ATOM     21  H62 UNL     1      25.069  14.348  60.813  1.00  0.00     0.274 HD
ATOM     22  H61 UNL     1      25.141  14.116  59.149  1.00  0.00     0.274 HD
ENDBRANCH  18  19
ENDBRANCH  17  18
ENDBRANCH  16  17
ENDBRANCH  12  16
BRANCH   4  23
HETATM   23  N3  UNL     1      25.072  19.748  65.789  1.00  0.00    -0.373 N 
ATOM     24  H3  UNL     1      24.056  19.699  65.714  1.00  0.00     0.161 HD
BRANCH  23  25
HETATM   25  C3  UNL     1      25.637  20.163  67.046  1.00  0.00     0.147 C 
BRANCH  25  26
HETATM   26  C4  UNL     1      25.264  21.616  67.340  1.00  0.00     0.183 C 
BRANCH  26  27
HETATM   27  O1  UNL     1      25.577  22.400  66.231  1.00  0.00    -0.399 OA
ATOM     28  H1  UNL     1      26.433  22.149  65.906  1.00  0.00     0.209 HD
ENDBRANCH  26  27
ENDBRANCH  25  26
ENDBRANCH  23  25
ENDBRANCH   4  23
BRANCH   1  29
HETATM   29  N1  UNL     1      28.698  20.208  63.049  1.00  0.00    -0.234 N 
ATOM     30  H12 UNL     1      29.575  19.688  63.103  1.00  0.00     0.174 HD
ATOM     31  H11 UNL     1      28.685  21.185  62.758  1.00  0.00     0.174 HD
ENDBRANCH   1  29
TORSDOF 9
ENDMDL
MODEL 5
REMARK VINA RESULT: -6.352972091      1.458      1.522
REMARK  9 active torsions:
REMARK  status: ('A' for Active; 'I' for Inactive)
REMARK    1  A    between atoms: N1_1  and  C1_4 
REMARK    2  A    between atoms: C2_7  and  N3_8 
REMARK    3  A    between atoms: N3_8  and  C3_10 
REMARK    4  A    between atoms: C3_10  and  C4_11 
REMARK    5  A    between atoms: C4_11  and  O1_12 
REMARK    6  A    between atoms: N5_21  and  C8_22 
REMARK    7  A    between atoms: C8_22  and  C9_23 
REMARK    8  A    between atoms: C9_23  and  C10_24 
REMARK    9  A    between atoms: C10_24  and  N6_25 
ROOT
HETATM    1  C1  UNL     1      29.373  17.060  64.655  1.00  0.00     0.679 A 
HETATM    2  N2  UNL     1      29.177  18.342  65.012  1.00  0.00    -0.176 N 
ATOM      3  H2  UNL     1      29.840  18.825  65.617  1.00  0.00     0.186 HD
HETATM    4  C2  UNL     1      28.081  18.968  64.548  1.00  0.00     0.136 A 
HETATM    5  C5  UNL     1      27.167  18.306  63.716  1.00  0.00     0.121 A 
HETATM    6  C6  UNL     1      26.043  18.950  63.235  1.00  0.00     0.267 A 
HETATM    7  O2  UNL     1      25.847  20.147  63.560  1.00  0.00    -0.267 OA
HETATM    8  N4  UNL     1      25.175  18.283  62.423  1.00  0.00    -0.274 N 
ATOM      9  H4  UNL     1      24.346  18.760  62.069  1.00  0.00     0.173 HD
HETATM   10  C7  UNL     1      25.401  17.005  62.087  1.00  0.00     0.331 A 
HETATM   11  O3  UNL     1      24.582  16.416  61.337  1.00  0.00    -0.246 OA
HETATM   12  N5  UNL     1      26.507  16.357  62.556  1.00  0.00    -0.284 N 
HETATM   13  C11 UNL     1      27.384  16.995  63.361  1.00  0.00     0.146 A 
HETATM   14  N7  UNL     1      28.486  16.415  63.845  1.00  0.00    -0.175 N 
ATOM     15  H7  UNL     1      28.673  15.443  63.597  1.00  0.00     0.186 HD
ENDROOT
BRANCH  12  16
HETATM   16  C8  UNL     1      26.714  15.001  62.175  1.00  0.00     0.137 C 
BRANCH  16  17
HETATM   17  C9  UNL     1      27.652  14.815  61.020  1.00  0.00     0.048 C 
BRANCH  17  18
HETATM   18  C10 UNL     1      26.834  14.360  59.815  1.00  0.00     0.231 C 
BRANCH  18  19
HETATM   19  N6  UNL     1      25.532  13.893  60.177  1.00  0.00    -0.079 N 
ATOM     20  H63 UNL     1      24.814  14.566  59.911  1.00  0.00     0.274 HD
ATOM     21  H62 UNL     1      25.248  13.108  59.590  1.00  0.00     0.274 HD
ATOM     22  H61 UNL     1      25.460  13.654  61.166  1.00  0.00     0.274 HD
ENDBRANCH  18  19
ENDBRANCH  17  18
ENDBRANCH  16  17
ENDBRANCH  12  16
BRANCH   4  23
HETATM   23  N3  UNL     1      27.808  20.191  64.835  1.00  0.00    -0.373 N 
ATOM     24  H3  UNL     1      27.356  20.761  64.120  1.00  0.00     0.161 HD
BRANCH  23  25
HETATM   25  C3  UNL     1      28.101  20.808  66.103  1.00  0.00     0.147 C 
BRANCH  25  26
HETATM   26  C4  UNL     1      29.222  21.834  65.946  1.00  0.00     0.183 C 
BRANCH  26  27
HETATM   27  O1  UNL     1      28.663  23.086  65.699  1.00  0.00    -0.399 OA
ATOM     28  H1  UNL     1      27.784  23.110  66.058  1.00  0.00     0.209 HD
ENDBRANCH  26  27
ENDBRANCH  25  26
ENDBRANCH  23  25
ENDBRANCH   4  23
BRANCH   1  29
HETATM   29  N1  UNL     1      30.417  16.451  65.091  1.00  0.00    -0.234 N 
ATOM     30  H12 UNL     1      31.180  16.213  64.456  1.00  0.00     0.174 HD
ATOM     31  H11 UNL     1      30.466  16.212  66.081  1.00  0.00     0.174 HD
ENDBRANCH   1  29
TORSDOF 9
ENDMDL
