MODEL 1
REMARK VINA RESULT: -6.802776825      0.000      0.000
REMARK  8 active torsions:
REMARK  status: ('A' for Active; 'I' for Inactive)
REMARK    1  A    between atoms: C2_5  and  N2_6 
REMARK    2  A    between atoms: N2_6  and  C3_8 
REMARK    3  A    between atoms: C3_8  and  C4_9 
REMARK    4  A    between atoms: C4_9  and  C5_10 
REMARK    5  A    between atoms: C5_10  and  N3_11 
REMARK    6  A    between atoms: N3_11  and  C6_13 
REMARK    7  A    between atoms: C6_13  and  N4_15 
REMARK    8  A    between atoms: N4_15  and  O2_17 
ROOT
HETATM    1  O1  UNL     1      27.955  18.748  59.838  1.00  0.00    -0.246 OA
HETATM    2  C1  UNL     1      27.581  19.012  61.011  1.00  0.00     0.341 C 
HETATM    3  N1  UNL     1      26.452  18.449  61.479  1.00  0.00    -0.141 N 
ATOM      4  H1  UNL     1      25.857  18.023  60.767  1.00  0.00     0.189 HD
HETATM    5  C2  UNL     1      25.978  18.357  62.749  1.00  0.00     0.685 C 
HETATM    6  N5  UNL     1      26.571  18.719  63.906  1.00  0.00    -0.151 N 
ATOM      7  H5  UNL     1      26.205  18.325  64.772  1.00  0.00     0.188 HD
HETATM    8  C7  UNL     1      27.614  19.566  63.992  1.00  0.00     0.328 C 
HETATM    9  O3  UNL     1      27.915  19.864  65.172  1.00  0.00    -0.261 OA
HETATM   10  C8  UNL     1      28.383  20.139  62.974  1.00  0.00     0.318 C 
HETATM   11  O4  UNL     1      29.172  21.046  63.320  1.00  0.00    -0.262 OA
HETATM   12  N6  UNL     1      28.401  19.857  61.657  1.00  0.00    -0.270 N 
ATOM     13  H6  UNL     1      29.107  20.332  61.094  1.00  0.00     0.174 HD
ENDROOT
BRANCH   5  14
HETATM   14  N2  UNL     1      24.817  17.858  62.814  1.00  0.00    -0.226 N 
ATOM     15  H2  UNL     1      24.047  18.526  62.762  1.00  0.00     0.177 HD
BRANCH  14  16
HETATM   16  C3  UNL     1      24.442  16.503  62.947  1.00  0.00     0.139 C 
BRANCH  16  17
HETATM   17  C4  UNL     1      23.905  15.889  61.657  1.00  0.00     0.040 C 
BRANCH  17  18
HETATM   18  C5  UNL     1      24.487  14.498  61.556  1.00  0.00     0.123 C 
BRANCH  18  19
HETATM   19  N3  UNL     1      25.244  14.337  60.357  1.00  0.00    -0.366 N 
ATOM     20  H3  UNL     1      24.927  13.687  59.637  1.00  0.00     0.161 HD
BRANCH  19  21
HETATM   21  C6  UNL     1      26.432  15.080  60.165  1.00  0.00     0.191 C 
HETATM   22  S1  UNL     1      27.663  14.925  61.210  1.00  0.00    -0.039 SA
BRANCH  21  23
HETATM   23  N4  UNL     1      26.603  15.974  59.076  1.00  0.00    -0.244 N 
ATOM     24  H4  UNL     1      27.373  15.861  58.417  1.00  0.00     0.196 HD
BRANCH  23  25
HETATM   25  O2  UNL     1      25.714  16.977  58.943  1.00  0.00    -0.288 OA
ATOM     26  H2  UNL     1      25.661  17.617  59.643  1.00  0.00     0.244 HD
ENDBRANCH  23  25
ENDBRANCH  21  23
ENDBRANCH  19  21
ENDBRANCH  18  19
ENDBRANCH  17  18
ENDBRANCH  16  17
ENDBRANCH  14  16
ENDBRANCH   5  14
TORSDOF 8
ENDMDL
MODEL 2
REMARK VINA RESULT: -6.761248582      2.234      3.449
REMARK  8 active torsions:
REMARK  status: ('A' for Active; 'I' for Inactive)
REMARK    1  A    between atoms: C2_5  and  N2_6 
REMARK    2  A    between atoms: N2_6  and  C3_8 
REMARK    3  A    between atoms: C3_8  and  C4_9 
REMARK    4  A    between atoms: C4_9  and  C5_10 
REMARK    5  A    between atoms: C5_10  and  N3_11 
REMARK    6  A    between atoms: N3_11  and  C6_13 
REMARK    7  A    between atoms: C6_13  and  N4_15 
REMARK    8  A    between atoms: N4_15  and  O2_17 
ROOT
HETATM    1  O1  UNL     1      24.697  19.261  64.047  1.00  0.00    -0.246 OA
HETATM    2  C1  UNL     1      25.901  19.362  63.693  1.00  0.00     0.341 C 
HETATM    3  N1  UNL     1      26.203  19.298  62.382  1.00  0.00    -0.141 N 
ATOM      4  H1  UNL     1      25.454  18.945  61.785  1.00  0.00     0.189 HD
HETATM    5  C2  UNL     1      27.347  19.630  61.729  1.00  0.00     0.685 C 
HETATM    6  N5  UNL     1      28.462  20.217  62.212  1.00  0.00    -0.151 N 
ATOM      7  H5  UNL     1      29.100  20.648  61.543  1.00  0.00     0.188 HD
HETATM    8  C7  UNL     1      28.789  20.270  63.516  1.00  0.00     0.328 C 
HETATM    9  O3  UNL     1      29.932  20.742  63.723  1.00  0.00    -0.261 OA
HETATM   10  C8  UNL     1      28.046  19.883  64.637  1.00  0.00     0.318 C 
HETATM   11  O4  UNL     1      28.660  19.859  65.726  1.00  0.00    -0.262 OA
HETATM   12  N6  UNL     1      26.750  19.527  64.720  1.00  0.00    -0.270 N 
ATOM     13  H6  UNL     1      26.376  19.366  65.656  1.00  0.00     0.174 HD
ENDROOT
BRANCH   5  14
HETATM   14  N2  UNL     1      27.324  19.331  60.500  1.00  0.00    -0.226 N 
ATOM     15  H2  UNL     1      26.847  19.999  59.893  1.00  0.00     0.177 HD
BRANCH  14  16
HETATM   16  C3  UNL     1      27.868  18.199  59.853  1.00  0.00     0.139 C 
BRANCH  16  17
HETATM   17  C4  UNL     1      26.825  17.344  59.138  1.00  0.00     0.040 C 
BRANCH  17  18
HETATM   18  C5  UNL     1      26.199  16.449  60.182  1.00  0.00     0.123 C 
BRANCH  18  19
HETATM   19  N3  UNL     1      24.799  16.696  60.304  1.00  0.00    -0.366 N 
ATOM     20  H3  UNL     1      24.307  17.218  59.578  1.00  0.00     0.161 HD
BRANCH  19  21
HETATM   21  C6  UNL     1      24.091  16.215  61.430  1.00  0.00     0.191 C 
HETATM   22  S1  UNL     1      24.041  14.624  61.738  1.00  0.00    -0.039 SA
BRANCH  21  23
HETATM   23  N4  UNL     1      23.408  17.080  62.325  1.00  0.00    -0.244 N 
ATOM     24  H4  UNL     1      22.984  17.948  61.998  1.00  0.00     0.196 HD
BRANCH  23  25
HETATM   25  O2  UNL     1      23.339  16.715  63.619  1.00  0.00    -0.288 OA
ATOM     26  H2  UNL     1      22.581  16.215  63.898  1.00  0.00     0.244 HD
ENDBRANCH  23  25
ENDBRANCH  21  23
ENDBRANCH  19  21
ENDBRANCH  18  19
ENDBRANCH  17  18
ENDBRANCH  16  17
ENDBRANCH  14  16
ENDBRANCH   5  14
TORSDOF 8
ENDMDL
MODEL 3
REMARK VINA RESULT: -6.660648441      2.255      3.050
REMARK  8 active torsions:
REMARK  status: ('A' for Active; 'I' for Inactive)
REMARK    1  A    between atoms: C2_5  and  N2_6 
REMARK    2  A    between atoms: N2_6  and  C3_8 
REMARK    3  A    between atoms: C3_8  and  C4_9 
REMARK    4  A    between atoms: C4_9  and  C5_10 
REMARK    5  A    between atoms: C5_10  and  N3_11 
REMARK    6  A    between atoms: N3_11  and  C6_13 
REMARK    7  A    between atoms: C6_13  and  N4_15 
REMARK    8  A    between atoms: N4_15  and  O2_17 
ROOT
HETATM    1  O1  UNL     1      27.623  17.922  64.409  1.00  0.00    -0.246 OA
HETATM    2  C1  UNL     1      26.411  18.208  64.225  1.00  0.00     0.341 C 
HETATM    3  N1  UNL     1      25.595  17.281  63.688  1.00  0.00    -0.141 N 
ATOM      4  H1  UNL     1      26.071  16.487  63.259  1.00  0.00     0.189 HD
HETATM    5  C2  UNL     1      24.239  17.236  63.629  1.00  0.00     0.685 C 
HETATM    6  N5  UNL     1      23.335  18.066  64.190  1.00  0.00    -0.151 N 
ATOM      7  H5  UNL     1      22.376  17.730  64.285  1.00  0.00     0.188 HD
HETATM    8  C7  UNL     1      23.613  19.306  64.632  1.00  0.00     0.328 C 
HETATM    9  O3  UNL     1      22.596  19.946  64.989  1.00  0.00    -0.261 OA
HETATM   10  C8  UNL     1      24.847  19.956  64.743  1.00  0.00     0.318 C 
HETATM   11  O4  UNL     1      24.807  21.178  65.002  1.00  0.00    -0.262 OA
HETATM   12  N6  UNL     1      26.091  19.455  64.609  1.00  0.00    -0.270 N 
ATOM     13  H6  UNL     1      26.865  20.084  64.821  1.00  0.00     0.174 HD
ENDROOT
BRANCH   5  14
HETATM   14  N2  UNL     1      23.802  16.266  62.943  1.00  0.00    -0.226 N 
ATOM     15  H2  UNL     1      23.399  15.495  63.476  1.00  0.00     0.177 HD
BRANCH  14  16
HETATM   16  C3  UNL     1      23.797  16.106  61.540  1.00  0.00     0.139 C 
BRANCH  16  17
HETATM   17  C4  UNL     1      24.167  14.696  61.085  1.00  0.00     0.040 C 
BRANCH  17  18
HETATM   18  C5  UNL     1      25.675  14.611  61.098  1.00  0.00     0.123 C 
BRANCH  18  19
HETATM   19  N3  UNL     1      26.227  14.980  59.835  1.00  0.00    -0.366 N 
ATOM     20  H3  UNL     1      26.320  14.283  59.096  1.00  0.00     0.161 HD
BRANCH  19  21
HETATM   21  C6  UNL     1      26.644  16.312  59.607  1.00  0.00     0.191 C 
HETATM   22  S1  UNL     1      27.585  17.064  60.693  1.00  0.00    -0.039 SA
BRANCH  21  23
HETATM   23  N4  UNL     1      26.270  17.038  58.447  1.00  0.00    -0.244 N 
ATOM     24  H4  UNL     1      25.974  18.012  58.507  1.00  0.00     0.196 HD
BRANCH  23  25
HETATM   25  O2  UNL     1      26.318  16.397  57.263  1.00  0.00    -0.288 OA
ATOM     26  H2  UNL     1      25.495  16.131  56.871  1.00  0.00     0.244 HD
ENDBRANCH  23  25
ENDBRANCH  21  23
ENDBRANCH  19  21
ENDBRANCH  18  19
ENDBRANCH  17  18
ENDBRANCH  16  17
ENDBRANCH  14  16
ENDBRANCH   5  14
TORSDOF 8
ENDMDL
MODEL 4
REMARK VINA RESULT: -6.619531327      2.269      3.357
REMARK  8 active torsions:
REMARK  status: ('A' for Active; 'I' for Inactive)
REMARK    1  A    between atoms: C2_5  and  N2_6 
REMARK    2  A    between atoms: N2_6  and  C3_8 
REMARK    3  A    between atoms: C3_8  and  C4_9 
REMARK    4  A    between atoms: C4_9  and  C5_10 
REMARK    5  A    between atoms: C5_10  and  N3_11 
REMARK    6  A    between atoms: N3_11  and  C6_13 
REMARK    7  A    between atoms: C6_13  and  N4_15 
REMARK    8  A    between atoms: N4_15  and  O2_17 
ROOT
HETATM    1  O1  UNL     1      25.659  19.905  63.378  1.00  0.00    -0.246 OA
HETATM    2  C1  UNL     1      26.651  19.320  62.869  1.00  0.00     0.341 C 
HETATM    3  N1  UNL     1      26.561  18.858  61.608  1.00  0.00    -0.141 N 
ATOM      4  H1  UNL     1      25.613  18.814  61.234  1.00  0.00     0.189 HD
HETATM    5  C2  UNL     1      27.532  18.439  60.756  1.00  0.00     0.685 C 
HETATM    6  N5  UNL     1      28.873  18.475  60.910  1.00  0.00    -0.151 N 
ATOM      7  H5  UNL     1      29.450  18.390  60.074  1.00  0.00     0.188 HD
HETATM    8  C7  UNL     1      29.497  18.615  62.094  1.00  0.00     0.328 C 
HETATM    9  O3  UNL     1      30.742  18.485  62.017  1.00  0.00    -0.261 OA
HETATM   10  C8  UNL     1      28.961  18.879  63.359  1.00  0.00     0.318 C 
HETATM   11  O4  UNL     1      29.745  18.767  64.326  1.00  0.00    -0.262 OA
HETATM   12  N6  UNL     1      27.707  19.239  63.696  1.00  0.00    -0.270 N 
ATOM     13  H6  UNL     1      27.543  19.474  64.675  1.00  0.00     0.174 HD
ENDROOT
BRANCH   5  14
HETATM   14  N2  UNL     1      27.077  17.956  59.679  1.00  0.00    -0.226 N 
ATOM     15  H2  UNL     1      26.987  18.614  58.904  1.00  0.00     0.177 HD
BRANCH  14  16
HETATM   16  C3  UNL     1      26.675  16.630  59.404  1.00  0.00     0.139 C 
BRANCH  16  17
HETATM   17  C4  UNL     1      27.403  15.584  60.245  1.00  0.00     0.040 C 
BRANCH  17  18
HETATM   18  C5  UNL     1      26.574  14.322  60.191  1.00  0.00     0.123 C 
BRANCH  18  19
HETATM   19  N3  UNL     1      25.180  14.613  60.285  1.00  0.00    -0.366 N 
ATOM     20  H3  UNL     1      24.653  14.865  59.448  1.00  0.00     0.161 HD
BRANCH  19  21
HETATM   21  C6  UNL     1      24.527  14.550  61.538  1.00  0.00     0.191 C 
HETATM   22  S1  UNL     1      24.281  15.906  62.394  1.00  0.00    -0.039 SA
BRANCH  21  23
HETATM   23  N4  UNL     1      24.066  13.329  62.095  1.00  0.00    -0.244 N 
ATOM     24  H4  UNL     1      24.655  12.779  62.720  1.00  0.00     0.196 HD
BRANCH  23  25
HETATM   25  O2  UNL     1      22.824  12.921  61.770  1.00  0.00    -0.288 OA
ATOM     26  H2  UNL     1      22.740  12.128  61.254  1.00  0.00     0.244 HD
ENDBRANCH  23  25
ENDBRANCH  21  23
ENDBRANCH  19  21
ENDBRANCH  18  19
ENDBRANCH  17  18
ENDBRANCH  16  17
ENDBRANCH  14  16
ENDBRANCH   5  14
TORSDOF 8
ENDMDL
MODEL 5
REMARK VINA RESULT: -6.499643152      2.221      2.869
REMARK  8 active torsions:
REMARK  status: ('A' for Active; 'I' for Inactive)
REMARK    1  A    between atoms: C2_5  and  N2_6 
REMARK    2  A    between atoms: N2_6  and  C3_8 
REMARK    3  A    between atoms: C3_8  and  C4_9 
REMARK    4  A    between atoms: C4_9  and  C5_10 
REMARK    5  A    between atoms: C5_10  and  N3_11 
REMARK    6  A    between atoms: N3_11  and  C6_13 
REMARK    7  A    between atoms: C6_13  and  N4_15 
REMARK    8  A    between atoms: N4_15  and  O2_17 
ROOT
HETATM    1  O1  UNL     1      31.510  17.687  62.743  1.00  0.00    -0.246 OA
HETATM    2  C1  UNL     1      30.341  18.012  62.408  1.00  0.00     0.341 C 
HETATM    3  N1  UNL     1      29.552  17.094  61.819  1.00  0.00    -0.141 N 
ATOM      4  H1  UNL     1      30.038  16.264  61.480  1.00  0.00     0.189 HD
HETATM    5  C2  UNL     1      28.210  17.099  61.604  1.00  0.00     0.685 C 
HETATM    6  N5  UNL     1      27.285  17.988  62.023  1.00  0.00    -0.151 N 
ATOM      7  H5  UNL     1      26.308  17.695  62.020  1.00  0.00     0.188 HD
HETATM    8  C7  UNL     1      27.566  19.235  62.444  1.00  0.00     0.328 C 
HETATM    9  O3  UNL     1      26.544  19.930  62.655  1.00  0.00    -0.261 OA
HETATM   10  C8  UNL     1      28.807  19.841  62.671  1.00  0.00     0.318 C 
HETATM   11  O4  UNL     1      28.791  21.074  62.874  1.00  0.00    -0.262 OA
HETATM   12  N6  UNL     1      30.034  19.286  62.702  1.00  0.00    -0.270 N 
ATOM     13  H6  UNL     1      30.807  19.893  62.977  1.00  0.00     0.174 HD
ENDROOT
BRANCH   5  14
HETATM   14  N2  UNL     1      27.812  16.118  60.912  1.00  0.00    -0.226 N 
ATOM     15  H2  UNL     1      27.348  16.357  60.035  1.00  0.00     0.177 HD
BRANCH  14  16
HETATM   16  C3  UNL     1      27.923  14.737  61.188  1.00  0.00     0.139 C 
BRANCH  16  17
HETATM   17  C4  UNL     1      26.757  13.912  60.650  1.00  0.00     0.040 C 
BRANCH  17  18
HETATM   18  C5  UNL     1      25.751  13.790  61.771  1.00  0.00     0.123 C 
BRANCH  18  19
HETATM   19  N3  UNL     1      24.484  14.326  61.392  1.00  0.00    -0.366 N 
ATOM     20  H3  UNL     1      23.742  13.704  61.071  1.00  0.00     0.161 HD
BRANCH  19  21
HETATM   21  C6  UNL     1      24.257  15.721  61.462  1.00  0.00     0.191 C 
HETATM   22  S1  UNL     1      24.100  16.446  62.904  1.00  0.00    -0.039 SA
BRANCH  21  23
HETATM   23  N4  UNL     1      24.158  16.534  60.303  1.00  0.00    -0.244 N 
ATOM     24  H4  UNL     1      23.251  16.817  59.933  1.00  0.00     0.196 HD
BRANCH  23  25
HETATM   25  O2  UNL     1      25.304  16.919  59.708  1.00  0.00    -0.288 OA
ATOM     26  H2  UNL     1      25.872  17.512  60.186  1.00  0.00     0.244 HD
ENDBRANCH  23  25
ENDBRANCH  21  23
ENDBRANCH  19  21
ENDBRANCH  18  19
ENDBRANCH  17  18
ENDBRANCH  16  17
ENDBRANCH  14  16
ENDBRANCH   5  14
TORSDOF 8
ENDMDL
