MODEL 1
REMARK VINA RESULT: -6.708881342      0.000      0.000
REMARK  9 active torsions:
REMARK  status: ('A' for Active; 'I' for Inactive)
REMARK    1  A    between atoms: C3_5  and  N2_6 
REMARK    2  A    between atoms: N2_6  and  C4_8 
REMARK    3  A    between atoms: C4_8  and  C5_9 
REMARK    4  A    between atoms: C5_9  and  C6_10 
REMARK    5  A    between atoms: C6_10  and  N3_11 
REMARK    6  A    between atoms: N3_11  and  C7_13 
REMARK    7  A    between atoms: C7_13  and  C8_14 
REMARK    8  A    between atoms: C8_14  and  N4_15 
REMARK    9  A    between atoms: C10_25  and  N8_26 
ROOT
HETATM    1  C7  UNL     1      28.673  18.959  64.098  1.00  0.00     0.111 C 
HETATM    2  N5  UNL     1      28.972  17.990  63.309  1.00  0.00    -0.282 N 
ATOM      3  H5  UNL     1      29.726  18.111  62.633  1.00  0.00     0.179 HD
HETATM    4  C9  UNL     1      28.294  16.785  63.358  1.00  0.00     0.183 C 
HETATM    5  N6  UNL     1      27.706  15.778  63.396  1.00  0.00    -0.172 NA
ENDROOT
BRANCH   1   6
HETATM    6  N3  UNL     1      27.622  18.766  65.030  1.00  0.00    -0.378 N 
ATOM      7  H3  UNL     1      27.648  17.976  65.675  1.00  0.00     0.160 HD
BRANCH   6   8
HETATM    8  C6  UNL     1      26.520  19.690  65.061  1.00  0.00     0.122 C 
BRANCH   8   9
HETATM    9  C5  UNL     1      25.540  19.359  63.994  1.00  0.00     0.040 C 
BRANCH   9  10
HETATM   10  C4  UNL     1      24.963  17.969  64.248  1.00  0.00     0.139 C 
BRANCH  10  11
HETATM   11  N2  UNL     1      24.179  17.623  63.112  1.00  0.00    -0.225 N 
ATOM     12  H2  UNL     1      23.283  18.104  63.034  1.00  0.00     0.177 HD
BRANCH  11  13
HETATM   13  C3  UNL     1      24.438  16.798  62.180  1.00  0.00     0.693 C 
HETATM   14  N1  UNL     1      25.369  17.179  61.274  1.00  0.00    -0.190 N 
HETATM   15  C2  UNL     1      26.074  16.400  60.399  1.00  0.00     0.091 C 
ATOM     16  H1  UNL     1      25.571  18.178  61.240  1.00  0.00     0.184 HD
HETATM   17  C1  UNL     1      27.068  17.121  59.548  1.00  0.00     0.075 C 
HETATM   18  C11 UNL     1      25.968  15.038  60.218  1.00  0.00     0.282 C 
HETATM   19  N9  UNL     1      25.127  14.176  60.802  1.00  0.00    -0.154 N 
HETATM   20  O1  UNL     1      26.795  14.579  59.378  1.00  0.00    -0.266 OA
HETATM   21  C10 UNL     1      24.144  14.448  61.689  1.00  0.00     0.693 C 
ATOM     22  H9  UNL     1      25.242  13.195  60.546  1.00  0.00     0.187 HD
HETATM   23  N7  UNL     1      23.763  15.640  62.192  1.00  0.00    -0.023 N 
ATOM     24  H7  UNL     1      22.846  15.664  62.639  1.00  0.00     0.203 HD
BRANCH  21  25
HETATM   25  N8  UNL     1      23.473  13.438  62.120  1.00  0.00    -0.234 N 
ATOM     26  H82 UNL     1      22.469  13.459  61.945  1.00  0.00     0.174 HD
ATOM     27  H81 UNL     1      24.027  12.723  62.592  1.00  0.00     0.174 HD
ENDBRANCH  21  25
ENDBRANCH  11  13
ENDBRANCH  10  11
ENDBRANCH   9  10
ENDBRANCH   8   9
ENDBRANCH   6   8
ENDBRANCH   1   6
BRANCH   1  28
HETATM   28  C8  UNL     1      29.385  20.260  64.065  1.00  0.00     0.306 C 
BRANCH  28  29
HETATM   29  N4  UNL     1      29.467  20.715  62.693  1.00  0.00    -0.073 N 
ATOM     30  H43 UNL     1      29.654  19.953  62.041  1.00  0.00     0.274 HD
ATOM     31  H42 UNL     1      28.560  21.000  62.322  1.00  0.00     0.274 HD
ATOM     32  H41 UNL     1      30.163  21.458  62.632  1.00  0.00     0.274 HD
ENDBRANCH  28  29
ENDBRANCH   1  28
TORSDOF 9
ENDMDL
MODEL 2
REMARK VINA RESULT: -6.624472411      2.554      6.015
REMARK  9 active torsions:
REMARK  status: ('A' for Active; 'I' for Inactive)
REMARK    1  A    between atoms: C3_5  and  N2_6 
REMARK    2  A    between atoms: N2_6  and  C4_8 
REMARK    3  A    between atoms: C4_8  and  C5_9 
REMARK    4  A    between atoms: C5_9  and  C6_10 
REMARK    5  A    between atoms: C6_10  and  N3_11 
REMARK    6  A    between atoms: N3_11  and  C7_13 
REMARK    7  A    between atoms: C7_13  and  C8_14 
REMARK    8  A    between atoms: C8_14  and  N4_15 
REMARK    9  A    between atoms: C10_25  and  N8_26 
ROOT
HETATM    1  C7  UNL     1      25.529  15.268  60.725  1.00  0.00     0.111 C 
HETATM    2  N5  UNL     1      24.880  15.228  61.834  1.00  0.00    -0.282 N 
ATOM      3  H5  UNL     1      24.896  14.373  62.390  1.00  0.00     0.179 HD
HETATM    4  C9  UNL     1      24.160  16.318  62.289  1.00  0.00     0.183 C 
HETATM    5  N6  UNL     1      23.544  17.238  62.656  1.00  0.00    -0.172 NA
ENDROOT
BRANCH   1   6
HETATM    6  N3  UNL     1      25.492  16.468  59.970  1.00  0.00    -0.378 N 
ATOM      7  H3  UNL     1      24.627  17.003  59.900  1.00  0.00     0.160 HD
BRANCH   6   8
HETATM    8  C6  UNL     1      26.682  16.925  59.304  1.00  0.00     0.122 C 
BRANCH   8   9
HETATM    9  C5  UNL     1      27.641  17.489  60.290  1.00  0.00     0.040 C 
BRANCH   9  10
HETATM   10  C4  UNL     1      27.840  18.975  60.012  1.00  0.00     0.139 C 
BRANCH  10  11
HETATM   11  N2  UNL     1      27.129  19.693  61.015  1.00  0.00    -0.225 N 
ATOM     12  H2  UNL     1      26.484  20.403  60.671  1.00  0.00     0.177 HD
BRANCH  11  13
HETATM   13  C3  UNL     1      27.186  19.572  62.279  1.00  0.00     0.693 C 
HETATM   14  N1  UNL     1      28.408  19.706  62.847  1.00  0.00    -0.190 N 
HETATM   15  C2  UNL     1      28.715  19.957  64.155  1.00  0.00     0.091 C 
ATOM     16  H1  UNL     1      29.203  19.605  62.216  1.00  0.00     0.184 HD
HETATM   17  C1  UNL     1      30.170  20.090  64.463  1.00  0.00     0.075 C 
HETATM   18  C11 UNL     1      27.838  20.099  65.209  1.00  0.00     0.282 C 
HETATM   19  N9  UNL     1      26.506  19.971  65.216  1.00  0.00    -0.154 N 
HETATM   20  O1  UNL     1      28.409  20.390  66.299  1.00  0.00    -0.266 OA
HETATM   21  C10 UNL     1      25.700  19.628  64.186  1.00  0.00     0.693 C 
ATOM     22  H9  UNL     1      26.042  20.153  66.107  1.00  0.00     0.187 HD
HETATM   23  N7  UNL     1      26.033  19.323  62.915  1.00  0.00    -0.023 N 
ATOM     24  H7  UNL     1      25.317  18.844  62.368  1.00  0.00     0.203 HD
BRANCH  21  25
HETATM   25  N8  UNL     1      24.440  19.583  64.443  1.00  0.00    -0.234 N 
ATOM     26  H82 UNL     1      24.142  18.871  65.109  1.00  0.00     0.174 HD
ATOM     27  H81 UNL     1      23.875  20.272  63.946  1.00  0.00     0.174 HD
ENDBRANCH  21  25
ENDBRANCH  11  13
ENDBRANCH  10  11
ENDBRANCH   9  10
ENDBRANCH   8   9
ENDBRANCH   6   8
ENDBRANCH   1   6
BRANCH   1  28
HETATM   28  C8  UNL     1      26.307  14.113  60.216  1.00  0.00     0.306 C 
BRANCH  28  29
HETATM   29  N4  UNL     1      27.428  13.876  61.103  1.00  0.00    -0.073 N 
ATOM     30  H43 UNL     1      28.295  13.705  60.595  1.00  0.00     0.274 HD
ATOM     31  H42 UNL     1      27.716  14.720  61.598  1.00  0.00     0.274 HD
ATOM     32  H41 UNL     1      27.192  13.113  61.737  1.00  0.00     0.274 HD
ENDBRANCH  28  29
ENDBRANCH   1  28
TORSDOF 9
ENDMDL
MODEL 3
REMARK VINA RESULT: -6.615194013      1.747      3.294
REMARK  9 active torsions:
REMARK  status: ('A' for Active; 'I' for Inactive)
REMARK    1  A    between atoms: C3_5  and  N2_6 
REMARK    2  A    between atoms: N2_6  and  C4_8 
REMARK    3  A    between atoms: C4_8  and  C5_9 
REMARK    4  A    between atoms: C5_9  and  C6_10 
REMARK    5  A    between atoms: C6_10  and  N3_11 
REMARK    6  A    between atoms: N3_11  and  C7_13 
REMARK    7  A    between atoms: C7_13  and  C8_14 
REMARK    8  A    between atoms: C8_14  and  N4_15 
REMARK    9  A    between atoms: C10_25  and  N8_26 
ROOT
HETATM    1  C7  UNL     1      27.123  18.754  65.145  1.00  0.00     0.111 C 
HETATM    2  N5  UNL     1      25.838  18.732  65.144  1.00  0.00    -0.282 N 
ATOM      3  H5  UNL     1      25.354  17.873  65.405  1.00  0.00     0.179 HD
HETATM    4  C9  UNL     1      25.097  19.848  64.798  1.00  0.00     0.183 C 
HETATM    5  N6  UNL     1      24.482  20.789  64.491  1.00  0.00    -0.172 NA
ENDROOT
BRANCH   1   6
HETATM    6  N3  UNL     1      27.773  19.960  64.780  1.00  0.00    -0.378 N 
ATOM      7  H3  UNL     1      27.428  20.855  65.128  1.00  0.00     0.160 HD
BRANCH   6   8
HETATM    8  C6  UNL     1      28.922  19.915  63.915  1.00  0.00     0.122 C 
BRANCH   8   9
HETATM    9  C5  UNL     1      28.519  20.176  62.508  1.00  0.00     0.040 C 
BRANCH   9  10
HETATM   10  C4  UNL     1      28.394  18.851  61.761  1.00  0.00     0.139 C 
BRANCH  10  11
HETATM   11  N2  UNL     1      27.019  18.674  61.440  1.00  0.00    -0.225 N 
ATOM     12  H2  UNL     1      26.521  19.520  61.166  1.00  0.00     0.177 HD
BRANCH  11  13
HETATM   13  C3  UNL     1      26.326  17.609  61.446  1.00  0.00     0.693 C 
HETATM   14  N1  UNL     1      26.941  16.482  61.015  1.00  0.00    -0.190 N 
HETATM   15  C2  UNL     1      26.576  15.181  61.221  1.00  0.00     0.091 C 
ATOM     16  H1  UNL     1      27.788  16.623  60.463  1.00  0.00     0.184 HD
HETATM   17  C1  UNL     1      27.493  14.153  60.644  1.00  0.00     0.075 C 
HETATM   18  C11 UNL     1      25.466  14.719  61.895  1.00  0.00     0.282 C 
HETATM   19  N9  UNL     1      24.469  15.419  62.449  1.00  0.00    -0.154 N 
HETATM   20  O1  UNL     1      25.421  13.459  61.980  1.00  0.00    -0.266 OA
HETATM   21  C10 UNL     1      24.293  16.760  62.443  1.00  0.00     0.693 C 
ATOM     22  H9  UNL     1      23.755  14.875  62.934  1.00  0.00     0.187 HD
HETATM   23  N7  UNL     1      25.061  17.713  61.876  1.00  0.00    -0.023 N 
ATOM     24  H7  UNL     1      24.625  18.628  61.761  1.00  0.00     0.203 HD
BRANCH  21  25
HETATM   25  N8  UNL     1      23.252  17.198  63.060  1.00  0.00    -0.234 N 
ATOM     26  H82 UNL     1      22.694  17.892  62.563  1.00  0.00     0.174 HD
ATOM     27  H81 UNL     1      23.101  16.797  63.986  1.00  0.00     0.174 HD
ENDBRANCH  21  25
ENDBRANCH  11  13
ENDBRANCH  10  11
ENDBRANCH   9  10
ENDBRANCH   8   9
ENDBRANCH   6   8
ENDBRANCH   1   6
BRANCH   1  28
HETATM   28  C8  UNL     1      27.939  17.571  65.511  1.00  0.00     0.306 C 
BRANCH  28  29
HETATM   29  N4  UNL     1      27.666  16.504  64.571  1.00  0.00    -0.073 N 
ATOM     30  H43 UNL     1      27.354  15.650  65.032  1.00  0.00     0.274 HD
ATOM     31  H42 UNL     1      26.829  16.680  64.015  1.00  0.00     0.274 HD
ATOM     32  H41 UNL     1      28.493  16.354  63.992  1.00  0.00     0.274 HD
ENDBRANCH  28  29
ENDBRANCH   1  28
TORSDOF 9
ENDMDL
MODEL 4
REMARK VINA RESULT: -6.547743135      1.709      3.109
REMARK  9 active torsions:
REMARK  status: ('A' for Active; 'I' for Inactive)
REMARK    1  A    between atoms: C3_5  and  N2_6 
REMARK    2  A    between atoms: N2_6  and  C4_8 
REMARK    3  A    between atoms: C4_8  and  C5_9 
REMARK    4  A    between atoms: C5_9  and  C6_10 
REMARK    5  A    between atoms: C6_10  and  N3_11 
REMARK    6  A    between atoms: N3_11  and  C7_13 
REMARK    7  A    between atoms: C7_13  and  C8_14 
REMARK    8  A    between atoms: C8_14  and  N4_15 
REMARK    9  A    between atoms: C10_25  and  N8_26 
ROOT
HETATM    1  C7  UNL     1      28.788  20.153  64.756  1.00  0.00     0.111 C 
HETATM    2  N5  UNL     1      27.617  19.970  65.255  1.00  0.00    -0.282 N 
ATOM      3  H5  UNL     1      27.517  19.863  66.264  1.00  0.00     0.179 HD
HETATM    4  C9  UNL     1      26.491  19.916  64.453  1.00  0.00     0.183 C 
HETATM    5  N6  UNL     1      25.550  19.856  63.767  1.00  0.00    -0.172 NA
ENDROOT
BRANCH   1   6
HETATM    6  N3  UNL     1      28.901  20.300  63.350  1.00  0.00    -0.378 N 
ATOM      7  H3  UNL     1      28.395  21.044  62.869  1.00  0.00     0.160 HD
BRANCH   6   8
HETATM    8  C6  UNL     1      29.735  19.394  62.606  1.00  0.00     0.122 C 
BRANCH   8   9
HETATM    9  C5  UNL     1      28.963  18.186  62.216  1.00  0.00     0.040 C 
BRANCH   9  10
HETATM   10  C4  UNL     1      28.282  18.429  60.873  1.00  0.00     0.139 C 
BRANCH  10  11
HETATM   11  N2  UNL     1      26.878  18.433  61.104  1.00  0.00    -0.225 N 
ATOM     12  H2  UNL     1      26.448  19.355  61.170  1.00  0.00     0.177 HD
BRANCH  11  13
HETATM   13  C3  UNL     1      26.086  17.448  61.240  1.00  0.00     0.693 C 
HETATM   14  N1  UNL     1      26.486  16.269  60.709  1.00  0.00    -0.190 N 
HETATM   15  C2  UNL     1      26.025  15.012  60.983  1.00  0.00     0.091 C 
ATOM     16  H1  UNL     1      27.230  16.326  60.012  1.00  0.00     0.184 HD
HETATM   17  C1  UNL     1      26.706  13.900  60.253  1.00  0.00     0.075 C 
HETATM   18  C11 UNL     1      25.012  14.661  61.849  1.00  0.00     0.282 C 
HETATM   19  N9  UNL     1      24.214  15.456  62.572  1.00  0.00    -0.154 N 
HETATM   20  O1  UNL     1      24.846  13.412  61.946  1.00  0.00    -0.266 OA
HETATM   21  C10 UNL     1      24.187  16.807  62.593  1.00  0.00     0.693 C 
ATOM     22  H9  UNL     1      23.544  14.985  63.182  1.00  0.00     0.187 HD
HETATM   23  N7  UNL     1      24.939  17.681  61.893  1.00  0.00    -0.023 N 
ATOM     24  H7  UNL     1      24.591  18.640  61.855  1.00  0.00     0.203 HD
BRANCH  21  25
HETATM   25  N8  UNL     1      23.328  17.345  63.388  1.00  0.00    -0.234 N 
ATOM     26  H82 UNL     1      23.489  17.204  64.384  1.00  0.00     0.174 HD
ATOM     27  H81 UNL     1      22.576  17.857  62.925  1.00  0.00     0.174 HD
ENDBRANCH  21  25
ENDBRANCH  11  13
ENDBRANCH  10  11
ENDBRANCH   9  10
ENDBRANCH   8   9
ENDBRANCH   6   8
ENDBRANCH   1   6
BRANCH   1  28
HETATM   28  C8  UNL     1      30.009  20.215  65.594  1.00  0.00     0.306 C 
BRANCH  28  29
HETATM   29  N4  UNL     1      30.642  21.504  65.406  1.00  0.00    -0.073 N 
ATOM     30  H43 UNL     1      30.269  22.216  66.034  1.00  0.00     0.274 HD
ATOM     31  H42 UNL     1      31.608  21.515  65.735  1.00  0.00     0.274 HD
ATOM     32  H41 UNL     1      30.562  21.771  64.425  1.00  0.00     0.274 HD
ENDBRANCH  28  29
ENDBRANCH   1  28
TORSDOF 9
ENDMDL
MODEL 5
REMARK VINA RESULT: -6.535117338      2.314      5.389
REMARK  9 active torsions:
REMARK  status: ('A' for Active; 'I' for Inactive)
REMARK    1  A    between atoms: C3_5  and  N2_6 
REMARK    2  A    between atoms: N2_6  and  C4_8 
REMARK    3  A    between atoms: C4_8  and  C5_9 
REMARK    4  A    between atoms: C5_9  and  C6_10 
REMARK    5  A    between atoms: C6_10  and  N3_11 
REMARK    6  A    between atoms: N3_11  and  C7_13 
REMARK    7  A    between atoms: C7_13  and  C8_14 
REMARK    8  A    between atoms: C8_14  and  N4_15 
REMARK    9  A    between atoms: C10_25  and  N8_26 
ROOT
HETATM    1  C7  UNL     1      26.070  14.929  60.907  1.00  0.00     0.111 C 
HETATM    2  N5  UNL     1      27.065  15.508  60.334  1.00  0.00    -0.282 N 
ATOM      3  H5  UNL     1      28.014  15.220  60.574  1.00  0.00     0.179 HD
HETATM    4  C9  UNL     1      26.877  16.511  59.401  1.00  0.00     0.183 C 
HETATM    5  N6  UNL     1      26.709  17.366  58.626  1.00  0.00    -0.172 NA
ENDROOT
BRANCH   1   6
HETATM    6  N3  UNL     1      24.760  15.346  60.556  1.00  0.00    -0.378 N 
ATOM      7  H3  UNL     1      24.229  14.830  59.855  1.00  0.00     0.160 HD
BRANCH   6   8
HETATM    8  C6  UNL     1      24.187  16.500  61.195  1.00  0.00     0.122 C 
BRANCH   8   9
HETATM    9  C5  UNL     1      23.993  16.243  62.646  1.00  0.00     0.040 C 
BRANCH   9  10
HETATM   10  C4  UNL     1      24.552  17.414  63.448  1.00  0.00     0.139 C 
BRANCH  10  11
HETATM   11  N2  UNL     1      25.919  17.126  63.721  1.00  0.00    -0.225 N 
ATOM     12  H2  UNL     1      26.085  16.327  64.332  1.00  0.00     0.177 HD
BRANCH  11  13
HETATM   13  C3  UNL     1      26.961  17.726  63.309  1.00  0.00     0.693 C 
HETATM   14  N1  UNL     1      28.149  17.251  63.752  1.00  0.00    -0.190 N 
HETATM   15  C2  UNL     1      29.397  17.463  63.234  1.00  0.00     0.091 C 
ATOM     16  H1  UNL     1      28.108  16.657  64.580  1.00  0.00     0.184 HD
HETATM   17  C1  UNL     1      30.514  16.760  63.933  1.00  0.00     0.075 C 
HETATM   18  C11 UNL     1      29.732  18.246  62.151  1.00  0.00     0.282 C 
HETATM   19  N9  UNL     1      28.941  19.017  61.396  1.00  0.00    -0.154 N 
HETATM   20  O1  UNL     1      30.963  18.203  61.864  1.00  0.00    -0.266 OA
HETATM   21  C10 UNL     1      27.617  19.243  61.544  1.00  0.00     0.693 C 
ATOM     22  H9  UNL     1      29.392  19.492  60.613  1.00  0.00     0.187 HD
HETATM   23  N7  UNL     1      26.775  18.764  62.483  1.00  0.00    -0.023 N 
ATOM     24  H7  UNL     1      25.884  19.254  62.576  1.00  0.00     0.203 HD
BRANCH  21  25
HETATM   25  N8  UNL     1      27.073  20.022  60.675  1.00  0.00    -0.234 N 
ATOM     26  H82 UNL     1      27.360  21.000  60.706  1.00  0.00     0.174 HD
ATOM     27  H81 UNL     1      26.411  19.568  60.046  1.00  0.00     0.174 HD
ENDBRANCH  21  25
ENDBRANCH  11  13
ENDBRANCH  10  11
ENDBRANCH   9  10
ENDBRANCH   8   9
ENDBRANCH   6   8
ENDBRANCH   1   6
BRANCH   1  28
HETATM   28  C8  UNL     1      26.245  13.852  61.910  1.00  0.00     0.306 C 
BRANCH  28  29
HETATM   29  N4  UNL     1      25.096  12.972  61.859  1.00  0.00    -0.073 N 
ATOM     30  H43 UNL     1      24.374  13.312  61.224  1.00  0.00     0.274 HD
ATOM     31  H42 UNL     1      25.301  12.092  61.384  1.00  0.00     0.274 HD
ATOM     32  H41 UNL     1      24.746  12.830  62.806  1.00  0.00     0.274 HD
ENDBRANCH  28  29
ENDBRANCH   1  28
TORSDOF 9
ENDMDL
