MODEL 1
REMARK VINA RESULT: -7.179908270      0.000      0.000
REMARK  6 active torsions:
REMARK  status: ('A' for Active; 'I' for Inactive)
REMARK    1  A    between atoms: N1_1  and  N2_4 
REMARK    2  A    between atoms: N2_4  and  C1_6 
REMARK    3  A    between atoms: N4_11  and  C4_13 
REMARK    4  A    between atoms: C4_13  and  C5_14 
REMARK    5  A    between atoms: C5_14  and  N5_15 
REMARK    6  A    between atoms: C7_22  and  N9_23 
ROOT
HETATM    1  C1  UNL     1      26.893  19.588  62.366  1.00  0.00     0.156 C 
HETATM    2  C2  UNL     1      25.951  18.949  63.034  1.00  0.00     0.153 A 
HETATM    3  N3  UNL     1      25.230  17.871  62.453  1.00  0.00    -0.174 N 
ATOM      4  H3  UNL     1      25.419  17.560  61.500  1.00  0.00     0.186 HD
HETATM    5  C3  UNL     1      24.234  17.242  63.248  1.00  0.00     0.694 A 
HETATM    6  N4  UNL     1      23.572  16.272  62.750  1.00  0.00    -0.224 N 
ATOM      7  H4  UNL     1      22.854  15.812  63.310  1.00  0.00     0.177 HD
HETATM    8  N8  UNL     1      23.972  17.690  64.594  1.00  0.00    -0.022 N 
ATOM      9  H8  UNL     1      23.250  17.218  65.137  1.00  0.00     0.203 HD
HETATM   10  C7  UNL     1      24.612  18.657  65.131  1.00  0.00     0.696 A 
HETATM   11  N10 UNL     1      25.615  19.308  64.364  1.00  0.00    -0.174 N 
ATOM     12  H10 UNL     1      26.123  20.080  64.795  1.00  0.00     0.186 HD
ENDROOT
BRANCH   6  13
HETATM   13  C4  UNL     1      23.822  15.818  61.411  1.00  0.00     0.157 C 
BRANCH  13  14
HETATM   14  C5  UNL     1      24.296  14.375  61.482  1.00  0.00     0.142 C 
BRANCH  14  15
HETATM   15  N5  UNL     1      25.415  14.206  60.577  1.00  0.00    -0.365 N 
HETATM   16  C6  UNL     1      26.627  14.191  61.011  1.00  0.00     0.197 C 
HETATM   17  N6  UNL     1      26.865  14.340  62.392  1.00  0.00    -0.067 NA
HETATM   18  N7  UNL     1      27.714  14.025  60.116  1.00  0.00    -0.067 NA
ATOM     19  H5  UNL     1      25.239  14.098  59.578  1.00  0.00     0.161 HD
ENDBRANCH  14  15
ENDBRANCH  13  14
ENDBRANCH   6  13
BRANCH  10  20
HETATM   20  N9  UNL     1      24.317  19.063  66.467  1.00  0.00    -0.217 N 
HETATM   21  C8  UNL     1      23.774  18.222  67.517  1.00  0.00     0.141 C 
HETATM   22  C9  UNL     1      22.765  19.191  68.149  1.00  0.00     0.022 C 
HETATM   23  C10 UNL     1      23.619  20.435  68.267  1.00  0.00     0.022 C 
HETATM   24  C11 UNL     1      24.492  20.380  67.055  1.00  0.00     0.141 C 
ENDBRANCH  10  20
BRANCH   1  25
HETATM   25  N2  UNL     1      27.263  19.267  61.039  1.00  0.00    -0.315 N 
ATOM     26  H2  UNL     1      26.553  19.292  60.307  1.00  0.00     0.185 HD
BRANCH  25  27
HETATM   27  N1  UNL     1      28.565  18.918  60.706  1.00  0.00    -0.345 N 
ATOM     28  H12 UNL     1      29.004  18.155  61.221  1.00  0.00     0.176 HD
ATOM     29  H11 UNL     1      29.080  19.401  59.971  1.00  0.00     0.176 HD
ENDBRANCH  25  27
ENDBRANCH   1  25
TORSDOF 6
ENDMDL
MODEL 2
REMARK VINA RESULT: -6.911868497      3.267      4.256
REMARK  6 active torsions:
REMARK  status: ('A' for Active; 'I' for Inactive)
REMARK    1  A    between atoms: N1_1  and  N2_4 
REMARK    2  A    between atoms: N2_4  and  C1_6 
REMARK    3  A    between atoms: N4_11  and  C4_13 
REMARK    4  A    between atoms: C4_13  and  C5_14 
REMARK    5  A    between atoms: C5_14  and  N5_15 
REMARK    6  A    between atoms: C7_22  and  N9_23 
ROOT
HETATM    1  C1  UNL     1      27.542  18.175  58.835  1.00  0.00     0.156 C 
HETATM    2  C2  UNL     1      27.386  18.162  60.146  1.00  0.00     0.153 A 
HETATM    3  N3  UNL     1      26.223  17.610  60.750  1.00  0.00    -0.174 N 
ATOM      4  H3  UNL     1      25.475  17.208  60.186  1.00  0.00     0.186 HD
HETATM    5  C3  UNL     1      26.143  17.641  62.168  1.00  0.00     0.694 A 
HETATM    6  N4  UNL     1      25.109  17.152  62.734  1.00  0.00    -0.224 N 
ATOM      7  H4  UNL     1      25.038  17.167  63.752  1.00  0.00     0.177 HD
HETATM    8  N8  UNL     1      27.206  18.213  62.956  1.00  0.00    -0.022 N 
ATOM      9  H8  UNL     1      27.115  18.220  63.972  1.00  0.00     0.203 HD
HETATM   10  C7  UNL     1      28.257  18.712  62.429  1.00  0.00     0.696 A 
HETATM   11  N10 UNL     1      28.371  18.699  61.013  1.00  0.00    -0.174 N 
ATOM     12  H10 UNL     1      29.211  19.099  60.595  1.00  0.00     0.186 HD
ENDROOT
BRANCH   6  13
HETATM   13  C4  UNL     1      24.043  16.580  61.961  1.00  0.00     0.157 C 
BRANCH  13  14
HETATM   14  C5  UNL     1      24.164  15.066  62.035  1.00  0.00     0.142 C 
BRANCH  14  15
HETATM   15  N5  UNL     1      24.784  14.587  60.817  1.00  0.00    -0.365 N 
HETATM   16  C6  UNL     1      26.033  14.276  60.782  1.00  0.00     0.197 C 
HETATM   17  N6  UNL     1      26.807  14.404  61.952  1.00  0.00    -0.067 NA
HETATM   18  N7  UNL     1      26.629  13.807  59.583  1.00  0.00    -0.067 NA
ATOM     19  H5  UNL     1      24.221  14.495  59.971  1.00  0.00     0.161 HD
ENDBRANCH  14  15
ENDBRANCH  13  14
ENDBRANCH   6  13
BRANCH  10  20
HETATM   20  N9  UNL     1      29.282  19.267  63.253  1.00  0.00    -0.217 N 
HETATM   21  C8  UNL     1      30.362  18.535  63.886  1.00  0.00     0.141 C 
HETATM   22  C9  UNL     1      30.387  19.217  65.260  1.00  0.00     0.022 C 
HETATM   23  C10 UNL     1      30.334  20.671  64.843  1.00  0.00     0.022 C 
HETATM   24  C11 UNL     1      29.464  20.659  63.628  1.00  0.00     0.141 C 
ENDBRANCH  10  20
BRANCH   1  25
HETATM   25  N2  UNL     1      26.589  17.653  57.931  1.00  0.00    -0.315 N 
ATOM     26  H2  UNL     1      25.930  18.290  57.482  1.00  0.00     0.185 HD
BRANCH  25  27
HETATM   27  N1  UNL     1      26.524  16.297  57.637  1.00  0.00    -0.345 N 
ATOM     28  H12 UNL     1      27.253  15.689  58.011  1.00  0.00     0.176 HD
ATOM     29  H11 UNL     1      25.775  15.906  57.066  1.00  0.00     0.176 HD
ENDBRANCH  25  27
ENDBRANCH   1  25
TORSDOF 6
ENDMDL
MODEL 3
REMARK VINA RESULT: -6.882450115      2.311      6.449
REMARK  6 active torsions:
REMARK  status: ('A' for Active; 'I' for Inactive)
REMARK    1  A    between atoms: N1_1  and  N2_4 
REMARK    2  A    between atoms: N2_4  and  C1_6 
REMARK    3  A    between atoms: N4_11  and  C4_13 
REMARK    4  A    between atoms: C4_13  and  C5_14 
REMARK    5  A    between atoms: C5_14  and  N5_15 
REMARK    6  A    between atoms: C7_22  and  N9_23 
ROOT
HETATM    1  C1  UNL     1      29.373  20.020  62.985  1.00  0.00     0.156 C 
HETATM    2  C2  UNL     1      28.484  19.108  63.332  1.00  0.00     0.153 A 
HETATM    3  N3  UNL     1      27.838  19.144  64.598  1.00  0.00    -0.174 N 
ATOM      4  H3  UNL     1      28.044  19.878  65.277  1.00  0.00     0.186 HD
HETATM    5  C3  UNL     1      26.895  18.120  64.884  1.00  0.00     0.694 A 
HETATM    6  N4  UNL     1      26.302  18.130  66.014  1.00  0.00    -0.224 N 
ATOM      7  H4  UNL     1      25.623  17.400  66.232  1.00  0.00     0.177 HD
HETATM    8  N8  UNL     1      26.612  17.087  63.919  1.00  0.00    -0.022 N 
ATOM      9  H8  UNL     1      25.930  16.366  64.156  1.00  0.00     0.203 HD
HETATM   10  C7  UNL     1      27.183  17.041  62.776  1.00  0.00     0.696 A 
HETATM   11  N10 UNL     1      28.132  18.049  62.458  1.00  0.00    -0.174 N 
ATOM     12  H10 UNL     1      28.586  18.009  61.546  1.00  0.00     0.186 HD
ENDROOT
BRANCH   6  13
HETATM   13  C4  UNL     1      26.577  19.152  66.983  1.00  0.00     0.157 C 
BRANCH  13  14
HETATM   14  C5  UNL     1      25.542  20.254  66.814  1.00  0.00     0.142 C 
BRANCH  14  15
HETATM   15  N5  UNL     1      24.296  19.660  66.375  1.00  0.00    -0.365 N 
HETATM   16  C6  UNL     1      23.769  19.977  65.243  1.00  0.00     0.197 C 
HETATM   17  N6  UNL     1      24.420  20.918  64.421  1.00  0.00    -0.067 NA
HETATM   18  N7  UNL     1      22.549  19.389  64.823  1.00  0.00    -0.067 NA
ATOM     19  H5  UNL     1      23.828  18.979  66.972  1.00  0.00     0.161 HD
ENDBRANCH  14  15
ENDBRANCH  13  14
ENDBRANCH   6  13
BRANCH  10  20
HETATM   20  N9  UNL     1      26.868  15.998  61.855  1.00  0.00    -0.217 N 
HETATM   21  C8  UNL     1      26.705  14.592  62.175  1.00  0.00     0.141 C 
HETATM   22  C9  UNL     1      27.431  13.954  60.983  1.00  0.00     0.022 C 
HETATM   23  C10 UNL     1      26.833  14.750  59.843  1.00  0.00     0.022 C 
HETATM   24  C11 UNL     1      26.645  16.114  60.423  1.00  0.00     0.141 C 
ENDBRANCH  10  20
BRANCH   1  25
HETATM   25  N2  UNL     1      29.756  21.094  63.822  1.00  0.00    -0.315 N 
ATOM     26  H2  UNL     1      29.352  22.016  63.662  1.00  0.00     0.185 HD
BRANCH  25  27
HETATM   27  N1  UNL     1      30.669  20.927  64.856  1.00  0.00    -0.345 N 
ATOM     28  H12 UNL     1      30.741  20.006  65.289  1.00  0.00     0.176 HD
ATOM     29  H11 UNL     1      31.257  21.693  65.183  1.00  0.00     0.176 HD
ENDBRANCH  25  27
ENDBRANCH   1  25
TORSDOF 6
ENDMDL
MODEL 4
REMARK VINA RESULT: -6.816189880      1.130      1.216
REMARK  6 active torsions:
REMARK  status: ('A' for Active; 'I' for Inactive)
REMARK    1  A    between atoms: N1_1  and  N2_4 
REMARK    2  A    between atoms: N2_4  and  C1_6 
REMARK    3  A    between atoms: N4_11  and  C4_13 
REMARK    4  A    between atoms: C4_13  and  C5_14 
REMARK    5  A    between atoms: C5_14  and  N5_15 
REMARK    6  A    between atoms: C7_22  and  N9_23 
ROOT
HETATM    1  C1  UNL     1      27.945  17.773  63.576  1.00  0.00     0.156 C 
HETATM    2  C2  UNL     1      26.656  17.769  63.860  1.00  0.00     0.153 A 
HETATM    3  N3  UNL     1      25.697  17.247  62.949  1.00  0.00    -0.174 N 
ATOM      4  H3  UNL     1      25.979  16.860  62.048  1.00  0.00     0.186 HD
HETATM    5  C3  UNL     1      24.331  17.285  63.340  1.00  0.00     0.694 A 
HETATM    6  N4  UNL     1      23.451  16.823  62.540  1.00  0.00    -0.224 N 
ATOM      7  H4  UNL     1      22.467  16.844  62.808  1.00  0.00     0.177 HD
HETATM    8  N8  UNL     1      23.943  17.835  64.615  1.00  0.00    -0.022 N 
ATOM      9  H8  UNL     1      22.954  17.848  64.864  1.00  0.00     0.203 HD
HETATM   10  C7  UNL     1      24.793  18.307  65.445  1.00  0.00     0.696 A 
HETATM   11  N10 UNL     1      26.167  18.285  65.086  1.00  0.00    -0.174 N 
ATOM     12  H10 UNL     1      26.842  18.663  65.750  1.00  0.00     0.186 HD
ENDROOT
BRANCH   6  13
HETATM   13  C4  UNL     1      23.825  16.274  61.267  1.00  0.00     0.157 C 
BRANCH  13  14
HETATM   14  C5  UNL     1      24.157  14.803  61.466  1.00  0.00     0.142 C 
BRANCH  14  15
HETATM   15  N5  UNL     1      25.282  14.461  60.620  1.00  0.00    -0.365 N 
HETATM   16  C6  UNL     1      26.460  14.292  61.113  1.00  0.00     0.197 C 
HETATM   17  N6  UNL     1      26.652  14.441  62.500  1.00  0.00    -0.067 NA
HETATM   18  N7  UNL     1      27.554  13.956  60.275  1.00  0.00    -0.067 NA
ATOM     19  H5  UNL     1      25.139  14.353  59.616  1.00  0.00     0.161 HD
ENDBRANCH  14  15
ENDBRANCH  13  14
ENDBRANCH   6  13
BRANCH  10  20
HETATM   20  N9  UNL     1      24.358  18.840  66.695  1.00  0.00    -0.217 N 
HETATM   21  C8  UNL     1      23.765  18.091  67.786  1.00  0.00     0.141 C 
HETATM   22  C9  UNL     1      22.657  19.063  68.215  1.00  0.00     0.022 C 
HETATM   23  C10 UNL     1      23.436  20.360  68.259  1.00  0.00     0.022 C 
HETATM   24  C11 UNL     1      24.416  20.223  67.140  1.00  0.00     0.141 C 
ENDBRANCH  10  20
BRANCH   1  25
HETATM   25  N2  UNL     1      28.480  17.270  62.368  1.00  0.00    -0.315 N 
ATOM     26  H2  UNL     1      28.304  17.776  61.499  1.00  0.00     0.185 HD
BRANCH  25  27
HETATM   27  N1  UNL     1      29.236  16.106  62.330  1.00  0.00    -0.345 N 
ATOM     28  H12 UNL     1      28.900  15.333  61.755  1.00  0.00     0.176 HD
ATOM     29  H11 UNL     1      30.105  16.011  62.855  1.00  0.00     0.176 HD
ENDBRANCH  25  27
ENDBRANCH   1  25
TORSDOF 6
ENDMDL
MODEL 5
REMARK VINA RESULT: -6.735987287      1.269      1.602
REMARK  6 active torsions:
REMARK  status: ('A' for Active; 'I' for Inactive)
REMARK    1  A    between atoms: N1_1  and  N2_4 
REMARK    2  A    between atoms: N2_4  and  C1_6 
REMARK    3  A    between atoms: N4_11  and  C4_13 
REMARK    4  A    between atoms: C4_13  and  C5_14 
REMARK    5  A    between atoms: C5_14  and  N5_15 
REMARK    6  A    between atoms: C7_22  and  N9_23 
ROOT
HETATM    1  C1  UNL     1      27.369  18.938  61.129  1.00  0.00     0.156 C 
HETATM    2  C2  UNL     1      26.570  18.577  62.117  1.00  0.00     0.153 A 
HETATM    3  N3  UNL     1      25.614  17.538  61.956  1.00  0.00    -0.174 N 
ATOM      4  H3  UNL     1      25.517  17.040  61.070  1.00  0.00     0.186 HD
HETATM    5  C3  UNL     1      24.797  17.218  63.074  1.00  0.00     0.694 A 
HETATM    6  N4  UNL     1      23.931  16.289  62.955  1.00  0.00    -0.224 N 
ATOM      7  H4  UNL     1      23.338  16.049  63.751  1.00  0.00     0.177 HD
HETATM    8  N8  UNL     1      24.942  17.928  64.321  1.00  0.00    -0.022 N 
ATOM      9  H8  UNL     1      24.339  17.674  65.103  1.00  0.00     0.203 HD
HETATM   10  C7  UNL     1      25.797  18.864  64.482  1.00  0.00     0.696 A 
HETATM   11  N10 UNL     1      26.629  19.210  63.384  1.00  0.00    -0.174 N 
ATOM     12  H10 UNL     1      27.310  19.957  63.515  1.00  0.00     0.186 HD
ENDROOT
BRANCH   6  13
HETATM   13  C4  UNL     1      23.777  15.575  61.719  1.00  0.00     0.157 C 
BRANCH  13  14
HETATM   14  C5  UNL     1      24.341  14.176  61.908  1.00  0.00     0.142 C 
BRANCH  14  15
HETATM   15  N5  UNL     1      25.423  13.978  60.965  1.00  0.00    -0.365 N 
HETATM   16  C6  UNL     1      26.649  14.173  61.307  1.00  0.00     0.197 C 
HETATM   17  N6  UNL     1      26.939  14.585  62.622  1.00  0.00    -0.067 NA
HETATM   18  N7  UNL     1      27.700  13.976  60.376  1.00  0.00    -0.067 NA
ATOM     19  H5  UNL     1      25.210  13.679  60.013  1.00  0.00     0.161 HD
ENDBRANCH  14  15
ENDBRANCH  13  14
ENDBRANCH   6  13
BRANCH  10  20
HETATM   20  N9  UNL     1      25.901  19.537  65.736  1.00  0.00    -0.217 N 
HETATM   21  C8  UNL     1      24.807  19.846  66.636  1.00  0.00     0.141 C 
HETATM   22  C9  UNL     1      25.199  21.266  67.066  1.00  0.00     0.022 C 
HETATM   23  C10 UNL     1      26.665  21.060  67.380  1.00  0.00     0.022 C 
HETATM   24  C11 UNL     1      27.104  20.047  66.373  1.00  0.00     0.141 C 
ENDBRANCH  10  20
BRANCH   1  25
HETATM   25  N2  UNL     1      27.347  18.338  59.849  1.00  0.00    -0.315 N 
ATOM     26  H2  UNL     1      26.890  17.432  59.734  1.00  0.00     0.185 HD
BRANCH  25  27
HETATM   27  N1  UNL     1      27.930  18.946  58.745  1.00  0.00    -0.345 N 
ATOM     28  H12 UNL     1      28.873  19.321  58.845  1.00  0.00     0.176 HD
ATOM     29  H11 UNL     1      27.442  19.022  57.853  1.00  0.00     0.176 HD
ENDBRANCH  25  27
ENDBRANCH   1  25
TORSDOF 6
ENDMDL
