MODEL 1
REMARK VINA RESULT: -7.855613631      0.000      0.000
REMARK  6 active torsions:
REMARK  status: ('A' for Active; 'I' for Inactive)
REMARK    1  A    between atoms: N3_4  and  C2_6 
REMARK    2  A    between atoms: C2_6  and  C3_7 
REMARK    3  A    between atoms: C3_7  and  C4_8 
REMARK    4  A    between atoms: C4_8  and  C5_9 
REMARK    5  A    between atoms: C5_9  and  N4_10 
REMARK    6  A    between atoms: C5_9  and  C6_14 
ROOT
HETATM    1  C6  UNL     1      27.260  16.687  60.494  1.00  0.00     0.207 C 
HETATM    2  N5  UNL     1      28.309  16.026  61.317  1.00  0.00    -0.344 N 
ATOM      3  H5  UNL     1      28.255  15.011  61.234  1.00  0.00     0.163 HD
HETATM    4  C7  UNL     1      29.359  16.411  62.182  1.00  0.00     0.236 C 
HETATM    5  O1  UNL     1      29.454  15.615  63.187  1.00  0.00    -0.272 OA
HETATM    6  C8  UNL     1      30.371  17.465  62.251  1.00  0.00     0.225 C 
HETATM    7  N6  UNL     1      29.736  18.693  62.750  1.00  0.00    -0.356 N 
ATOM      8  H6  UNL     1      30.120  19.066  63.619  1.00  0.00     0.162 HD
HETATM    9  C9  UNL     1      28.756  19.369  62.237  1.00  0.00     0.191 C 
HETATM   10  N7  UNL     1      28.428  20.490  63.002  1.00  0.00    -0.063 NA
HETATM   11  N8  UNL     1      27.939  19.208  61.058  1.00  0.00    -0.299 N 
ATOM     12  H8  UNL     1      27.526  20.082  60.730  1.00  0.00     0.171 HD
HETATM   13  C10 UNL     1      27.585  18.073  60.247  1.00  0.00     0.248 C 
HETATM   14  O2  UNL     1      27.569  18.412  59.033  1.00  0.00    -0.271 OA
ENDROOT
BRANCH   1  15
HETATM   15  C5  UNL     1      25.983  16.305  61.113  1.00  0.00     0.215 C 
BRANCH  15  16
HETATM   16  C4  UNL     1      25.517  16.863  62.377  1.00  0.00     0.037 C 
BRANCH  16  17
HETATM   17  C3  UNL     1      24.068  16.709  62.725  1.00  0.00     0.022 C 
BRANCH  17  18
HETATM   18  C2  UNL     1      23.737  17.458  64.022  1.00  0.00     0.122 C 
BRANCH  18  19
HETATM   19  N3  UNL     1      24.487  18.681  64.119  1.00  0.00    -0.367 N 
HETATM   20  C1  UNL     1      23.948  19.768  64.564  1.00  0.00     0.196 C 
HETATM   21  N1  UNL     1      22.593  19.742  64.962  1.00  0.00    -0.067 NA
HETATM   22  N2  UNL     1      24.649  20.987  64.675  1.00  0.00    -0.067 NA
ATOM     23  H3  UNL     1      25.465  18.691  63.830  1.00  0.00     0.161 HD
ENDBRANCH  18  19
ENDBRANCH  17  18
ENDBRANCH  16  17
ENDBRANCH  15  16
BRANCH  15  24
HETATM   24  N4  UNL     1      24.977  16.755  60.079  1.00  0.00    -0.073 N 
ATOM     25  H43 UNL     1      25.400  17.132  59.232  1.00  0.00     0.274 HD
ATOM     26  H42 UNL     1      24.476  15.987  59.632  1.00  0.00     0.274 HD
ATOM     27  H41 UNL     1      24.367  17.415  60.562  1.00  0.00     0.274 HD
ENDBRANCH  15  24
ENDBRANCH   1  15
TORSDOF 6
ENDMDL
MODEL 2
REMARK VINA RESULT: -7.762726827      0.770      1.021
REMARK  6 active torsions:
REMARK  status: ('A' for Active; 'I' for Inactive)
REMARK    1  A    between atoms: N3_4  and  C2_6 
REMARK    2  A    between atoms: C2_6  and  C3_7 
REMARK    3  A    between atoms: C3_7  and  C4_8 
REMARK    4  A    between atoms: C4_8  and  C5_9 
REMARK    5  A    between atoms: C5_9  and  N4_10 
REMARK    6  A    between atoms: C5_9  and  C6_14 
ROOT
HETATM    1  C6  UNL     1      27.029  16.114  60.418  1.00  0.00     0.207 C 
HETATM    2  N5  UNL     1      28.133  15.693  61.323  1.00  0.00    -0.344 N 
ATOM      3  H5  UNL     1      28.208  14.676  61.360  1.00  0.00     0.163 HD
HETATM    4  C7  UNL     1      29.106  16.306  62.145  1.00  0.00     0.236 C 
HETATM    5  O1  UNL     1      29.276  15.650  63.238  1.00  0.00    -0.272 OA
HETATM    6  C8  UNL     1      29.975  17.481  62.099  1.00  0.00     0.225 C 
HETATM    7  N6  UNL     1      29.180  18.668  62.443  1.00  0.00    -0.356 N 
ATOM      8  H6  UNL     1      29.494  19.184  63.265  1.00  0.00     0.162 HD
HETATM    9  C9  UNL     1      28.135  19.149  61.845  1.00  0.00     0.191 C 
HETATM   10  N7  UNL     1      27.651  20.300  62.470  1.00  0.00    -0.063 NA
HETATM   11  N8  UNL     1      27.373  18.750  60.686  1.00  0.00    -0.299 N 
ATOM     12  H8  UNL     1      26.862  19.520  60.254  1.00  0.00     0.171 HD
HETATM   13  C10 UNL     1      27.184  17.492  60.012  1.00  0.00     0.248 C 
HETATM   14  O2  UNL     1      27.153  17.683  58.767  1.00  0.00    -0.271 OA
ENDROOT
BRANCH   1  15
HETATM   15  C5  UNL     1      25.796  15.648  61.067  1.00  0.00     0.215 C 
BRANCH  15  16
HETATM   16  C4  UNL     1      25.506  15.877  62.477  1.00  0.00     0.037 C 
BRANCH  16  17
HETATM   17  C3  UNL     1      24.500  16.931  62.830  1.00  0.00     0.022 C 
BRANCH  17  18
HETATM   18  C2  UNL     1      25.093  17.939  63.821  1.00  0.00     0.122 C 
BRANCH  18  19
HETATM   19  N3  UNL     1      24.149  18.261  64.857  1.00  0.00    -0.367 N 
HETATM   20  C1  UNL     1      23.839  19.486  65.128  1.00  0.00     0.196 C 
HETATM   21  N1  UNL     1      24.445  20.523  64.384  1.00  0.00    -0.067 NA
HETATM   22  N2  UNL     1      22.918  19.844  66.135  1.00  0.00    -0.067 NA
ATOM     23  H3  UNL     1      23.715  17.507  65.389  1.00  0.00     0.161 HD
ENDBRANCH  18  19
ENDBRANCH  17  18
ENDBRANCH  16  17
ENDBRANCH  15  16
BRANCH  15  24
HETATM   24  N4  UNL     1      24.728  16.402  60.309  1.00  0.00    -0.073 N 
ATOM     25  H43 UNL     1      24.384  15.909  59.485  1.00  0.00     0.274 HD
ATOM     26  H42 UNL     1      23.835  16.453  60.799  1.00  0.00     0.274 HD
ATOM     27  H41 UNL     1      25.135  17.314  60.102  1.00  0.00     0.274 HD
ENDBRANCH  15  24
ENDBRANCH   1  15
TORSDOF 6
ENDMDL
MODEL 3
REMARK VINA RESULT: -7.501928321      2.588      3.450
REMARK  6 active torsions:
REMARK  status: ('A' for Active; 'I' for Inactive)
REMARK    1  A    between atoms: N3_4  and  C2_6 
REMARK    2  A    between atoms: C2_6  and  C3_7 
REMARK    3  A    between atoms: C3_7  and  C4_8 
REMARK    4  A    between atoms: C4_8  and  C5_9 
REMARK    5  A    between atoms: C5_9  and  N4_10 
REMARK    6  A    between atoms: C5_9  and  C6_14 
ROOT
HETATM    1  C6  UNL     1      24.814  15.863  62.667  1.00  0.00     0.207 C 
HETATM    2  N5  UNL     1      26.197  15.428  63.003  1.00  0.00    -0.344 N 
ATOM      3  H5  UNL     1      26.272  15.174  63.988  1.00  0.00     0.163 HD
HETATM    4  C7  UNL     1      27.435  15.268  62.339  1.00  0.00     0.236 C 
HETATM    5  O1  UNL     1      28.417  15.627  63.088  1.00  0.00    -0.272 OA
HETATM    6  C8  UNL     1      27.911  14.805  61.036  1.00  0.00     0.225 C 
HETATM    7  N6  UNL     1      27.717  15.883  60.056  1.00  0.00    -0.356 N 
ATOM      8  H6  UNL     1      28.565  16.221  59.600  1.00  0.00     0.162 HD
HETATM    9  C9  UNL     1      26.616  16.462  59.690  1.00  0.00     0.191 C 
HETATM   10  N7  UNL     1      26.832  17.449  58.726  1.00  0.00    -0.063 NA
HETATM   11  N8  UNL     1      25.231  16.306  60.066  1.00  0.00    -0.299 N 
ATOM     12  H8  UNL     1      24.580  16.622  59.347  1.00  0.00     0.171 HD
HETATM   13  C10 UNL     1      24.577  15.798  61.243  1.00  0.00     0.248 C 
HETATM   14  O2  UNL     1      23.555  15.142  60.906  1.00  0.00    -0.271 OA
ENDROOT
BRANCH   1  15
HETATM   15  C5  UNL     1      24.607  17.110  63.415  1.00  0.00     0.215 C 
BRANCH  15  16
HETATM   16  C4  UNL     1      25.418  18.304  63.207  1.00  0.00     0.037 C 
BRANCH  16  17
HETATM   17  C3  UNL     1      26.081  18.925  64.398  1.00  0.00     0.022 C 
BRANCH  17  18
HETATM   18  C2  UNL     1      25.255  20.102  64.930  1.00  0.00     0.122 C 
BRANCH  18  19
HETATM   19  N3  UNL     1      24.545  19.738  66.126  1.00  0.00    -0.367 N 
HETATM   20  C1  UNL     1      23.261  19.593  66.129  1.00  0.00     0.196 C 
HETATM   21  N1  UNL     1      22.550  19.799  64.926  1.00  0.00    -0.067 NA
HETATM   22  N2  UNL     1      22.528  19.236  67.280  1.00  0.00    -0.067 NA
ATOM     23  H3  UNL     1      25.066  19.590  66.990  1.00  0.00     0.161 HD
ENDBRANCH  18  19
ENDBRANCH  17  18
ENDBRANCH  16  17
ENDBRANCH  15  16
BRANCH  15  24
HETATM   24  N4  UNL     1      23.205  17.501  63.009  1.00  0.00    -0.073 N 
ATOM     25  H43 UNL     1      23.058  17.513  62.000  1.00  0.00     0.274 HD
ATOM     26  H42 UNL     1      22.503  16.792  63.224  1.00  0.00     0.274 HD
ATOM     27  H41 UNL     1      23.031  18.399  63.460  1.00  0.00     0.274 HD
ENDBRANCH  15  24
ENDBRANCH   1  15
TORSDOF 6
ENDMDL
MODEL 4
REMARK VINA RESULT: -7.367187221      1.486      1.728
REMARK  6 active torsions:
REMARK  status: ('A' for Active; 'I' for Inactive)
REMARK    1  A    between atoms: N3_4  and  C2_6 
REMARK    2  A    between atoms: C2_6  and  C3_7 
REMARK    3  A    between atoms: C3_7  and  C4_8 
REMARK    4  A    between atoms: C4_8  and  C5_9 
REMARK    5  A    between atoms: C5_9  and  N4_10 
REMARK    6  A    between atoms: C5_9  and  C6_14 
ROOT
HETATM    1  C6  UNL     1      26.024  15.563  60.865  1.00  0.00     0.207 C 
HETATM    2  N5  UNL     1      26.871  15.402  62.078  1.00  0.00    -0.344 N 
ATOM      3  H5  UNL     1      26.740  14.481  62.497  1.00  0.00     0.163 HD
HETATM    4  C7  UNL     1      27.807  16.166  62.812  1.00  0.00     0.236 C 
HETATM    5  O1  UNL     1      27.676  15.979  64.077  1.00  0.00    -0.272 OA
HETATM    6  C8  UNL     1      28.886  17.112  62.532  1.00  0.00     0.225 C 
HETATM    7  N6  UNL     1      28.296  18.426  62.240  1.00  0.00    -0.356 N 
ATOM      8  H6  UNL     1      28.574  19.183  62.865  1.00  0.00     0.162 HD
HETATM    9  C9  UNL     1      27.470  18.756  61.296  1.00  0.00     0.191 C 
HETATM   10  N7  UNL     1      27.130  20.110  61.339  1.00  0.00    -0.063 NA
HETATM   11  N8  UNL     1      26.832  18.028  60.226  1.00  0.00    -0.299 N 
ATOM     12  H8  UNL     1      26.554  18.621  59.443  1.00  0.00     0.171 HD
HETATM   13  C10 UNL     1      26.506  16.639  60.031  1.00  0.00     0.248 C 
HETATM   14  O2  UNL     1      26.706  16.326  58.826  1.00  0.00    -0.271 OA
ENDROOT
BRANCH   1  15
HETATM   15  C5  UNL     1      24.638  15.544  61.354  1.00  0.00     0.215 C 
BRANCH  15  16
HETATM   16  C4  UNL     1      24.267  15.958  62.702  1.00  0.00     0.037 C 
BRANCH  16  17
HETATM   17  C3  UNL     1      23.824  17.374  62.910  1.00  0.00     0.022 C 
BRANCH  17  18
HETATM   18  C2  UNL     1      24.061  17.811  64.361  1.00  0.00     0.122 C 
BRANCH  18  19
HETATM   19  N3  UNL     1      25.409  18.275  64.548  1.00  0.00    -0.367 N 
HETATM   20  C1  UNL     1      25.688  19.536  64.576  1.00  0.00     0.196 C 
HETATM   21  N1  UNL     1      24.640  20.470  64.419  1.00  0.00    -0.067 NA
HETATM   22  N2  UNL     1      26.997  20.032  64.757  1.00  0.00    -0.067 NA
ATOM     23  H3  UNL     1      26.160  17.595  64.661  1.00  0.00     0.161 HD
ENDBRANCH  18  19
ENDBRANCH  17  18
ENDBRANCH  16  17
ENDBRANCH  15  16
BRANCH  15  24
HETATM   24  N4  UNL     1      23.957  16.526  60.430  1.00  0.00    -0.073 N 
ATOM     25  H43 UNL     1      23.027  16.806  60.742  1.00  0.00     0.274 HD
ATOM     26  H42 UNL     1      24.373  17.458  60.443  1.00  0.00     0.274 HD
ATOM     27  H41 UNL     1      23.966  16.086  59.511  1.00  0.00     0.274 HD
ENDBRANCH  15  24
ENDBRANCH   1  15
TORSDOF 6
ENDMDL
MODEL 5
REMARK VINA RESULT: -7.360370217      2.086      3.930
REMARK  6 active torsions:
REMARK  status: ('A' for Active; 'I' for Inactive)
REMARK    1  A    between atoms: N3_4  and  C2_6 
REMARK    2  A    between atoms: C2_6  and  C3_7 
REMARK    3  A    between atoms: C3_7  and  C4_8 
REMARK    4  A    between atoms: C4_8  and  C5_9 
REMARK    5  A    between atoms: C5_9  and  N4_10 
REMARK    6  A    between atoms: C5_9  and  C6_14 
ROOT
HETATM    1  C6  UNL     1      26.958  19.123  61.883  1.00  0.00     0.207 C 
HETATM    2  N5  UNL     1      25.613  18.640  62.296  1.00  0.00    -0.344 N 
ATOM      3  H5  UNL     1      25.025  19.414  62.608  1.00  0.00     0.163 HD
HETATM    4  C7  UNL     1      24.920  17.410  62.377  1.00  0.00     0.236 C 
HETATM    5  O1  UNL     1      24.181  17.357  63.429  1.00  0.00    -0.272 OA
HETATM    6  C8  UNL     1      24.808  16.179  61.596  1.00  0.00     0.225 C 
HETATM    7  N6  UNL     1      25.984  15.341  61.869  1.00  0.00    -0.356 N 
ATOM      8  H6  UNL     1      25.788  14.423  62.268  1.00  0.00     0.162 HD
HETATM    9  C9  UNL     1      27.238  15.608  61.671  1.00  0.00     0.191 C 
HETATM   10  N7  UNL     1      28.071  14.556  62.056  1.00  0.00    -0.063 NA
HETATM   11  N8  UNL     1      27.946  16.752  61.147  1.00  0.00    -0.299 N 
ATOM     12  H8  UNL     1      28.864  16.519  60.768  1.00  0.00     0.171 HD
HETATM   13  C10 UNL     1      27.628  18.152  61.048  1.00  0.00     0.248 C 
HETATM   14  O2  UNL     1      28.051  18.602  59.949  1.00  0.00    -0.271 OA
ENDROOT
BRANCH   1  15
HETATM   15  C5  UNL     1      27.585  19.626  63.114  1.00  0.00     0.215 C 
BRANCH  15  16
HETATM   16  C4  UNL     1      28.094  18.748  64.160  1.00  0.00     0.037 C 
BRANCH  16  17
HETATM   17  C3  UNL     1      27.172  18.375  65.281  1.00  0.00     0.022 C 
BRANCH  17  18
HETATM   18  C2  UNL     1      26.388  19.598  65.772  1.00  0.00     0.122 C 
BRANCH  18  19
HETATM   19  N3  UNL     1      24.994  19.286  65.937  1.00  0.00    -0.367 N 
HETATM   20  C1  UNL     1      24.078  19.929  65.290  1.00  0.00     0.196 C 
HETATM   21  N1  UNL     1      24.467  20.957  64.403  1.00  0.00    -0.067 NA
HETATM   22  N2  UNL     1      22.701  19.653  65.424  1.00  0.00    -0.067 NA
ATOM     23  H3  UNL     1      24.722  18.541  66.578  1.00  0.00     0.161 HD
ENDBRANCH  18  19
ENDBRANCH  17  18
ENDBRANCH  16  17
ENDBRANCH  15  16
BRANCH  15  24
HETATM   24  N4  UNL     1      28.793  20.361  62.583  1.00  0.00    -0.073 N 
ATOM     25  H43 UNL     1      29.530  19.746  62.240  1.00  0.00     0.274 HD
ATOM     26  H42 UNL     1      28.623  20.848  61.702  1.00  0.00     0.274 HD
ATOM     27  H41 UNL     1      29.091  20.976  63.340  1.00  0.00     0.274 HD
ENDBRANCH  15  24
ENDBRANCH   1  15
TORSDOF 6
ENDMDL
