MODEL 1
REMARK VINA RESULT: -7.490415937      0.000      0.000
REMARK  9 active torsions:
REMARK  status: ('A' for Active; 'I' for Inactive)
REMARK    1  A    between atoms: N1_2  and  O1_3 
REMARK       I    between atoms: N1_2  and  C2_5 
REMARK    2  A    between atoms: C2_5  and  C3_7 
REMARK    3  A    between atoms: C4_10  and  N3_11 
REMARK    4  A    between atoms: C5_16  and  N5_17 
REMARK    5  A    between atoms: N5_17  and  C6_19 
REMARK    6  A    between atoms: C6_19  and  C7_20 
REMARK    7  A    between atoms: C7_20  and  C8_21 
REMARK    8  A    between atoms: C8_21  and  N6_22 
REMARK    9  A    between atoms: N9_27  and  N10_28 
ROOT
HETATM    1  C3  UNL     1      27.532  18.115  61.035  1.00  0.00     0.229 A 
HETATM    2  N2  UNL     1      27.180  18.204  59.747  1.00  0.00    -0.168 N 
ATOM      3  H2  UNL     1      27.205  19.114  59.286  1.00  0.00     0.186 HD
HETATM    4  C4  UNL     1      26.786  17.106  59.033  1.00  0.00     0.692 A 
HETATM    5  N4  UNL     1      26.742  15.904  59.611  1.00  0.00    -0.021 N 
ATOM      6  H4  UNL     1      26.446  15.088  59.074  1.00  0.00     0.203 HD
HETATM    7  C5  UNL     1      27.086  15.772  60.898  1.00  0.00     0.715 A 
HETATM    8  N9  UNL     1      27.471  16.856  61.589  1.00  0.00    -0.070 N 
ENDROOT
BRANCH   7   9
HETATM    9  N5  UNL     1      27.053  14.631  61.479  1.00  0.00    -0.224 N 
ATOM     10  H5  UNL     1      27.756  14.438  62.192  1.00  0.00     0.177 HD
BRANCH   9  11
HETATM   11  C6  UNL     1      26.090  13.604  61.190  1.00  0.00     0.139 C 
BRANCH  11  12
HETATM   12  C7  UNL     1      25.128  13.383  62.333  1.00  0.00     0.040 C 
BRANCH  12  13
HETATM   13  C8  UNL     1      23.909  14.262  62.100  1.00  0.00     0.123 C 
BRANCH  13  14
HETATM   14  N6  UNL     1      23.921  15.436  62.914  1.00  0.00    -0.367 N 
HETATM   15  C9  UNL     1      23.870  16.637  62.474  1.00  0.00     0.196 C 
HETATM   16  N7  UNL     1      23.795  16.858  61.085  1.00  0.00    -0.067 NA
HETATM   17  N8  UNL     1      23.888  17.731  63.374  1.00  0.00    -0.067 NA
ATOM     18  H6  UNL     1      23.974  15.307  63.925  1.00  0.00     0.161 HD
ENDBRANCH  13  14
ENDBRANCH  12  13
ENDBRANCH  11  12
ENDBRANCH   9  11
ENDBRANCH   7   9
BRANCH   8  19
HETATM   19  N10 UNL     1      27.821  16.683  62.925  1.00  0.00    -0.322 N 
ATOM     20 2H10 UNL     1      28.180  17.493  63.432  1.00  0.00     0.178 HD
ATOM     21 1H10 UNL     1      27.713  15.764  63.354  1.00  0.00     0.178 HD
ENDBRANCH   8  19
BRANCH   4  22
HETATM   22  N3  UNL     1      26.454  17.258  57.774  1.00  0.00    -0.234 N 
ATOM     23  H32 UNL     1      26.913  16.715  57.042  1.00  0.00     0.174 HD
ATOM     24  H31 UNL     1      25.725  17.931  57.537  1.00  0.00     0.174 HD
ENDBRANCH   4  22
BRANCH   1  25
HETATM   25  C2  UNL     1      27.961  19.189  61.885  1.00  0.00     0.313 C 
HETATM   26  N1  UNL     1      29.271  19.462  62.276  1.00  0.00    -0.226 N 
HETATM   27  C1  UNL     1      29.570  20.613  63.164  1.00  0.00     0.189 C 
HETATM   28  O2  UNL     1      27.056  19.986  62.339  1.00  0.00    -0.262 OA
BRANCH  26  29
HETATM   29  O1  UNL     1      30.334  18.741  61.901  1.00  0.00    -0.285 OA
ATOM     30  H1  UNL     1      30.946  19.190  61.329  1.00  0.00     0.245 HD
ENDBRANCH  26  29
ENDBRANCH   1  25
TORSDOF 9
ENDMDL
MODEL 2
REMARK VINA RESULT: -7.460740682      0.759      1.325
REMARK  9 active torsions:
REMARK  status: ('A' for Active; 'I' for Inactive)
REMARK    1  A    between atoms: N1_2  and  O1_3 
REMARK       I    between atoms: N1_2  and  C2_5 
REMARK    2  A    between atoms: C2_5  and  C3_7 
REMARK    3  A    between atoms: C4_10  and  N3_11 
REMARK    4  A    between atoms: C5_16  and  N5_17 
REMARK    5  A    between atoms: N5_17  and  C6_19 
REMARK    6  A    between atoms: C6_19  and  C7_20 
REMARK    7  A    between atoms: C7_20  and  C8_21 
REMARK    8  A    between atoms: C8_21  and  N6_22 
REMARK    9  A    between atoms: N9_27  and  N10_28 
ROOT
HETATM    1  C3  UNL     1      28.049  17.706  60.868  1.00  0.00     0.229 A 
HETATM    2  N2  UNL     1      27.389  17.984  59.738  1.00  0.00    -0.168 N 
ATOM      3  H2  UNL     1      27.379  18.944  59.391  1.00  0.00     0.186 HD
HETATM    4  C4  UNL     1      26.726  17.015  59.036  1.00  0.00     0.692 A 
HETATM    5  N4  UNL     1      26.721  15.752  59.468  1.00  0.00    -0.021 N 
ATOM      6  H4  UNL     1      26.224  15.033  58.942  1.00  0.00     0.203 HD
HETATM    7  C5  UNL     1      27.369  15.432  60.595  1.00  0.00     0.715 A 
HETATM    8  N9  UNL     1      28.017  16.391  61.275  1.00  0.00    -0.070 N 
ENDROOT
BRANCH   7   9
HETATM    9  N5  UNL     1      27.381  14.228  61.033  1.00  0.00    -0.224 N 
ATOM     10  H5  UNL     1      28.283  13.758  61.111  1.00  0.00     0.177 HD
BRANCH   9  11
HETATM   11  C6  UNL     1      26.207  13.498  61.422  1.00  0.00     0.139 C 
BRANCH  11  12
HETATM   12  C7  UNL     1      25.474  14.158  62.564  1.00  0.00     0.040 C 
BRANCH  12  13
HETATM   13  C8  UNL     1      24.271  14.893  61.991  1.00  0.00     0.123 C 
BRANCH  13  14
HETATM   14  N6  UNL     1      23.667  15.771  62.941  1.00  0.00    -0.367 N 
HETATM   15  C9  UNL     1      23.939  17.016  63.070  1.00  0.00     0.196 C 
HETATM   16  N7  UNL     1      24.903  17.600  62.226  1.00  0.00    -0.067 NA
HETATM   17  N8  UNL     1      23.276  17.797  64.050  1.00  0.00    -0.067 NA
ATOM     18  H6  UNL     1      22.963  15.377  63.566  1.00  0.00     0.161 HD
ENDBRANCH  13  14
ENDBRANCH  12  13
ENDBRANCH  11  12
ENDBRANCH   9  11
ENDBRANCH   7   9
BRANCH   8  19
HETATM   19  N10 UNL     1      28.680  16.023  62.443  1.00  0.00    -0.322 N 
ATOM     20 2H10 UNL     1      28.891  16.756  63.121  1.00  0.00     0.178 HD
ATOM     21 1H10 UNL     1      28.934  15.046  62.585  1.00  0.00     0.178 HD
ENDBRANCH   8  19
BRANCH   4  22
HETATM   22  N3  UNL     1      26.098  17.351  57.936  1.00  0.00    -0.234 N 
ATOM     23  H32 UNL     1      25.084  17.267  57.866  1.00  0.00     0.174 HD
ATOM     24  H31 UNL     1      26.643  17.700  57.148  1.00  0.00     0.174 HD
ENDBRANCH   4  22
BRANCH   1  25
HETATM   25  C2  UNL     1      28.778  18.632  61.688  1.00  0.00     0.313 C 
HETATM   26  N1  UNL     1      28.241  19.696  62.411  1.00  0.00    -0.226 N 
HETATM   27  C1  UNL     1      29.119  20.578  63.221  1.00  0.00     0.189 C 
HETATM   28  O2  UNL     1      30.054  18.475  61.773  1.00  0.00    -0.262 OA
BRANCH  26  29
HETATM   29  O1  UNL     1      26.940  20.008  62.439  1.00  0.00    -0.285 OA
ATOM     30  H1  UNL     1      26.748  20.932  62.546  1.00  0.00     0.245 HD
ENDBRANCH  26  29
ENDBRANCH   1  25
TORSDOF 9
ENDMDL
MODEL 3
REMARK VINA RESULT: -7.333752096      1.528      2.507
REMARK  9 active torsions:
REMARK  status: ('A' for Active; 'I' for Inactive)
REMARK    1  A    between atoms: N1_2  and  O1_3 
REMARK       I    between atoms: N1_2  and  C2_5 
REMARK    2  A    between atoms: C2_5  and  C3_7 
REMARK    3  A    between atoms: C4_10  and  N3_11 
REMARK    4  A    between atoms: C5_16  and  N5_17 
REMARK    5  A    between atoms: N5_17  and  C6_19 
REMARK    6  A    between atoms: C6_19  and  C7_20 
REMARK    7  A    between atoms: C7_20  and  C8_21 
REMARK    8  A    between atoms: C8_21  and  N6_22 
REMARK    9  A    between atoms: N9_27  and  N10_28 
ROOT
HETATM    1  C3  UNL     1      27.740  17.870  61.049  1.00  0.00     0.229 A 
HETATM    2  N2  UNL     1      27.477  17.884  59.738  1.00  0.00    -0.168 N 
ATOM      3  H2  UNL     1      27.967  18.548  59.139  1.00  0.00     0.186 HD
HETATM    4  C4  UNL     1      26.565  17.029  59.179  1.00  0.00     0.692 A 
HETATM    5  N4  UNL     1      25.908  16.151  59.939  1.00  0.00    -0.021 N 
ATOM      6  H4  UNL     1      25.228  15.517  59.518  1.00  0.00     0.203 HD
HETATM    7  C5  UNL     1      26.142  16.105  61.257  1.00  0.00     0.715 A 
HETATM    8  N9  UNL     1      27.038  16.947  61.794  1.00  0.00    -0.070 N 
ENDROOT
BRANCH   7   9
HETATM    9  N5  UNL     1      25.526  15.273  62.010  1.00  0.00    -0.224 N 
ATOM     10  H5  UNL     1      26.016  14.421  62.281  1.00  0.00     0.177 HD
BRANCH   9  11
HETATM   11  C6  UNL     1      24.187  15.462  62.499  1.00  0.00     0.139 C 
BRANCH  11  12
HETATM   12  C7  UNL     1      23.771  16.913  62.482  1.00  0.00     0.040 C 
BRANCH  12  13
HETATM   13  C8  UNL     1      23.743  17.412  63.918  1.00  0.00     0.123 C 
BRANCH  13  14
HETATM   14  N6  UNL     1      24.456  18.638  64.083  1.00  0.00    -0.367 N 
HETATM   15  C9  UNL     1      23.969  19.712  64.582  1.00  0.00     0.196 C 
HETATM   16  N7  UNL     1      22.629  19.723  65.015  1.00  0.00    -0.067 NA
HETATM   17  N8  UNL     1      24.770  20.875  64.699  1.00  0.00    -0.067 NA
ATOM     18  H6  UNL     1      25.430  18.661  63.779  1.00  0.00     0.161 HD
ENDBRANCH  13  14
ENDBRANCH  12  13
ENDBRANCH  11  12
ENDBRANCH   9  11
ENDBRANCH   7   9
BRANCH   8  19
HETATM   19  N10 UNL     1      27.257  16.873  63.167  1.00  0.00    -0.322 N 
ATOM     20 2H10 UNL     1      28.185  17.113  63.514  1.00  0.00     0.178 HD
ATOM     21 1H10 UNL     1      26.493  16.583  63.778  1.00  0.00     0.178 HD
ENDBRANCH   8  19
BRANCH   4  22
HETATM   22  N3  UNL     1      26.352  17.092  57.887  1.00  0.00    -0.234 N 
ATOM     23  H32 UNL     1      26.671  16.347  57.268  1.00  0.00     0.174 HD
ATOM     24  H31 UNL     1      25.859  17.901  57.510  1.00  0.00     0.174 HD
ENDBRANCH   4  22
BRANCH   1  25
HETATM   25  C2  UNL     1      28.669  18.711  61.749  1.00  0.00     0.313 C 
HETATM   26  N1  UNL     1      28.349  19.782  62.582  1.00  0.00    -0.226 N 
HETATM   27  C1  UNL     1      29.420  20.570  63.244  1.00  0.00     0.189 C 
HETATM   28  O2  UNL     1      29.925  18.463  61.602  1.00  0.00    -0.262 OA
BRANCH  26  29
HETATM   29  O1  UNL     1      27.101  20.182  62.849  1.00  0.00    -0.285 OA
ATOM     30  H1  UNL     1      26.415  19.684  62.419  1.00  0.00     0.245 HD
ENDBRANCH  26  29
ENDBRANCH   1  25
TORSDOF 9
ENDMDL
MODEL 4
REMARK VINA RESULT: -7.074411983      2.489      4.494
REMARK  9 active torsions:
REMARK  status: ('A' for Active; 'I' for Inactive)
REMARK    1  A    between atoms: N1_2  and  O1_3 
REMARK       I    between atoms: N1_2  and  C2_5 
REMARK    2  A    between atoms: C2_5  and  C3_7 
REMARK    3  A    between atoms: C4_10  and  N3_11 
REMARK    4  A    between atoms: C5_16  and  N5_17 
REMARK    5  A    between atoms: N5_17  and  C6_19 
REMARK    6  A    between atoms: C6_19  and  C7_20 
REMARK    7  A    between atoms: C7_20  and  C8_21 
REMARK    8  A    between atoms: C8_21  and  N6_22 
REMARK    9  A    between atoms: N9_27  and  N10_28 
ROOT
HETATM    1  C3  UNL     1      27.986  20.097  64.451  1.00  0.00     0.229 A 
HETATM    2  N2  UNL     1      26.746  19.805  64.859  1.00  0.00    -0.168 N 
ATOM      3  H2  UNL     1      26.524  19.858  65.853  1.00  0.00     0.186 HD
HETATM    4  C4  UNL     1      25.768  19.436  63.976  1.00  0.00     0.692 A 
HETATM    5  N4  UNL     1      26.031  19.356  62.670  1.00  0.00    -0.021 N 
ATOM      6  H4  UNL     1      25.298  19.079  62.017  1.00  0.00     0.203 HD
HETATM    7  C5  UNL     1      27.259  19.640  62.221  1.00  0.00     0.715 A 
HETATM    8  N9  UNL     1      28.211  20.002  63.095  1.00  0.00    -0.070 N 
ENDROOT
BRANCH   7   9
HETATM    9  N5  UNL     1      27.540  19.573  60.973  1.00  0.00    -0.224 N 
ATOM     10  H5  UNL     1      27.344  20.390  60.395  1.00  0.00     0.177 HD
BRANCH   9  11
HETATM   11  C6  UNL     1      28.113  18.420  60.334  1.00  0.00     0.139 C 
BRANCH  11  12
HETATM   12  C7  UNL     1      27.250  17.900  59.210  1.00  0.00     0.040 C 
BRANCH  12  13
HETATM   13  C8  UNL     1      26.581  16.618  59.683  1.00  0.00     0.123 C 
BRANCH  13  14
HETATM   14  N6  UNL     1      25.308  16.858  60.284  1.00  0.00    -0.367 N 
HETATM   15  C9  UNL     1      25.024  16.650  61.514  1.00  0.00     0.196 C 
HETATM   16  N7  UNL     1      26.019  16.146  62.374  1.00  0.00    -0.067 NA
HETATM   17  N8  UNL     1      23.724  16.924  62.006  1.00  0.00    -0.067 NA
ATOM     18  H6  UNL     1      24.567  17.224  59.686  1.00  0.00     0.161 HD
ENDBRANCH  13  14
ENDBRANCH  12  13
ENDBRANCH  11  12
ENDBRANCH   9  11
ENDBRANCH   7   9
BRANCH   8  19
HETATM   19  N10 UNL     1      29.477  20.289  62.593  1.00  0.00    -0.322 N 
ATOM     20 2H10 UNL     1      30.029  19.515  62.223  1.00  0.00     0.178 HD
ATOM     21 1H10 UNL     1      29.814  21.252  62.611  1.00  0.00     0.178 HD
ENDBRANCH   8  19
BRANCH   4  22
HETATM   22  N3  UNL     1      24.572  19.162  64.439  1.00  0.00    -0.234 N 
ATOM     23  H32 UNL     1      24.413  18.343  65.026  1.00  0.00     0.174 HD
ATOM     24  H31 UNL     1      23.800  19.786  64.202  1.00  0.00     0.174 HD
ENDBRANCH   4  22
BRANCH   1  25
HETATM   25  C2  UNL     1      29.092  20.495  65.275  1.00  0.00     0.313 C 
HETATM   26  N1  UNL     1      29.286  21.751  65.848  1.00  0.00    -0.226 N 
HETATM   27  C1  UNL     1      30.483  22.022  66.684  1.00  0.00     0.189 C 
HETATM   28  O2  UNL     1      30.000  19.614  65.518  1.00  0.00    -0.262 OA
BRANCH  26  29
HETATM   29  O1  UNL     1      28.447  22.783  65.703  1.00  0.00    -0.285 OA
ATOM     30  H1  UNL     1      27.538  22.547  65.553  1.00  0.00     0.245 HD
ENDBRANCH  26  29
ENDBRANCH   1  25
TORSDOF 9
ENDMDL
MODEL 5
REMARK VINA RESULT: -7.057015168      2.239      5.034
REMARK  9 active torsions:
REMARK  status: ('A' for Active; 'I' for Inactive)
REMARK    1  A    between atoms: N1_2  and  O1_3 
REMARK       I    between atoms: N1_2  and  C2_5 
REMARK    2  A    between atoms: C2_5  and  C3_7 
REMARK    3  A    between atoms: C4_10  and  N3_11 
REMARK    4  A    between atoms: C5_16  and  N5_17 
REMARK    5  A    between atoms: N5_17  and  C6_19 
REMARK    6  A    between atoms: C6_19  and  C7_20 
REMARK    7  A    between atoms: C7_20  and  C8_21 
REMARK    8  A    between atoms: C8_21  and  N6_22 
REMARK    9  A    between atoms: N9_27  and  N10_28 
ROOT
HETATM    1  C3  UNL     1      24.095  16.675  63.104  1.00  0.00     0.229 A 
HETATM    2  N2  UNL     1      23.687  15.401  63.056  1.00  0.00    -0.168 N 
ATOM      3  H2  UNL     1      23.131  15.027  63.825  1.00  0.00     0.186 HD
HETATM    4  C4  UNL     1      23.998  14.588  62.001  1.00  0.00     0.692 A 
HETATM    5  N4  UNL     1      24.726  15.050  60.982  1.00  0.00    -0.021 N 
ATOM      6  H4  UNL     1      24.955  14.438  60.198  1.00  0.00     0.203 HD
HETATM    7  C5  UNL     1      25.153  16.318  60.991  1.00  0.00     0.715 A 
HETATM    8  N9  UNL     1      24.842  17.108  62.031  1.00  0.00    -0.070 N 
ENDROOT
BRANCH   7   9
HETATM    9  N5  UNL     1      25.852  16.789  60.027  1.00  0.00    -0.224 N 
ATOM     10  H5  UNL     1      25.359  17.229  59.251  1.00  0.00     0.177 HD
BRANCH   9  11
HETATM   11  C6  UNL     1      27.287  16.736  59.968  1.00  0.00     0.139 C 
BRANCH  11  12
HETATM   12  C7  UNL     1      27.918  18.095  60.153  1.00  0.00     0.040 C 
BRANCH  12  13
HETATM   13  C8  UNL     1      28.762  18.055  61.418  1.00  0.00     0.123 C 
BRANCH  13  14
HETATM   14  N6  UNL     1      29.092  19.361  61.894  1.00  0.00    -0.367 N 
HETATM   15  C9  UNL     1      28.654  19.882  62.977  1.00  0.00     0.196 C 
HETATM   16  N7  UNL     1      27.776  19.141  63.791  1.00  0.00    -0.067 NA
HETATM   17  N8  UNL     1      29.048  21.190  63.354  1.00  0.00    -0.067 NA
ATOM     18  H6  UNL     1      29.727  19.922  61.325  1.00  0.00     0.161 HD
ENDBRANCH  13  14
ENDBRANCH  12  13
ENDBRANCH  11  12
ENDBRANCH   9  11
ENDBRANCH   7   9
BRANCH   8  19
HETATM   19  N10 UNL     1      25.303  18.422  62.009  1.00  0.00    -0.322 N 
ATOM     20 2H10 UNL     1      25.129  18.973  61.168  1.00  0.00     0.178 HD
ATOM     21 1H10 UNL     1      25.797  18.790  62.821  1.00  0.00     0.178 HD
ENDBRANCH   8  19
BRANCH   4  22
HETATM   22  N3  UNL     1      23.569  13.349  62.013  1.00  0.00    -0.234 N 
ATOM     23  H32 UNL     1      24.054  12.622  61.486  1.00  0.00     0.174 HD
ATOM     24  H31 UNL     1      22.739  13.123  62.560  1.00  0.00     0.174 HD
ENDBRANCH   4  22
BRANCH   1  25
HETATM   25  C2  UNL     1      23.834  17.623  64.150  1.00  0.00     0.313 C 
HETATM   26  N1  UNL     1      24.724  18.018  65.148  1.00  0.00    -0.226 N 
HETATM   27  C1  UNL     1      24.316  19.013  66.172  1.00  0.00     0.189 C 
HETATM   28  O2  UNL     1      22.667  18.168  64.182  1.00  0.00    -0.262 OA
BRANCH  26  29
HETATM   29  O1  UNL     1      25.974  17.556  65.269  1.00  0.00    -0.285 OA
ATOM     30  H1  UNL     1      26.607  18.185  65.598  1.00  0.00     0.245 HD
ENDBRANCH  26  29
ENDBRANCH   1  25
TORSDOF 9
ENDMDL
