MODEL 1
REMARK VINA RESULT: -7.288867319      0.000      0.000
REMARK  6 active torsions:
REMARK  status: ('A' for Active; 'I' for Inactive)
REMARK    1  A    between atoms: N3_4  and  C2_6 
REMARK    2  A    between atoms: C2_6  and  C3_7 
REMARK    3  A    between atoms: C3_7  and  C4_8 
REMARK    4  A    between atoms: C4_8  and  C5_9 
REMARK    5  A    between atoms: C5_9  and  N4_10 
REMARK    6  A    between atoms: C5_9  and  C6_14 
REMARK       I    between atoms: C6_14  and  N5_16 
ROOT
HETATM    1  C6  UNL     1      26.748  16.483  60.395  1.00  0.00     0.257 C 
HETATM    2  O1  UNL     1      26.467  17.024  59.297  1.00  0.00    -0.271 OA
HETATM    3  N5  UNL     1      27.561  17.193  61.302  1.00  0.00    -0.281 N 
HETATM    4  C7  UNL     1      27.872  16.544  62.551  1.00  0.00     0.237 C 
HETATM    5  C8  UNL     1      29.220  16.910  63.078  1.00  0.00     0.236 C 
HETATM    6  O2  UNL     1      29.926  15.916  63.415  1.00  0.00    -0.272 OA
HETATM    7  N6  UNL     1      29.849  18.169  63.267  1.00  0.00    -0.358 N 
ATOM      8  H6  UNL     1      30.861  18.091  63.165  1.00  0.00     0.162 HD
HETATM    9  C9  UNL     1      29.465  19.528  63.562  1.00  0.00     0.142 C 
HETATM   10  C10 UNL     1      28.340  20.065  62.753  1.00  0.00     0.142 C 
HETATM   11  N7  UNL     1      28.245  19.603  61.409  1.00  0.00    -0.363 N 
ATOM     12  H7  UNL     1      28.475  20.343  60.746  1.00  0.00     0.162 HD
HETATM   13  C11 UNL     1      27.944  18.487  60.795  1.00  0.00     0.193 C 
HETATM   14  N8  UNL     1      28.003  18.573  59.386  1.00  0.00    -0.063 NA
ENDROOT
BRANCH   1  15
HETATM   15  C5  UNL     1      26.206  15.143  60.653  1.00  0.00     0.275 C 
BRANCH  15  16
HETATM   16  C4  UNL     1      24.715  15.157  60.911  1.00  0.00     0.044 C 
BRANCH  16  17
HETATM   17  C3  UNL     1      24.402  15.451  62.366  1.00  0.00     0.022 C 
BRANCH  17  18
HETATM   18  C2  UNL     1      23.809  16.867  62.385  1.00  0.00     0.122 C 
BRANCH  18  19
HETATM   19  N3  UNL     1      23.349  17.223  63.694  1.00  0.00    -0.367 N 
HETATM   20  C1  UNL     1      23.923  18.123  64.431  1.00  0.00     0.196 C 
HETATM   21  N1  UNL     1      23.407  18.417  65.713  1.00  0.00    -0.067 NA
HETATM   22  N2  UNL     1      25.074  18.849  64.005  1.00  0.00    -0.067 NA
ATOM     23  H3  UNL     1      22.528  16.745  64.066  1.00  0.00     0.161 HD
ENDBRANCH  18  19
ENDBRANCH  17  18
ENDBRANCH  16  17
ENDBRANCH  15  16
BRANCH  15  24
HETATM   24  N4  UNL     1      26.365  14.314  59.449  1.00  0.00    -0.066 N 
ATOM     25  H43 UNL     1      27.093  13.604  59.526  1.00  0.00     0.275 HD
ATOM     26  H42 UNL     1      25.593  13.667  59.284  1.00  0.00     0.275 HD
ATOM     27  H41 UNL     1      26.514  14.984  58.695  1.00  0.00     0.275 HD
ENDBRANCH  15  24
ENDBRANCH   1  15
TORSDOF 6
ENDMDL
MODEL 2
REMARK VINA RESULT: -7.282593529      1.343      1.755
REMARK  6 active torsions:
REMARK  status: ('A' for Active; 'I' for Inactive)
REMARK    1  A    between atoms: N3_4  and  C2_6 
REMARK    2  A    between atoms: C2_6  and  C3_7 
REMARK    3  A    between atoms: C3_7  and  C4_8 
REMARK    4  A    between atoms: C4_8  and  C5_9 
REMARK    5  A    between atoms: C5_9  and  N4_10 
REMARK    6  A    between atoms: C5_9  and  C6_14 
REMARK       I    between atoms: C6_14  and  N5_16 
ROOT
HETATM    1  C6  UNL     1      27.487  16.146  60.587  1.00  0.00     0.257 C 
HETATM    2  O1  UNL     1      26.692  16.498  59.681  1.00  0.00    -0.271 OA
HETATM    3  N5  UNL     1      28.213  17.146  61.266  1.00  0.00    -0.281 N 
HETATM    4  C7  UNL     1      29.123  16.712  62.296  1.00  0.00     0.237 C 
HETATM    5  C8  UNL     1      30.324  17.589  62.421  1.00  0.00     0.236 C 
HETATM    6  O2  UNL     1      31.420  16.958  62.435  1.00  0.00    -0.272 OA
HETATM    7  N6  UNL     1      30.456  18.999  62.526  1.00  0.00    -0.358 N 
ATOM      8  H6  UNL     1      31.334  19.315  62.115  1.00  0.00     0.162 HD
HETATM    9  C9  UNL     1      29.701  20.112  63.048  1.00  0.00     0.142 C 
HETATM   10  C10 UNL     1      28.264  20.143  62.672  1.00  0.00     0.142 C 
HETATM   11  N7  UNL     1      27.932  19.635  61.383  1.00  0.00    -0.363 N 
ATOM     12  H7  UNL     1      27.643  20.383  60.753  1.00  0.00     0.162 HD
HETATM   13  C11 UNL     1      27.898  18.469  60.789  1.00  0.00     0.193 C 
HETATM   14  N8  UNL     1      27.472  18.524  59.443  1.00  0.00    -0.063 NA
ENDROOT
BRANCH   1  15
HETATM   15  C5  UNL     1      27.603  14.710  60.873  1.00  0.00     0.275 C 
BRANCH  15  16
HETATM   16  C4  UNL     1      26.828  14.297  62.105  1.00  0.00     0.044 C 
BRANCH  16  17
HETATM   17  C3  UNL     1      25.527  13.605  61.741  1.00  0.00     0.022 C 
BRANCH  17  18
HETATM   18  C2  UNL     1      24.415  14.451  62.379  1.00  0.00     0.122 C 
BRANCH  18  19
HETATM   19  N3  UNL     1      24.935  15.665  62.933  1.00  0.00    -0.367 N 
HETATM   20  C1  UNL     1      24.510  16.843  62.594  1.00  0.00     0.196 C 
HETATM   21  N1  UNL     1      25.076  17.993  63.188  1.00  0.00    -0.067 NA
HETATM   22  N2  UNL     1      23.477  17.042  61.633  1.00  0.00    -0.067 NA
ATOM     23  H3  UNL     1      25.678  15.601  63.629  1.00  0.00     0.161 HD
ENDBRANCH  18  19
ENDBRANCH  17  18
ENDBRANCH  16  17
ENDBRANCH  15  16
BRANCH  15  24
HETATM   24  N4  UNL     1      26.988  13.946  59.777  1.00  0.00    -0.066 N 
ATOM     25  H43 UNL     1      26.754  12.984  60.021  1.00  0.00     0.275 HD
ATOM     26  H42 UNL     1      26.039  14.239  59.547  1.00  0.00     0.275 HD
ATOM     27  H41 UNL     1      27.649  14.030  59.005  1.00  0.00     0.275 HD
ENDBRANCH  15  24
ENDBRANCH   1  15
TORSDOF 6
ENDMDL
MODEL 3
REMARK VINA RESULT: -7.193363790      2.128      4.034
REMARK  6 active torsions:
REMARK  status: ('A' for Active; 'I' for Inactive)
REMARK    1  A    between atoms: N3_4  and  C2_6 
REMARK    2  A    between atoms: C2_6  and  C3_7 
REMARK    3  A    between atoms: C3_7  and  C4_8 
REMARK    4  A    between atoms: C4_8  and  C5_9 
REMARK    5  A    between atoms: C5_9  and  N4_10 
REMARK    6  A    between atoms: C5_9  and  C6_14 
REMARK       I    between atoms: C6_14  and  N5_16 
ROOT
HETATM    1  C6  UNL     1      25.078  17.763  62.821  1.00  0.00     0.257 C 
HETATM    2  O1  UNL     1      24.219  18.243  63.601  1.00  0.00    -0.271 OA
HETATM    3  N5  UNL     1      26.369  18.330  62.815  1.00  0.00    -0.281 N 
HETATM    4  C7  UNL     1      27.331  17.762  61.904  1.00  0.00     0.237 C 
HETATM    5  C8  UNL     1      28.308  18.765  61.388  1.00  0.00     0.236 C 
HETATM    6  O2  UNL     1      28.444  18.748  60.130  1.00  0.00    -0.272 OA
HETATM    7  N6  UNL     1      29.108  19.732  62.052  1.00  0.00    -0.358 N 
ATOM      8  H6  UNL     1      29.270  20.543  61.456  1.00  0.00     0.162 HD
HETATM    9  C9  UNL     1      29.756  19.894  63.331  1.00  0.00     0.142 C 
HETATM   10  C10 UNL     1      28.917  19.581  64.517  1.00  0.00     0.142 C 
HETATM   11  N7  UNL     1      27.529  19.877  64.411  1.00  0.00    -0.363 N 
ATOM     12  H7  UNL     1      27.271  20.664  65.006  1.00  0.00     0.162 HD
HETATM   13  C11 UNL     1      26.494  19.414  63.757  1.00  0.00     0.193 C 
HETATM   14  N8  UNL     1      25.289  20.098  64.030  1.00  0.00    -0.063 NA
ENDROOT
BRANCH   1  15
HETATM   15  C5  UNL     1      24.671  16.639  61.968  1.00  0.00     0.275 C 
BRANCH  15  16
HETATM   16  C4  UNL     1      24.065  15.497  62.756  1.00  0.00     0.044 C 
BRANCH  16  17
HETATM   17  C3  UNL     1      23.791  14.293  61.875  1.00  0.00     0.022 C 
BRANCH  17  18
HETATM   18  C2  UNL     1      25.002  13.366  62.050  1.00  0.00     0.122 C 
BRANCH  18  19
HETATM   19  N3  UNL     1      25.933  13.513  60.971  1.00  0.00    -0.367 N 
HETATM   20  C1  UNL     1      27.118  14.018  61.116  1.00  0.00     0.196 C 
HETATM   21  N1  UNL     1      27.978  14.129  60.001  1.00  0.00    -0.067 NA
HETATM   22  N2  UNL     1      27.612  14.477  62.373  1.00  0.00    -0.067 NA
ATOM     23  H3  UNL     1      25.648  13.205  60.040  1.00  0.00     0.161 HD
ENDBRANCH  18  19
ENDBRANCH  17  18
ENDBRANCH  16  17
ENDBRANCH  15  16
BRANCH  15  24
HETATM   24  N4  UNL     1      23.594  17.077  61.068  1.00  0.00    -0.066 N 
ATOM     25  H43 UNL     1      22.976  16.326  60.762  1.00  0.00     0.275 HD
ATOM     26  H42 UNL     1      22.874  17.638  61.523  1.00  0.00     0.275 HD
ATOM     27  H41 UNL     1      24.076  17.556  60.307  1.00  0.00     0.275 HD
ENDBRANCH  15  24
ENDBRANCH   1  15
TORSDOF 6
ENDMDL
MODEL 4
REMARK VINA RESULT: -7.089274227      2.151      4.813
REMARK  6 active torsions:
REMARK  status: ('A' for Active; 'I' for Inactive)
REMARK    1  A    between atoms: N3_4  and  C2_6 
REMARK    2  A    between atoms: C2_6  and  C3_7 
REMARK    3  A    between atoms: C3_7  and  C4_8 
REMARK    4  A    between atoms: C4_8  and  C5_9 
REMARK    5  A    between atoms: C5_9  and  N4_10 
REMARK    6  A    between atoms: C5_9  and  C6_14 
REMARK       I    between atoms: C6_14  and  N5_16 
ROOT
HETATM    1  C6  UNL     1      27.442  18.088  62.112  1.00  0.00     0.257 C 
HETATM    2  O1  UNL     1      28.272  18.000  61.174  1.00  0.00    -0.271 OA
HETATM    3  N5  UNL     1      26.420  17.119  62.195  1.00  0.00    -0.281 N 
HETATM    4  C7  UNL     1      25.479  17.249  63.278  1.00  0.00     0.237 C 
HETATM    5  C8  UNL     1      24.111  16.769  62.923  1.00  0.00     0.236 C 
HETATM    6  O2  UNL     1      23.189  17.586  63.211  1.00  0.00    -0.272 OA
HETATM    7  N6  UNL     1      23.661  15.564  62.321  1.00  0.00    -0.358 N 
ATOM      8  H6  UNL     1      22.810  15.720  61.782  1.00  0.00     0.162 HD
HETATM    9  C9  UNL     1      24.066  14.180  62.255  1.00  0.00     0.142 C 
HETATM   10  C10 UNL     1      25.502  13.948  61.954  1.00  0.00     0.142 C 
HETATM   11  N7  UNL     1      26.131  14.888  61.089  1.00  0.00    -0.363 N 
ATOM     12  H7  UNL     1      26.345  14.472  60.182  1.00  0.00     0.162 HD
HETATM   13  C11 UNL     1      26.510  16.140  61.141  1.00  0.00     0.193 C 
HETATM   14  N8  UNL     1      27.116  16.606  59.954  1.00  0.00    -0.063 NA
ENDROOT
BRANCH   1  15
HETATM   15  C5  UNL     1      27.598  19.199  63.060  1.00  0.00     0.275 C 
BRANCH  15  16
HETATM   16  C4  UNL     1      28.504  18.851  64.222  1.00  0.00     0.044 C 
BRANCH  16  17
HETATM   17  C3  UNL     1      27.720  18.686  65.511  1.00  0.00     0.022 C 
BRANCH  17  18
HETATM   18  C2  UNL     1      26.810  19.919  65.604  1.00  0.00     0.122 C 
BRANCH  18  19
HETATM   19  N3  UNL     1      25.509  19.572  66.093  1.00  0.00    -0.367 N 
HETATM   20  C1  UNL     1      24.407  19.984  65.546  1.00  0.00     0.196 C 
HETATM   21  N1  UNL     1      23.163  19.597  66.090  1.00  0.00    -0.067 NA
HETATM   22  N2  UNL     1      24.387  20.827  64.396  1.00  0.00    -0.067 NA
ATOM     23  H3  UNL     1      25.445  18.970  66.915  1.00  0.00     0.161 HD
ENDBRANCH  18  19
ENDBRANCH  17  18
ENDBRANCH  16  17
ENDBRANCH  15  16
BRANCH  15  24
HETATM   24  N4  UNL     1      28.274  20.319  62.388  1.00  0.00    -0.066 N 
ATOM     25  H43 UNL     1      28.745  20.061  61.520  1.00  0.00     0.275 HD
ATOM     26  H42 UNL     1      27.639  21.000  61.973  1.00  0.00     0.275 HD
ATOM     27  H41 UNL     1      28.895  20.706  63.098  1.00  0.00     0.275 HD
ENDBRANCH  15  24
ENDBRANCH   1  15
TORSDOF 6
ENDMDL
MODEL 5
REMARK VINA RESULT: -7.030712993      0.916      1.312
REMARK  6 active torsions:
REMARK  status: ('A' for Active; 'I' for Inactive)
REMARK    1  A    between atoms: N3_4  and  C2_6 
REMARK    2  A    between atoms: C2_6  and  C3_7 
REMARK    3  A    between atoms: C3_7  and  C4_8 
REMARK    4  A    between atoms: C4_8  and  C5_9 
REMARK    5  A    between atoms: C5_9  and  N4_10 
REMARK    6  A    between atoms: C5_9  and  C6_14 
REMARK       I    between atoms: C6_14  and  N5_16 
ROOT
HETATM    1  C6  UNL     1      26.296  16.432  61.072  1.00  0.00     0.257 C 
HETATM    2  O1  UNL     1      25.922  16.851  59.949  1.00  0.00    -0.271 OA
HETATM    3  N5  UNL     1      27.298  17.151  61.755  1.00  0.00    -0.281 N 
HETATM    4  C7  UNL     1      27.712  16.642  63.039  1.00  0.00     0.237 C 
HETATM    5  C8  UNL     1      29.151  16.905  63.334  1.00  0.00     0.236 C 
HETATM    6  O2  UNL     1      29.789  15.885  63.726  1.00  0.00    -0.272 OA
HETATM    7  N6  UNL     1      29.929  18.090  63.253  1.00  0.00    -0.358 N 
ATOM      8  H6  UNL     1      30.903  17.874  63.040  1.00  0.00     0.162 HD
HETATM    9  C9  UNL     1      29.735  19.514  63.388  1.00  0.00     0.142 C 
HETATM   10  C10 UNL     1      28.570  20.072  62.654  1.00  0.00     0.142 C 
HETATM   11  N7  UNL     1      28.240  19.450  61.416  1.00  0.00    -0.363 N 
ATOM     12  H7  UNL     1      28.451  20.060  60.627  1.00  0.00     0.162 HD
HETATM   13  C11 UNL     1      27.740  18.308  61.017  1.00  0.00     0.193 C 
HETATM   14  N8  UNL     1      27.610  18.197  59.615  1.00  0.00    -0.063 NA
ENDROOT
BRANCH   1  15
HETATM   15  C5  UNL     1      25.658  15.216  61.593  1.00  0.00     0.275 C 
BRANCH  15  16
HETATM   16  C4  UNL     1      24.393  15.508  62.369  1.00  0.00     0.044 C 
BRANCH  16  17
HETATM   17  C3  UNL     1      24.048  16.986  62.341  1.00  0.00     0.022 C 
BRANCH  17  18
HETATM   18  C2  UNL     1      23.942  17.416  63.811  1.00  0.00     0.122 C 
BRANCH  18  19
HETATM   19  N3  UNL     1      24.605  18.665  64.039  1.00  0.00    -0.367 N 
HETATM   20  C1  UNL     1      24.022  19.695  64.571  1.00  0.00     0.196 C 
HETATM   21  N1  UNL     1      24.747  20.892  64.763  1.00  0.00    -0.067 NA
HETATM   22  N2  UNL     1      22.658  19.680  64.984  1.00  0.00    -0.067 NA
ATOM     23  H3  UNL     1      25.585  18.750  63.768  1.00  0.00     0.161 HD
ENDBRANCH  18  19
ENDBRANCH  17  18
ENDBRANCH  16  17
ENDBRANCH  15  16
BRANCH  15  24
HETATM   24  N4  UNL     1      25.215  14.380  60.467  1.00  0.00    -0.066 N 
ATOM     25  H43 UNL     1      25.944  13.778  60.084  1.00  0.00     0.275 HD
ATOM     26  H42 UNL     1      24.576  13.630  60.732  1.00  0.00     0.275 HD
ATOM     27  H41 UNL     1      24.825  15.041  59.795  1.00  0.00     0.275 HD
ENDBRANCH  15  24
ENDBRANCH   1  15
TORSDOF 6
ENDMDL
