MODEL 1
REMARK VINA RESULT: -7.301051475      0.000      0.000
REMARK  4 active torsions:
REMARK  status: ('A' for Active; 'I' for Inactive)
REMARK       I    between atoms: C1_4  and  N3_6 
REMARK    1  A    between atoms: C5_13  and  C6_14 
REMARK    2  A    between atoms: C6_14  and  C7_15 
REMARK    3  A    between atoms: C6_14  and  C9_23 
REMARK    4  A    between atoms: N5_16  and  N6_18 
ROOT
HETATM    1  N1  UNL     1      23.544  14.695  60.469  1.00  0.00    -0.374 N 
ATOM      2  H11 UNL     1      23.741  15.506  59.882  1.00  0.00     0.158 HD
ATOM      3  H12 UNL     1      23.174  13.813  60.114  1.00  0.00     0.158 HD
HETATM    4  C1  UNL     1      23.799  14.843  61.744  1.00  0.00     0.184 C 
HETATM    5  N2  UNL     1      23.524  13.712  62.562  1.00  0.00    -0.064 NA
HETATM    6  N3  UNL     1      24.318  16.075  62.240  1.00  0.00    -0.340 N 
HETATM    7  C2  UNL     1      23.703  16.606  63.422  1.00  0.00     0.146 C 
HETATM    8  C3  UNL     1      24.517  17.594  64.173  1.00  0.00     0.142 C 
HETATM    9  N4  UNL     1      25.203  18.487  63.293  1.00  0.00    -0.358 N 
ATOM     10  H4  UNL     1      25.231  19.487  63.489  1.00  0.00     0.162 HD
HETATM   11  C4  UNL     1      25.846  17.958  62.142  1.00  0.00     0.241 C 
HETATM   12  O1  UNL     1      26.811  18.617  61.669  1.00  0.00    -0.271 OA
HETATM   13  C5  UNL     1      25.404  16.685  61.520  1.00  0.00     0.196 C 
ENDROOT
BRANCH  13  14
HETATM   14  C6  UNL     1      26.533  15.747  61.204  1.00  0.00     0.147 C 
BRANCH  14  15
HETATM   15  C7  UNL     1      27.074  16.104  59.875  1.00  0.00     0.096 C 
HETATM   16  N5  UNL     1      26.367  16.834  59.089  1.00  0.00    -0.313 N 
ATOM     17  H5  UNL     1      25.452  17.141  59.419  1.00  0.00     0.185 HD
BRANCH  16  18
HETATM   18  N6  UNL     1      26.766  17.230  57.827  1.00  0.00    -0.277 N 
HETATM   19  C8  UNL     1      27.515  18.260  57.667  1.00  0.00     0.215 C 
HETATM   20  N7  UNL     1      27.900  18.628  56.341  1.00  0.00    -0.065 NA
HETATM   21  N8  UNL     1      27.937  19.001  58.791  1.00  0.00    -0.065 NA
ATOM     22  H6  UNL     1      26.461  16.698  57.012  1.00  0.00     0.189 HD
ENDBRANCH  16  18
ENDBRANCH  14  15
BRANCH  14  23
HETATM   23  C9  UNL     1      27.604  15.693  62.193  1.00  0.00     0.242 C 
HETATM   24  N9  UNL     1      28.939  16.072  61.895  1.00  0.00    -0.061 NA
HETATM   25  O2  UNL     1      27.357  15.299  63.361  1.00  0.00    -0.276 OA
ENDBRANCH  14  23
ENDBRANCH  13  14
TORSDOF 4
ENDMDL
MODEL 2
REMARK VINA RESULT: -7.257292093      2.354      5.658
REMARK  4 active torsions:
REMARK  status: ('A' for Active; 'I' for Inactive)
REMARK       I    between atoms: C1_4  and  N3_6 
REMARK    1  A    between atoms: C5_13  and  C6_14 
REMARK    2  A    between atoms: C6_14  and  C7_15 
REMARK    3  A    between atoms: C6_14  and  C9_23 
REMARK    4  A    between atoms: N5_16  and  N6_18 
ROOT
HETATM    1  N1  UNL     1      28.311  19.697  62.720  1.00  0.00    -0.374 N 
ATOM      2  H11 UNL     1      27.316  19.858  62.878  1.00  0.00     0.158 HD
ATOM      3  H12 UNL     1      29.053  20.165  63.240  1.00  0.00     0.158 HD
HETATM    4  C1  UNL     1      28.603  18.827  61.786  1.00  0.00     0.184 C 
HETATM    5  N2  UNL     1      29.990  18.602  61.565  1.00  0.00    -0.064 NA
HETATM    6  N3  UNL     1      27.566  18.171  61.058  1.00  0.00    -0.340 N 
HETATM    7  C2  UNL     1      27.716  18.109  59.634  1.00  0.00     0.146 C 
HETATM    8  C3  UNL     1      26.915  17.060  58.956  1.00  0.00     0.142 C 
HETATM    9  N4  UNL     1      25.604  16.955  59.515  1.00  0.00    -0.358 N 
ATOM     10  H4  UNL     1      24.788  16.866  58.910  1.00  0.00     0.162 HD
HETATM   11  C4  UNL     1      25.457  16.978  60.928  1.00  0.00     0.241 C 
HETATM   12  O1  UNL     1      24.435  16.417  61.408  1.00  0.00    -0.271 OA
HETATM   13  C5  UNL     1      26.460  17.632  61.804  1.00  0.00     0.196 C 
ENDROOT
BRANCH  13  14
HETATM   14  C6  UNL     1      26.866  16.794  62.983  1.00  0.00     0.147 C 
BRANCH  14  15
HETATM   15  C7  UNL     1      25.801  16.883  64.003  1.00  0.00     0.096 C 
HETATM   16  N5  UNL     1      25.200  18.005  64.183  1.00  0.00    -0.313 N 
ATOM     17  H5  UNL     1      25.487  18.796  63.606  1.00  0.00     0.185 HD
BRANCH  16  18
HETATM   18  N6  UNL     1      24.192  18.209  65.106  1.00  0.00    -0.277 N 
HETATM   19  C8  UNL     1      23.728  19.387  65.322  1.00  0.00     0.215 C 
HETATM   20  N7  UNL     1      22.686  19.544  66.287  1.00  0.00    -0.065 NA
HETATM   21  N8  UNL     1      24.252  20.489  64.614  1.00  0.00    -0.065 NA
ATOM     22  H6  UNL     1      23.812  17.416  65.621  1.00  0.00     0.189 HD
ENDBRANCH  16  18
ENDBRANCH  14  15
BRANCH  14  23
HETATM   23  C9  UNL     1      27.174  15.399  62.688  1.00  0.00     0.242 C 
HETATM   24  N9  UNL     1      28.330  15.009  61.964  1.00  0.00    -0.061 NA
HETATM   25  O2  UNL     1      26.399  14.491  63.082  1.00  0.00    -0.276 OA
ENDBRANCH  14  23
ENDBRANCH  13  14
TORSDOF 4
ENDMDL
MODEL 3
REMARK VINA RESULT: -7.188499383      2.454      5.977
REMARK  4 active torsions:
REMARK  status: ('A' for Active; 'I' for Inactive)
REMARK       I    between atoms: C1_4  and  N3_6 
REMARK    1  A    between atoms: C5_13  and  C6_14 
REMARK    2  A    between atoms: C6_14  and  C7_15 
REMARK    3  A    between atoms: C6_14  and  C9_23 
REMARK    4  A    between atoms: N5_16  and  N6_18 
ROOT
HETATM    1  N1  UNL     1      27.220  19.801  61.388  1.00  0.00    -0.374 N 
ATOM      2  H11 UNL     1      26.202  19.855  61.418  1.00  0.00     0.158 HD
ATOM      3  H12 UNL     1      27.836  20.604  61.514  1.00  0.00     0.158 HD
HETATM    4  C1  UNL     1      27.718  18.609  61.175  1.00  0.00     0.184 C 
HETATM    5  N2  UNL     1      29.138  18.533  61.132  1.00  0.00    -0.064 NA
HETATM    6  N3  UNL     1      26.857  17.486  60.999  1.00  0.00    -0.340 N 
HETATM    7  C2  UNL     1      27.155  16.607  59.906  1.00  0.00     0.146 C 
HETATM    8  C3  UNL     1      26.574  15.246  60.009  1.00  0.00     0.142 C 
HETATM    9  N4  UNL     1      25.240  15.280  60.520  1.00  0.00    -0.358 N 
ATOM     10  H4  UNL     1      24.508  14.711  60.097  1.00  0.00     0.162 HD
HETATM   11  C4  UNL     1      24.951  16.121  61.629  1.00  0.00     0.241 C 
HETATM   12  O1  UNL     1      23.971  15.799  62.354  1.00  0.00    -0.271 OA
HETATM   13  C5  UNL     1      25.765  17.326  61.923  1.00  0.00     0.196 C 
ENDROOT
BRANCH  13  14
HETATM   14  C6  UNL     1      26.161  17.446  63.367  1.00  0.00     0.147 C 
BRANCH  14  15
HETATM   15  C7  UNL     1      24.930  17.562  64.176  1.00  0.00     0.096 C 
HETATM   16  N5  UNL     1      25.015  17.988  65.386  1.00  0.00    -0.313 N 
ATOM     17  H5  UNL     1      25.940  18.231  65.740  1.00  0.00     0.185 HD
BRANCH  16  18
HETATM   18  N6  UNL     1      23.937  18.137  66.236  1.00  0.00    -0.277 N 
HETATM   19  C8  UNL     1      23.464  19.302  66.500  1.00  0.00     0.215 C 
HETATM   20  N7  UNL     1      22.348  19.403  67.386  1.00  0.00    -0.065 NA
HETATM   21  N8  UNL     1      24.052  20.446  65.918  1.00  0.00    -0.065 NA
ATOM     22  H6  UNL     1      23.511  17.314  66.660  1.00  0.00     0.189 HD
ENDBRANCH  16  18
ENDBRANCH  14  15
BRANCH  14  23
HETATM   23  C9  UNL     1      27.009  16.375  63.879  1.00  0.00     0.242 C 
HETATM   24  N9  UNL     1      27.959  16.581  64.912  1.00  0.00    -0.061 NA
HETATM   25  O2  UNL     1      26.911  15.217  63.400  1.00  0.00    -0.276 OA
ENDBRANCH  14  23
ENDBRANCH  13  14
TORSDOF 4
ENDMDL
MODEL 4
REMARK VINA RESULT: -7.070193253      2.875      6.156
REMARK  4 active torsions:
REMARK  status: ('A' for Active; 'I' for Inactive)
REMARK       I    between atoms: C1_4  and  N3_6 
REMARK    1  A    between atoms: C5_13  and  C6_14 
REMARK    2  A    between atoms: C6_14  and  C7_15 
REMARK    3  A    between atoms: C6_14  and  C9_23 
REMARK    4  A    between atoms: N5_16  and  N6_18 
ROOT
HETATM    1  N1  UNL     1      29.700  16.709  64.252  1.00  0.00    -0.374 N 
ATOM      2  H11 UNL     1      29.513  17.560  64.784  1.00  0.00     0.158 HD
ATOM      3  H12 UNL     1      30.243  15.923  64.609  1.00  0.00     0.158 HD
HETATM    4  C1  UNL     1      29.192  16.672  63.046  1.00  0.00     0.184 C 
HETATM    5  N2  UNL     1      29.453  15.487  62.304  1.00  0.00    -0.064 NA
HETATM    6  N3  UNL     1      28.433  17.771  62.547  1.00  0.00    -0.340 N 
HETATM    7  C2  UNL     1      28.738  18.217  61.219  1.00  0.00     0.146 C 
HETATM    8  C3  UNL     1      27.675  19.011  60.555  1.00  0.00     0.142 C 
HETATM    9  N4  UNL     1      27.056  19.925  61.462  1.00  0.00    -0.358 N 
ATOM     10  H4  UNL     1      26.862  20.885  61.179  1.00  0.00     0.162 HD
HETATM   11  C4  UNL     1      26.717  19.473  62.766  1.00  0.00     0.241 C 
HETATM   12  O1  UNL     1      25.781  20.076  63.358  1.00  0.00    -0.271 OA
HETATM   13  C5  UNL     1      27.431  18.342  63.408  1.00  0.00     0.196 C 
ENDROOT
BRANCH  13  14
HETATM   14  C6  UNL     1      26.515  17.332  64.036  1.00  0.00     0.147 C 
BRANCH  14  15
HETATM   15  C7  UNL     1      25.897  17.946  65.230  1.00  0.00     0.096 C 
HETATM   16  N5  UNL     1      24.635  17.805  65.423  1.00  0.00    -0.313 N 
ATOM     17  H5  UNL     1      24.105  17.267  64.736  1.00  0.00     0.185 HD
BRANCH  16  18
HETATM   18  N6  UNL     1      23.948  18.333  66.499  1.00  0.00    -0.277 N 
HETATM   19  C8  UNL     1      23.055  19.241  66.328  1.00  0.00     0.215 C 
HETATM   20  N7  UNL     1      22.374  19.754  67.474  1.00  0.00    -0.065 NA
HETATM   21  N8  UNL     1      22.771  19.708  65.028  1.00  0.00    -0.065 NA
ATOM     22  H6  UNL     1      24.152  17.999  67.441  1.00  0.00     0.189 HD
ENDBRANCH  16  18
ENDBRANCH  14  15
BRANCH  14  23
HETATM   23  C9  UNL     1      25.490  16.779  63.159  1.00  0.00     0.242 C 
HETATM   24  N9  UNL     1      25.515  15.434  62.707  1.00  0.00    -0.061 NA
HETATM   25  O2  UNL     1      24.537  17.505  62.775  1.00  0.00    -0.276 OA
ENDBRANCH  14  23
ENDBRANCH  13  14
TORSDOF 4
ENDMDL
MODEL 5
REMARK VINA RESULT: -7.039470930      2.794      6.266
REMARK  4 active torsions:
REMARK  status: ('A' for Active; 'I' for Inactive)
REMARK       I    between atoms: C1_4  and  N3_6 
REMARK    1  A    between atoms: C5_13  and  C6_14 
REMARK    2  A    between atoms: C6_14  and  C7_15 
REMARK    3  A    between atoms: C6_14  and  C9_23 
REMARK    4  A    between atoms: N5_16  and  N6_18 
ROOT
HETATM    1  N1  UNL     1      23.666  15.667  63.070  1.00  0.00    -0.374 N 
ATOM      2  H11 UNL     1      24.106  15.390  63.948  1.00  0.00     0.158 HD
ATOM      3  H12 UNL     1      22.668  15.575  62.879  1.00  0.00     0.158 HD
HETATM    4  C1  UNL     1      24.471  16.166  62.166  1.00  0.00     0.184 C 
HETATM    5  N2  UNL     1      23.858  16.552  60.941  1.00  0.00    -0.064 NA
HETATM    6  N3  UNL     1      25.866  16.296  62.432  1.00  0.00    -0.340 N 
HETATM    7  C2  UNL     1      26.764  15.853  61.405  1.00  0.00     0.146 C 
HETATM    8  C3  UNL     1      28.140  16.403  61.483  1.00  0.00     0.142 C 
HETATM    9  N4  UNL     1      28.609  16.457  62.832  1.00  0.00    -0.358 N 
ATOM     10  H4  UNL     1      29.556  16.159  63.063  1.00  0.00     0.162 HD
HETATM   11  C4  UNL     1      27.734  16.933  63.845  1.00  0.00     0.241 C 
HETATM   12  O1  UNL     1      28.264  17.426  64.877  1.00  0.00    -0.271 OA
HETATM   13  C5  UNL     1      26.259  16.854  63.699  1.00  0.00     0.196 C 
ENDROOT
BRANCH  13  14
HETATM   14  C6  UNL     1      25.551  18.129  64.054  1.00  0.00     0.147 C 
BRANCH  14  15
HETATM   15  C7  UNL     1      25.374  18.168  65.521  1.00  0.00     0.096 C 
HETATM   16  N5  UNL     1      24.241  17.828  66.023  1.00  0.00    -0.313 N 
ATOM     17  H5  UNL     1      23.503  17.542  65.380  1.00  0.00     0.185 HD
BRANCH  16  18
HETATM   18  N6  UNL     1      23.959  17.826  67.375  1.00  0.00    -0.277 N 
HETATM   19  C8  UNL     1      23.145  18.683  67.878  1.00  0.00     0.215 C 
HETATM   20  N7  UNL     1      22.887  18.638  69.283  1.00  0.00    -0.065 NA
HETATM   21  N8  UNL     1      22.532  19.641  67.044  1.00  0.00    -0.065 NA
ATOM     22  H6  UNL     1      24.402  17.136  67.982  1.00  0.00     0.189 HD
ENDBRANCH  16  18
ENDBRANCH  14  15
BRANCH  14  23
HETATM   23  C9  UNL     1      26.186  19.355  63.584  1.00  0.00     0.242 C 
HETATM   24  N9  UNL     1      26.374  19.638  62.206  1.00  0.00    -0.061 NA
HETATM   25  O2  UNL     1      26.591  20.208  64.415  1.00  0.00    -0.276 OA
ENDBRANCH  14  23
ENDBRANCH  13  14
TORSDOF 4
ENDMDL
