MODEL 1
REMARK VINA RESULT: -6.994052747      0.000      0.000
REMARK  7 active torsions:
REMARK  status: ('A' for Active; 'I' for Inactive)
REMARK    1  A    between atoms: N1_2  and  C3_4 
REMARK    2  A    between atoms: C3_4  and  C4_5 
REMARK       I    between atoms: C4_5  and  N2_7 
REMARK    3  A    between atoms: N2_7  and  C5_9 
REMARK    4  A    between atoms: C7_16  and  N5_17 
REMARK    5  A    between atoms: N5_17  and  C8_19 
REMARK    6  A    between atoms: C8_19  and  C9_20 
REMARK    7  A    between atoms: C9_20  and  N6_21 
ROOT
HETATM    1  C5  UNL     1      25.975  18.608  62.687  1.00  0.00     0.701 A 
HETATM    2  N3  UNL     1      26.454  19.754  62.182  1.00  0.00    -0.129 N 
ATOM      3  H3  UNL     1      26.194  20.644  62.607  1.00  0.00     0.205 HD
HETATM    4  N4  UNL     1      27.267  19.736  61.133  1.00  0.00    -0.249 N 
ATOM      5  H4  UNL     1      27.630  20.609  60.751  1.00  0.00     0.191 HD
HETATM    6  C6  UNL     1      27.608  18.563  60.578  1.00  0.00     0.304 A 
HETATM    7  O2  UNL     1      28.366  18.586  59.603  1.00  0.00    -0.263 OA
HETATM    8  C7  UNL     1      27.127  17.373  61.078  1.00  0.00     0.187 A 
HETATM    9  N9  UNL     1      26.297  17.434  62.154  1.00  0.00    -0.170 N 
ATOM     10  H9  UNL     1      25.920  16.574  62.553  1.00  0.00     0.186 HD
ENDROOT
BRANCH   8  11
HETATM   11  N5  UNL     1      27.402  16.222  60.612  1.00  0.00    -0.367 N 
ATOM     12  H5  UNL     1      27.553  16.145  59.606  1.00  0.00     0.161 HD
BRANCH  11  13
HETATM   13  C8  UNL     1      27.516  15.011  61.397  1.00  0.00     0.165 C 
BRANCH  13  14
HETATM   14  C9  UNL     1      26.695  13.890  60.832  1.00  0.00     0.082 C 
BRANCH  14  15
HETATM   15  N6  UNL     1      25.524  13.678  61.567  1.00  0.00    -0.345 N 
HETATM   16  C10 UNL     1      24.440  14.271  61.735  1.00  0.00     0.200 C 
HETATM   17  N7  UNL     1      23.470  13.672  62.619  1.00  0.00    -0.067 NA
HETATM   18  N8  UNL     1      24.075  15.486  61.130  1.00  0.00    -0.067 NA
ATOM     19  H6  UNL     1      25.567  12.813  62.106  1.00  0.00     0.167 HD
ENDBRANCH  14  15
ENDBRANCH  13  14
ENDBRANCH  11  13
ENDBRANCH   8  11
BRANCH   1  20
HETATM   20  N2  UNL     1      25.192  18.660  63.701  1.00  0.00    -0.157 N 
HETATM   21  C4  UNL     1      25.337  19.710  64.642  1.00  0.00     0.264 C 
HETATM   22  O1  UNL     1      24.667  20.757  64.465  1.00  0.00    -0.271 OA
ATOM     23  H2  UNL     1      24.470  17.950  63.830  1.00  0.00     0.187 HD
BRANCH  21  24
HETATM   24  C3  UNL     1      26.239  19.624  65.815  1.00  0.00     0.374 C 
BRANCH  24  25
HETATM   25  N1  UNL     1      27.423  20.400  65.589  1.00  0.00     0.088 N 
HETATM   26  C1  UNL     1      28.521  19.479  65.325  1.00  0.00     0.310 C 
HETATM   27  C2  UNL     1      27.724  21.180  66.794  1.00  0.00     0.310 C 
ENDBRANCH  24  25
ENDBRANCH  21  24
ENDBRANCH   1  20
TORSDOF 7
ENDMDL
MODEL 2
REMARK VINA RESULT: -6.938584891      0.894      1.231
REMARK  7 active torsions:
REMARK  status: ('A' for Active; 'I' for Inactive)
REMARK    1  A    between atoms: N1_2  and  C3_4 
REMARK    2  A    between atoms: C3_4  and  C4_5 
REMARK       I    between atoms: C4_5  and  N2_7 
REMARK    3  A    between atoms: N2_7  and  C5_9 
REMARK    4  A    between atoms: C7_16  and  N5_17 
REMARK    5  A    between atoms: N5_17  and  C8_19 
REMARK    6  A    between atoms: C8_19  and  C9_20 
REMARK    7  A    between atoms: C9_20  and  N6_21 
ROOT
HETATM    1  C5  UNL     1      26.001  18.575  62.657  1.00  0.00     0.701 A 
HETATM    2  N3  UNL     1      26.468  19.727  62.153  1.00  0.00    -0.129 N 
ATOM      3  H3  UNL     1      26.212  20.612  62.590  1.00  0.00     0.205 HD
HETATM    4  N4  UNL     1      27.260  19.720  61.089  1.00  0.00    -0.249 N 
ATOM      5  H4  UNL     1      27.614  20.597  60.707  1.00  0.00     0.191 HD
HETATM    6  C6  UNL     1      27.595  18.552  60.518  1.00  0.00     0.304 A 
HETATM    7  O2  UNL     1      28.335  18.586  59.529  1.00  0.00    -0.263 OA
HETATM    8  C7  UNL     1      27.128  17.357  61.017  1.00  0.00     0.187 A 
HETATM    9  N9  UNL     1      26.318  17.406  62.108  1.00  0.00    -0.170 N 
ATOM     10  H9  UNL     1      25.951  16.542  62.507  1.00  0.00     0.186 HD
ENDROOT
BRANCH   8  11
HETATM   11  N5  UNL     1      27.397  16.210  60.536  1.00  0.00    -0.367 N 
ATOM     12  H5  UNL     1      27.553  16.146  59.530  1.00  0.00     0.161 HD
BRANCH  11  13
HETATM   13  C8  UNL     1      27.500  14.988  61.306  1.00  0.00     0.165 C 
BRANCH  13  14
HETATM   14  C9  UNL     1      26.647  13.891  60.741  1.00  0.00     0.082 C 
BRANCH  14  15
HETATM   15  N6  UNL     1      25.494  13.680  61.505  1.00  0.00    -0.345 N 
HETATM   16  C10 UNL     1      24.423  14.282  61.713  1.00  0.00     0.200 C 
HETATM   17  N7  UNL     1      23.471  13.679  62.613  1.00  0.00    -0.067 NA
HETATM   18  N8  UNL     1      24.057  15.512  61.140  1.00  0.00    -0.067 NA
ATOM     19  H6  UNL     1      25.542  12.805  62.026  1.00  0.00     0.167 HD
ENDBRANCH  14  15
ENDBRANCH  13  14
ENDBRANCH  11  13
ENDBRANCH   8  11
BRANCH   1  20
HETATM   20  N2  UNL     1      25.237  18.615  63.685  1.00  0.00    -0.157 N 
HETATM   21  C4  UNL     1      25.332  19.709  64.583  1.00  0.00     0.264 C 
HETATM   22  O1  UNL     1      24.593  20.703  64.382  1.00  0.00    -0.271 OA
ATOM     23  H2  UNL     1      24.566  17.866  63.857  1.00  0.00     0.187 HD
BRANCH  21  24
HETATM   24  C3  UNL     1      26.262  19.726  65.738  1.00  0.00     0.374 C 
BRANCH  24  25
HETATM   25  N1  UNL     1      26.165  18.498  66.471  1.00  0.00     0.088 N 
HETATM   26  C1  UNL     1      24.983  18.571  67.320  1.00  0.00     0.310 C 
HETATM   27  C2  UNL     1      27.357  18.346  67.313  1.00  0.00     0.310 C 
ENDBRANCH  24  25
ENDBRANCH  21  24
ENDBRANCH   1  20
TORSDOF 7
ENDMDL
MODEL 3
REMARK VINA RESULT: -6.845287645      2.254      5.770
REMARK  7 active torsions:
REMARK  status: ('A' for Active; 'I' for Inactive)
REMARK    1  A    between atoms: N1_2  and  C3_4 
REMARK    2  A    between atoms: C3_4  and  C4_5 
REMARK       I    between atoms: C4_5  and  N2_7 
REMARK    3  A    between atoms: N2_7  and  C5_9 
REMARK    4  A    between atoms: C7_16  and  N5_17 
REMARK    5  A    between atoms: N5_17  and  C8_19 
REMARK    6  A    between atoms: C8_19  and  C9_20 
REMARK    7  A    between atoms: C9_20  and  N6_21 
ROOT
HETATM    1  C5  UNL     1      27.605  19.733  62.663  1.00  0.00     0.701 A 
HETATM    2  N3  UNL     1      28.726  20.356  62.273  1.00  0.00    -0.129 N 
ATOM      3  H3  UNL     1      28.937  20.448  61.279  1.00  0.00     0.205 HD
HETATM    4  N4  UNL     1      29.564  20.853  63.175  1.00  0.00    -0.249 N 
ATOM      5  H4  UNL     1      30.417  21.326  62.876  1.00  0.00     0.191 HD
HETATM    6  C6  UNL     1      29.282  20.730  64.481  1.00  0.00     0.304 A 
HETATM    7  O2  UNL     1      30.085  21.205  65.291  1.00  0.00    -0.263 OA
HETATM    8  C7  UNL     1      28.137  20.094  64.905  1.00  0.00     0.187 A 
HETATM    9  N9  UNL     1      27.305  19.598  63.951  1.00  0.00    -0.170 N 
ATOM     10  H9  UNL     1      26.446  19.119  64.224  1.00  0.00     0.186 HD
ENDROOT
BRANCH   8  11
HETATM   11  N5  UNL     1      27.797  19.936  66.121  1.00  0.00    -0.367 N 
ATOM     12  H5  UNL     1      28.278  20.502  66.821  1.00  0.00     0.161 HD
BRANCH  11  13
HETATM   13  C8  UNL     1      26.781  19.017  66.589  1.00  0.00     0.165 C 
BRANCH  13  14
HETATM   14  C9  UNL     1      25.600  19.730  67.177  1.00  0.00     0.082 C 
BRANCH  14  15
HETATM   15  N6  UNL     1      24.438  19.525  66.427  1.00  0.00    -0.345 N 
HETATM   16  C10 UNL     1      23.969  19.944  65.351  1.00  0.00     0.200 C 
HETATM   17  N7  UNL     1      22.680  19.447  64.935  1.00  0.00    -0.067 NA
HETATM   18  N8  UNL     1      24.592  20.869  64.497  1.00  0.00    -0.067 NA
ATOM     19  H6  UNL     1      23.811  18.858  66.877  1.00  0.00     0.167 HD
ENDBRANCH  14  15
ENDBRANCH  13  14
ENDBRANCH  11  13
ENDBRANCH   8  11
BRANCH   1  20
HETATM   20  N2  UNL     1      26.817  19.263  61.767  1.00  0.00    -0.157 N 
HETATM   21  C4  UNL     1      26.266  17.967  61.933  1.00  0.00     0.264 C 
HETATM   22  O1  UNL     1      25.158  17.867  62.514  1.00  0.00    -0.271 OA
ATOM     23  H2  UNL     1      26.588  19.817  60.942  1.00  0.00     0.187 HD
BRANCH  21  24
HETATM   24  C3  UNL     1      26.938  16.737  61.452  1.00  0.00     0.374 C 
BRANCH  24  25
HETATM   25  N1  UNL     1      26.299  16.254  60.263  1.00  0.00     0.088 N 
HETATM   26  C1  UNL     1      26.676  14.858  60.082  1.00  0.00     0.310 C 
HETATM   27  C2  UNL     1      26.769  17.036  59.114  1.00  0.00     0.310 C 
ENDBRANCH  24  25
ENDBRANCH  21  24
ENDBRANCH   1  20
TORSDOF 7
ENDMDL
MODEL 4
REMARK VINA RESULT: -6.829168289      1.999      2.446
REMARK  7 active torsions:
REMARK  status: ('A' for Active; 'I' for Inactive)
REMARK    1  A    between atoms: N1_2  and  C3_4 
REMARK    2  A    between atoms: C3_4  and  C4_5 
REMARK       I    between atoms: C4_5  and  N2_7 
REMARK    3  A    between atoms: N2_7  and  C5_9 
REMARK    4  A    between atoms: C7_16  and  N5_17 
REMARK    5  A    between atoms: N5_17  and  C8_19 
REMARK    6  A    between atoms: C8_19  and  C9_20 
REMARK    7  A    between atoms: C9_20  and  N6_21 
ROOT
HETATM    1  C5  UNL     1      27.057  18.684  61.706  1.00  0.00     0.701 A 
HETATM    2  N3  UNL     1      27.620  19.446  60.757  1.00  0.00    -0.129 N 
ATOM      3  H3  UNL     1      28.020  20.352  61.003  1.00  0.00     0.205 HD
HETATM    4  N4  UNL     1      27.659  19.028  59.498  1.00  0.00    -0.249 N 
ATOM      5  H4  UNL     1      28.087  19.610  58.777  1.00  0.00     0.191 HD
HETATM    6  C6  UNL     1      27.133  17.836  59.178  1.00  0.00     0.304 A 
HETATM    7  O2  UNL     1      27.188  17.480  57.996  1.00  0.00    -0.263 OA
HETATM    8  C7  UNL     1      26.549  17.036  60.135  1.00  0.00     0.187 A 
HETATM    9  N9  UNL     1      26.528  17.501  61.413  1.00  0.00    -0.170 N 
ATOM     10  H9  UNL     1      26.104  16.938  62.151  1.00  0.00     0.186 HD
ENDROOT
BRANCH   8  11
HETATM   11  N5  UNL     1      26.029  15.896  59.915  1.00  0.00    -0.367 N 
ATOM     12  H5  UNL     1      25.032  15.867  59.700  1.00  0.00     0.161 HD
BRANCH  11  13
HETATM   13  C8  UNL     1      26.741  14.636  59.946  1.00  0.00     0.165 C 
BRANCH  13  14
HETATM   14  C9  UNL     1      26.725  14.012  61.310  1.00  0.00     0.082 C 
BRANCH  14  15
HETATM   15  N6  UNL     1      25.435  13.634  61.698  1.00  0.00    -0.345 N 
HETATM   16  C10 UNL     1      24.451  14.187  62.226  1.00  0.00     0.200 C 
HETATM   17  N7  UNL     1      23.270  13.391  62.457  1.00  0.00    -0.067 NA
HETATM   18  N8  UNL     1      24.389  15.534  62.622  1.00  0.00    -0.067 NA
ATOM     19  H6  UNL     1      25.252  12.652  61.495  1.00  0.00     0.167 HD
ENDBRANCH  14  15
ENDBRANCH  13  14
ENDBRANCH  11  13
ENDBRANCH   8  11
BRANCH   1  20
HETATM   20  N2  UNL     1      27.034  19.117  62.912  1.00  0.00    -0.157 N 
HETATM   21  C4  UNL     1      28.242  19.530  63.528  1.00  0.00     0.264 C 
HETATM   22  O1  UNL     1      28.570  20.738  63.432  1.00  0.00    -0.271 OA
ATOM     23  H2  UNL     1      26.153  19.163  63.426  1.00  0.00     0.187 HD
BRANCH  21  24
HETATM   24  C3  UNL     1      29.126  18.603  64.274  1.00  0.00     0.374 C 
BRANCH  24  25
HETATM   25  N1  UNL     1      30.471  18.698  63.785  1.00  0.00     0.088 N 
HETATM   26  C1  UNL     1      30.554  17.939  62.544  1.00  0.00     0.310 C 
HETATM   27  C2  UNL     1      31.383  18.112  64.774  1.00  0.00     0.310 C 
ENDBRANCH  24  25
ENDBRANCH  21  24
ENDBRANCH   1  20
TORSDOF 7
ENDMDL
MODEL 5
REMARK VINA RESULT: -6.827366125      2.180      3.361
REMARK  7 active torsions:
REMARK  status: ('A' for Active; 'I' for Inactive)
REMARK    1  A    between atoms: N1_2  and  C3_4 
REMARK    2  A    between atoms: C3_4  and  C4_5 
REMARK       I    between atoms: C4_5  and  N2_7 
REMARK    3  A    between atoms: N2_7  and  C5_9 
REMARK    4  A    between atoms: C7_16  and  N5_17 
REMARK    5  A    between atoms: N5_17  and  C8_19 
REMARK    6  A    between atoms: C8_19  and  C9_20 
REMARK    7  A    between atoms: C9_20  and  N6_21 
ROOT
HETATM    1  C5  UNL     1      24.432  17.271  63.090  1.00  0.00     0.701 A 
HETATM    2  N3  UNL     1      23.747  16.162  63.406  1.00  0.00    -0.129 N 
ATOM      3  H3  UNL     1      23.353  16.058  64.341  1.00  0.00     0.205 HD
HETATM    4  N4  UNL     1      23.579  15.200  62.508  1.00  0.00    -0.249 N 
ATOM      5  H4  UNL     1      23.059  14.357  62.750  1.00  0.00     0.191 HD
HETATM    6  C6  UNL     1      24.098  15.342  61.278  1.00  0.00     0.304 A 
HETATM    7  O2  UNL     1      23.921  14.426  60.469  1.00  0.00    -0.263 OA
HETATM    8  C7  UNL     1      24.805  16.472  60.930  1.00  0.00     0.187 A 
HETATM    9  N9  UNL     1      24.955  17.434  61.879  1.00  0.00    -0.170 N 
ATOM     10  H9  UNL     1      25.473  18.286  61.661  1.00  0.00     0.186 HD
ENDROOT
BRANCH   8  11
HETATM   11  N5  UNL     1      25.327  16.684  59.790  1.00  0.00    -0.367 N 
ATOM     12  H5  UNL     1      24.699  16.929  59.023  1.00  0.00     0.161 HD
BRANCH  11  13
HETATM   13  C8  UNL     1      26.742  16.606  59.494  1.00  0.00     0.165 C 
BRANCH  13  14
HETATM   14  C9  UNL     1      27.363  15.351  60.031  1.00  0.00     0.082 C 
BRANCH  14  15
HETATM   15  N6  UNL     1      28.223  15.610  61.103  1.00  0.00    -0.345 N 
HETATM   16  C10 UNL     1      28.159  15.566  62.347  1.00  0.00     0.200 C 
HETATM   17  N7  UNL     1      29.333  15.934  63.100  1.00  0.00    -0.067 NA
HETATM   18  N8  UNL     1      27.028  15.184  63.090  1.00  0.00    -0.067 NA
ATOM     19  H6  UNL     1      29.143  15.914  60.784  1.00  0.00     0.167 HD
ENDBRANCH  14  15
ENDBRANCH  13  14
ENDBRANCH  11  13
ENDBRANCH   8  11
BRANCH   1  20
HETATM   20  N2  UNL     1      24.577  18.182  63.980  1.00  0.00    -0.157 N 
HETATM   21  C4  UNL     1      25.746  18.984  63.974  1.00  0.00     0.264 C 
HETATM   22  O1  UNL     1      25.721  20.059  63.327  1.00  0.00    -0.271 OA
ATOM     23  H2  UNL     1      23.857  18.329  64.688  1.00  0.00     0.187 HD
BRANCH  21  24
HETATM   24  C3  UNL     1      26.986  18.608  64.695  1.00  0.00     0.374 C 
BRANCH  24  25
HETATM   25  N1  UNL     1      27.851  19.744  64.821  1.00  0.00     0.088 N 
HETATM   26  C1  UNL     1      29.201  19.325  64.467  1.00  0.00     0.310 C 
HETATM   27  C2  UNL     1      27.836  20.207  66.213  1.00  0.00     0.310 C 
ENDBRANCH  24  25
ENDBRANCH  21  24
ENDBRANCH   1  20
TORSDOF 7
ENDMDL
