MODEL 1
REMARK VINA RESULT: -5.460268704      0.000      0.000
REMARK  15 active torsions:
REMARK  status: ('A' for Active; 'I' for Inactive)
REMARK    1  A    between atoms: O1_2  and  N1_3 
REMARK    2  A    between atoms: N1_3  and  C2_5 
REMARK    3  A    between atoms: C2_5  and  N2_6 
REMARK    4  A    between atoms: C2_5  and  O5_37 
REMARK    5  A    between atoms: N2_6  and  C3_8 
REMARK    6  A    between atoms: C3_8  and  C4_9 
REMARK    7  A    between atoms: C5_11  and  N3_12 
REMARK    8  A    between atoms: C7_18  and  N6_19 
REMARK    9  A    between atoms: C8_24  and  N8_25 
REMARK   10  A    between atoms: C10_31  and  O3_32 
REMARK   11  A    between atoms: C11_34  and  O4_35 
REMARK   12  A    between atoms: O5_37  and  C12_38 
REMARK   13  A    between atoms: N10_39  and  C13_41 
REMARK   14  A    between atoms: C13_41  and  O6_42 
REMARK   15  A    between atoms: N13_51  and  O7_52 
ROOT
HETATM    1  C4  UNL     1      21.976   5.748   9.554  1.00  0.00     0.173 C 
HETATM    2  O2  UNL     1      23.136   5.537   8.770  1.00  0.00    -0.353 OA
HETATM    3  C5  UNL     1      23.544   6.835   8.562  1.00  0.00     0.279 C 
HETATM    4  C10 UNL     1      23.570   7.436   9.923  1.00  0.00     0.200 C 
HETATM    5  C11 UNL     1      22.498   6.676  10.666  1.00  0.00     0.181 C 
ENDROOT
BRANCH   1   6
HETATM    6  C3  UNL     1      21.441   4.486  10.118  1.00  0.00     0.153 C 
BRANCH   6   7
HETATM    7  N2  UNL     1      21.771   4.177  11.455  1.00  0.00    -0.377 N 
ATOM      8  H2  UNL     1      21.308   4.648  12.233  1.00  0.00     0.157 HD
BRANCH   7   9
HETATM    9  C2  UNL     1      22.773   3.185  11.688  1.00  0.00     0.352 C 
BRANCH   9  10
HETATM   10  N1  UNL     1      22.395   2.009  12.356  1.00  0.00    -0.256 N 
ATOM     11  H1  UNL     1      21.417   1.859  12.603  1.00  0.00     0.192 HD
BRANCH  10  12
HETATM   12  O1  UNL     1      23.289   1.106  12.663  1.00  0.00    -0.286 OA
HETATM   13  C1  UNL     1      23.651   0.349  11.544  1.00  0.00     0.237 C 
ENDBRANCH  10  12
ENDBRANCH   9  10
BRANCH   9  14
HETATM   14  O5  UNL     1      23.889   3.750  12.403  1.00  0.00    -0.302 OA
BRANCH  14  15
HETATM   15  C12 UNL     1      25.129   3.845  11.812  1.00  0.00     0.232 C 
HETATM   16  N10 UNL     1      25.179   4.216  10.570  1.00  0.00    -0.325 N 
ATOM     17  H10 UNL     1      24.293   4.416  10.106  1.00  0.00     0.169 HD
BRANCH  16  18
HETATM   18  C13 UNL     1      26.346   4.365   9.813  1.00  0.00     0.188 C 
HETATM   19  C14 UNL     1      26.838   3.417   9.018  1.00  0.00     0.189 A 
HETATM   20  N11 UNL     1      26.300   2.121   8.787  1.00  0.00    -0.168 N 
HETATM   21  N14 UNL     1      28.023   3.518   8.230  1.00  0.00    -0.240 N 
HETATM   22  C15 UNL     1      27.134   1.446   7.882  1.00  0.00     0.719 A 
ATOM     23  H11 UNL     1      25.451   1.745   9.208  1.00  0.00     0.186 HD
HETATM   24  N12 UNL     1      26.969   0.229   7.426  1.00  0.00    -0.231 N 
HETATM   25  N13 UNL     1      28.203   2.329   7.543  1.00  0.00     0.017 N 
ATOM     26 2H12 UNL     1      26.205  -0.403   7.667  1.00  0.00     0.174 HD
ATOM     27 1H12 UNL     1      27.575  -0.262   6.768  1.00  0.00     0.174 HD
ATOM     28  H14 UNL     1      28.636   4.332   8.181  1.00  0.00     0.192 HD
BRANCH  18  29
HETATM   29  O6  UNL     1      27.033   5.564   9.893  1.00  0.00    -0.343 OA
ATOM     30  H6  UNL     1      26.713   6.303   9.389  1.00  0.00     0.219 HD
ENDBRANCH  18  29
BRANCH  25  31
HETATM   31  O7  UNL     1      29.193   2.002   6.692  1.00  0.00    -0.254 OA
ATOM     32  H7  UNL     1      29.041   1.717   5.799  1.00  0.00     0.247 HD
ENDBRANCH  25  31
ENDBRANCH  16  18
ENDBRANCH  14  15
ENDBRANCH   9  14
ENDBRANCH   7   9
ENDBRANCH   6   7
ENDBRANCH   1   6
BRANCH   5  33
HETATM   33  O4  UNL     1      21.455   7.466  11.096  1.00  0.00    -0.390 OA
ATOM     34  H4  UNL     1      21.720   8.375  11.026  1.00  0.00     0.210 HD
ENDBRANCH   5  33
BRANCH   3  35
HETATM   35  N3  UNL     1      24.801   6.933   7.863  1.00  0.00    -0.227 N 
HETATM   36  N4  UNL     1      25.672   7.918   8.013  1.00  0.00    -0.236 N 
HETATM   37  N5  UNL     1      26.717   7.721   7.242  1.00  0.00    -0.279 N 
ATOM     38  H4  UNL     1      25.549   8.716   8.637  1.00  0.00     0.208 HD
HETATM   39  C6  UNL     1      26.545   6.578   6.558  1.00  0.00     0.140 A 
ATOM     40  H5  UNL     1      27.528   8.336   7.175  1.00  0.00     0.189 HD
HETATM   41  C7  UNL     1      27.326   5.923   5.634  1.00  0.00     0.147 A 
HETATM   42  C9  UNL     1      25.318   6.085   6.963  1.00  0.00     0.173 A 
HETATM   43  N7  UNL     1      26.857   4.771   5.125  1.00  0.00    -0.175 N 
HETATM   44  C8  UNL     1      25.648   4.304   5.537  1.00  0.00     0.679 A 
ATOM     45  H7  UNL     1      27.403   4.252   4.437  1.00  0.00     0.186 HD
HETATM   46  N9  UNL     1      24.897   4.943   6.432  1.00  0.00    -0.173 N 
ATOM     47  H9  UNL     1      23.996   4.554   6.710  1.00  0.00     0.186 HD
BRANCH  41  48
HETATM   48  N6  UNL     1      28.473   6.339   5.225  1.00  0.00    -0.383 N 
ATOM     49  H62 UNL     1      28.542   6.679   4.266  1.00  0.00     0.157 HD
ATOM     50  H61 UNL     1      29.319   6.351   5.794  1.00  0.00     0.157 HD
ENDBRANCH  41  48
BRANCH  44  51
HETATM   51  N8  UNL     1      25.191   3.181   5.043  1.00  0.00    -0.234 N 
ATOM     52  H82 UNL     1      24.933   2.442   5.697  1.00  0.00     0.174 HD
ATOM     53  H81 UNL     1      25.105   3.077   4.032  1.00  0.00     0.174 HD
ENDBRANCH  44  51
ENDBRANCH   3  35
BRANCH   4  54
HETATM   54  O3  UNL     1      24.788   7.277  10.579  1.00  0.00    -0.388 OA
ATOM     55  H3  UNL     1      24.981   7.973  11.196  1.00  0.00     0.210 HD
ENDBRANCH   4  54
TORSDOF 15
ENDMDL
MODEL 2
REMARK VINA RESULT: -5.181136115      2.298      3.585
REMARK  15 active torsions:
REMARK  status: ('A' for Active; 'I' for Inactive)
REMARK    1  A    between atoms: O1_2  and  N1_3 
REMARK    2  A    between atoms: N1_3  and  C2_5 
REMARK    3  A    between atoms: C2_5  and  N2_6 
REMARK    4  A    between atoms: C2_5  and  O5_37 
REMARK    5  A    between atoms: N2_6  and  C3_8 
REMARK    6  A    between atoms: C3_8  and  C4_9 
REMARK    7  A    between atoms: C5_11  and  N3_12 
REMARK    8  A    between atoms: C7_18  and  N6_19 
REMARK    9  A    between atoms: C8_24  and  N8_25 
REMARK   10  A    between atoms: C10_31  and  O3_32 
REMARK   11  A    between atoms: C11_34  and  O4_35 
REMARK   12  A    between atoms: O5_37  and  C12_38 
REMARK   13  A    between atoms: N10_39  and  C13_41 
REMARK   14  A    between atoms: C13_41  and  O6_42 
REMARK   15  A    between atoms: N13_51  and  O7_52 
ROOT
HETATM    1  C4  UNL     1      23.319   1.285  10.705  1.00  0.00     0.173 C 
HETATM    2  O2  UNL     1      24.152   2.179   9.991  1.00  0.00    -0.353 OA
HETATM    3  C5  UNL     1      23.687   3.389  10.455  1.00  0.00     0.279 C 
HETATM    4  C10 UNL     1      23.710   3.250  11.936  1.00  0.00     0.200 C 
HETATM    5  C11 UNL     1      23.484   1.774  12.156  1.00  0.00     0.181 C 
ENDROOT
BRANCH   1   6
HETATM    6  C3  UNL     1      23.754  -0.125  10.564  1.00  0.00     0.153 C 
BRANCH   6   7
HETATM    7  N2  UNL     1      24.191  -0.794  11.727  1.00  0.00    -0.377 N 
ATOM      8  H2  UNL     1      23.526  -1.102  12.437  1.00  0.00     0.157 HD
BRANCH   7   9
HETATM    9  C2  UNL     1      25.593  -1.026  11.882  1.00  0.00     0.352 C 
BRANCH   9  10
HETATM   10  N1  UNL     1      25.999  -2.062  12.739  1.00  0.00    -0.256 N 
ATOM     11  H1  UNL     1      26.618  -2.794  12.391  1.00  0.00     0.192 HD
BRANCH  10  12
HETATM   12  O1  UNL     1      25.589  -2.093  13.980  1.00  0.00    -0.286 OA
HETATM   13  C1  UNL     1      26.657  -2.273  14.863  1.00  0.00     0.237 C 
ENDBRANCH  10  12
ENDBRANCH   9  10
BRANCH   9  14
HETATM   14  O5  UNL     1      26.261   0.177  12.308  1.00  0.00    -0.302 OA
BRANCH  14  15
HETATM   15  C12 UNL     1      27.252   0.742  11.538  1.00  0.00     0.232 C 
HETATM   16  N10 UNL     1      26.930   1.743  10.779  1.00  0.00    -0.325 N 
ATOM     17  H10 UNL     1      25.958   2.051  10.799  1.00  0.00     0.169 HD
BRANCH  16  18
HETATM   18  C13 UNL     1      27.803   2.436   9.934  1.00  0.00     0.188 C 
HETATM   19  C14 UNL     1      28.273   1.942   8.789  1.00  0.00     0.189 A 
HETATM   20  N11 UNL     1      27.992   0.669   8.220  1.00  0.00    -0.168 N 
HETATM   21  N14 UNL     1      29.166   2.605   7.896  1.00  0.00    -0.240 N 
HETATM   22  C15 UNL     1      28.695   0.554   7.011  1.00  0.00     0.719 A 
ATOM     23  H11 UNL     1      27.382  -0.042   8.624  1.00  0.00     0.186 HD
HETATM   24  N12 UNL     1      28.692  -0.472   6.198  1.00  0.00    -0.231 N 
HETATM   25  N13 UNL     1      29.421   1.769   6.822  1.00  0.00     0.017 N 
ATOM     26 2H12 UNL     1      28.173  -1.340   6.333  1.00  0.00     0.174 HD
ATOM     27 1H12 UNL     1      29.203  -0.556   5.320  1.00  0.00     0.174 HD
ATOM     28  H14 UNL     1      29.552   3.540   8.027  1.00  0.00     0.192 HD
BRANCH  18  29
HETATM   29  O6  UNL     1      28.208   3.707  10.304  1.00  0.00    -0.343 OA
ATOM     30  H6  UNL     1      27.838   4.450   9.842  1.00  0.00     0.219 HD
ENDBRANCH  18  29
BRANCH  25  31
HETATM   31  O7  UNL     1      30.210   2.002   5.755  1.00  0.00    -0.254 OA
ATOM     32  H7  UNL     1      30.059   2.710   5.140  1.00  0.00     0.247 HD
ENDBRANCH  25  31
ENDBRANCH  16  18
ENDBRANCH  14  15
ENDBRANCH   9  14
ENDBRANCH   7   9
ENDBRANCH   6   7
ENDBRANCH   1   6
BRANCH   5  33
HETATM   33  O4  UNL     1      22.327   1.486  12.845  1.00  0.00    -0.390 OA
ATOM     34  H4  UNL     1      22.545   0.912  13.570  1.00  0.00     0.210 HD
ENDBRANCH   5  33
BRANCH   3  35
HETATM   35  N3  UNL     1      24.444   4.516   9.969  1.00  0.00    -0.227 N 
HETATM   36  N4  UNL     1      24.572   5.668  10.605  1.00  0.00    -0.236 N 
HETATM   37  N5  UNL     1      25.323   6.491   9.908  1.00  0.00    -0.279 N 
ATOM     38  H4  UNL     1      24.149   5.887  11.508  1.00  0.00     0.208 HD
HETATM   39  C6  UNL     1      25.706   5.877   8.776  1.00  0.00     0.140 A 
ATOM     40  H5  UNL     1      25.573   7.441  10.182  1.00  0.00     0.189 HD
HETATM   41  C7  UNL     1      26.486   6.286   7.718  1.00  0.00     0.147 A 
HETATM   42  C9  UNL     1      25.138   4.617   8.827  1.00  0.00     0.173 A 
HETATM   43  N7  UNL     1      26.685   5.412   6.717  1.00  0.00    -0.175 N 
HETATM   44  C8  UNL     1      26.117   4.178   6.786  1.00  0.00     0.679 A 
ATOM     45  H7  UNL     1      27.256   5.672   5.913  1.00  0.00     0.186 HD
HETATM   46  N9  UNL     1      25.363   3.789   7.813  1.00  0.00    -0.173 N 
ATOM     47  H9  UNL     1      24.958   2.854   7.821  1.00  0.00     0.186 HD
BRANCH  41  48
HETATM   48  N6  UNL     1      27.036   7.444   7.624  1.00  0.00    -0.383 N 
ATOM     49  H62 UNL     1      27.443   7.849   8.467  1.00  0.00     0.157 HD
ATOM     50  H61 UNL     1      27.092   7.989   6.763  1.00  0.00     0.157 HD
ENDBRANCH  41  48
BRANCH  44  51
HETATM   51  N8  UNL     1      26.311   3.325   5.812  1.00  0.00    -0.234 N 
ATOM     52  H82 UNL     1      27.092   3.494   5.178  1.00  0.00     0.174 HD
ATOM     53  H81 UNL     1      25.685   2.526   5.713  1.00  0.00     0.174 HD
ENDBRANCH  44  51
ENDBRANCH   3  35
BRANCH   4  54
HETATM   54  O3  UNL     1      24.922   3.623  12.512  1.00  0.00    -0.388 OA
ATOM     55  H3  UNL     1      25.226   3.021  13.181  1.00  0.00     0.210 HD
ENDBRANCH   4  54
TORSDOF 15
ENDMDL
MODEL 3
REMARK VINA RESULT: -5.164336462      2.298      3.741
REMARK  15 active torsions:
REMARK  status: ('A' for Active; 'I' for Inactive)
REMARK    1  A    between atoms: O1_2  and  N1_3 
REMARK    2  A    between atoms: N1_3  and  C2_5 
REMARK    3  A    between atoms: C2_5  and  N2_6 
REMARK    4  A    between atoms: C2_5  and  O5_37 
REMARK    5  A    between atoms: N2_6  and  C3_8 
REMARK    6  A    between atoms: C3_8  and  C4_9 
REMARK    7  A    between atoms: C5_11  and  N3_12 
REMARK    8  A    between atoms: C7_18  and  N6_19 
REMARK    9  A    between atoms: C8_24  and  N8_25 
REMARK   10  A    between atoms: C10_31  and  O3_32 
REMARK   11  A    between atoms: C11_34  and  O4_35 
REMARK   12  A    between atoms: O5_37  and  C12_38 
REMARK   13  A    between atoms: N10_39  and  C13_41 
REMARK   14  A    between atoms: C13_41  and  O6_42 
REMARK   15  A    between atoms: N13_51  and  O7_52 
ROOT
HETATM    1  C4  UNL     1      23.156   1.473  10.779  1.00  0.00     0.173 C 
HETATM    2  O2  UNL     1      23.792   2.468   9.997  1.00  0.00    -0.353 OA
HETATM    3  C5  UNL     1      23.417   3.605  10.675  1.00  0.00     0.279 C 
HETATM    4  C10 UNL     1      23.771   3.324  12.092  1.00  0.00     0.200 C 
HETATM    5  C11 UNL     1      23.629   1.825  12.202  1.00  0.00     0.181 C 
ENDROOT
BRANCH   1   6
HETATM    6  C3  UNL     1      23.577   0.104  10.399  1.00  0.00     0.153 C 
BRANCH   6   7
HETATM    7  N2  UNL     1      24.924  -0.085  10.022  1.00  0.00    -0.377 N 
ATOM      8  H2  UNL     1      25.275   0.270   9.132  1.00  0.00     0.157 HD
BRANCH   7   9
HETATM    9  C2  UNL     1      25.782  -0.788  10.923  1.00  0.00     0.352 C 
BRANCH   9  10
HETATM   10  N1  UNL     1      25.208  -1.355  12.073  1.00  0.00    -0.256 N 
ATOM     11  H1  UNL     1      24.529  -2.111  11.980  1.00  0.00     0.192 HD
BRANCH  10  12
HETATM   12  O1  UNL     1      25.539  -0.920  13.260  1.00  0.00    -0.286 OA
HETATM   13  C1  UNL     1      26.201  -1.907  13.996  1.00  0.00     0.237 C 
ENDBRANCH  10  12
ENDBRANCH   9  10
BRANCH   9  14
HETATM   14  O5  UNL     1      26.868   0.056  11.351  1.00  0.00    -0.302 OA
BRANCH  14  15
HETATM   15  C12 UNL     1      27.403   0.999  10.503  1.00  0.00     0.232 C 
HETATM   16  N10 UNL     1      26.912   2.198  10.546  1.00  0.00    -0.325 N 
ATOM     17  H10 UNL     1      26.155   2.369  11.208  1.00  0.00     0.169 HD
BRANCH  16  18
HETATM   18  C13 UNL     1      27.330   3.277   9.760  1.00  0.00     0.188 C 
HETATM   19  C14 UNL     1      26.931   3.477   8.505  1.00  0.00     0.189 A 
HETATM   20  N11 UNL     1      26.037   2.672   7.746  1.00  0.00    -0.168 N 
HETATM   21  N14 UNL     1      27.330   4.557   7.663  1.00  0.00    -0.240 N 
HETATM   22  C15 UNL     1      25.894   3.243   6.472  1.00  0.00     0.719 A 
ATOM     23  H11 UNL     1      25.578   1.822   8.073  1.00  0.00     0.186 HD
HETATM   24  N12 UNL     1      25.154   2.790   5.491  1.00  0.00    -0.231 N 
HETATM   25  N13 UNL     1      26.705   4.417   6.435  1.00  0.00     0.017 N 
ATOM     26 2H12 UNL     1      24.573   1.951   5.517  1.00  0.00     0.174 HD
ATOM     27 1H12 UNL     1      25.049   3.205   4.565  1.00  0.00     0.174 HD
ATOM     28  H14 UNL     1      27.971   5.307   7.921  1.00  0.00     0.192 HD
BRANCH  18  29
HETATM   29  O6  UNL     1      28.212   4.190  10.312  1.00  0.00    -0.343 OA
ATOM     30  H6  UNL     1      27.929   5.092  10.403  1.00  0.00     0.219 HD
ENDBRANCH  18  29
BRANCH  25  31
HETATM   31  O7  UNL     1      26.805   5.215   5.355  1.00  0.00    -0.254 OA
ATOM     32  H7  UNL     1      26.062   5.461   4.817  1.00  0.00     0.247 HD
ENDBRANCH  25  31
ENDBRANCH  16  18
ENDBRANCH  14  15
ENDBRANCH   9  14
ENDBRANCH   7   9
ENDBRANCH   6   7
ENDBRANCH   1   6
BRANCH   5  33
HETATM   33  O4  UNL     1      22.659   1.422  13.092  1.00  0.00    -0.390 OA
ATOM     34  H4  UNL     1      22.983   1.567  13.973  1.00  0.00     0.210 HD
ENDBRANCH   5  33
BRANCH   3  35
HETATM   35  N3  UNL     1      24.024   4.805  10.155  1.00  0.00    -0.227 N 
HETATM   36  N4  UNL     1      24.823   5.605  10.843  1.00  0.00    -0.236 N 
HETATM   37  N5  UNL     1      25.215   6.610  10.094  1.00  0.00    -0.279 N 
ATOM     38  H4  UNL     1      25.095   5.461  11.816  1.00  0.00     0.208 HD
HETATM   39  C6  UNL     1      24.666   6.484   8.874  1.00  0.00     0.140 A 
ATOM     40  H5  UNL     1      25.835   7.363  10.390  1.00  0.00     0.189 HD
HETATM   41  C7  UNL     1      24.751   7.251   7.735  1.00  0.00     0.147 A 
HETATM   42  C9  UNL     1      23.908   5.328   8.927  1.00  0.00     0.173 A 
HETATM   43  N7  UNL     1      24.065   6.841   6.655  1.00  0.00    -0.175 N 
HETATM   44  C8  UNL     1      23.326   5.702   6.727  1.00  0.00     0.679 A 
ATOM     45  H7  UNL     1      24.099   7.379   5.789  1.00  0.00     0.186 HD
HETATM   46  N9  UNL     1      23.248   4.964   7.833  1.00  0.00    -0.173 N 
ATOM     47  H9  UNL     1      22.680   4.117   7.841  1.00  0.00     0.186 HD
BRANCH  41  48
HETATM   48  N6  UNL     1      25.441   8.332   7.635  1.00  0.00    -0.383 N 
ATOM     49  H62 UNL     1      25.374   9.012   8.393  1.00  0.00     0.157 HD
ATOM     50  H61 UNL     1      26.050   8.558   6.849  1.00  0.00     0.157 HD
ENDBRANCH  41  48
BRANCH  44  51
HETATM   51  N8  UNL     1      22.658   5.301   5.675  1.00  0.00    -0.234 N 
ATOM     52  H82 UNL     1      22.543   4.297   5.536  1.00  0.00     0.174 HD
ATOM     53  H81 UNL     1      22.275   5.993   5.031  1.00  0.00     0.174 HD
ENDBRANCH  44  51
ENDBRANCH   3  35
BRANCH   4  54
HETATM   54  O3  UNL     1      25.072   3.691  12.425  1.00  0.00    -0.388 OA
ATOM     55  H3  UNL     1      25.698   3.549  11.725  1.00  0.00     0.210 HD
ENDBRANCH   4  54
TORSDOF 15
ENDMDL
MODEL 4
REMARK VINA RESULT: -5.149034843      1.913      2.671
REMARK  15 active torsions:
REMARK  status: ('A' for Active; 'I' for Inactive)
REMARK    1  A    between atoms: O1_2  and  N1_3 
REMARK    2  A    between atoms: N1_3  and  C2_5 
REMARK    3  A    between atoms: C2_5  and  N2_6 
REMARK    4  A    between atoms: C2_5  and  O5_37 
REMARK    5  A    between atoms: N2_6  and  C3_8 
REMARK    6  A    between atoms: C3_8  and  C4_9 
REMARK    7  A    between atoms: C5_11  and  N3_12 
REMARK    8  A    between atoms: C7_18  and  N6_19 
REMARK    9  A    between atoms: C8_24  and  N8_25 
REMARK   10  A    between atoms: C10_31  and  O3_32 
REMARK   11  A    between atoms: C11_34  and  O4_35 
REMARK   12  A    between atoms: O5_37  and  C12_38 
REMARK   13  A    between atoms: N10_39  and  C13_41 
REMARK   14  A    between atoms: C13_41  and  O6_42 
REMARK   15  A    between atoms: N13_51  and  O7_52 
ROOT
HETATM    1  C4  UNL     1      21.794   5.343   9.707  1.00  0.00     0.173 C 
HETATM    2  O2  UNL     1      22.972   5.564   8.953  1.00  0.00    -0.353 OA
HETATM    3  C5  UNL     1      22.959   6.937   8.856  1.00  0.00     0.279 C 
HETATM    4  C10 UNL     1      22.780   7.405  10.256  1.00  0.00     0.200 C 
HETATM    5  C11 UNL     1      21.988   6.295  10.903  1.00  0.00     0.181 C 
ENDROOT
BRANCH   1   6
HETATM    6  C3  UNL     1      21.671   3.936  10.159  1.00  0.00     0.153 C 
BRANCH   6   7
HETATM    7  N2  UNL     1      21.976   3.654  11.508  1.00  0.00    -0.377 N 
ATOM      8  H2  UNL     1      21.458   4.097  12.267  1.00  0.00     0.157 HD
BRANCH   7   9
HETATM    9  C2  UNL     1      23.033   2.731  11.779  1.00  0.00     0.352 C 
BRANCH   9  10
HETATM   10  N1  UNL     1      22.762   1.651  12.636  1.00  0.00    -0.256 N 
ATOM     11  H1  UNL     1      23.408   1.431  13.393  1.00  0.00     0.192 HD
BRANCH  10  12
HETATM   12  O1  UNL     1      21.686   0.927  12.467  1.00  0.00    -0.286 OA
HETATM   13  C1  UNL     1      21.808   0.087  11.357  1.00  0.00     0.237 C 
ENDBRANCH  10  12
ENDBRANCH   9  10
BRANCH   9  14
HETATM   14  O5  UNL     1      24.186   3.420  12.301  1.00  0.00    -0.302 OA
BRANCH  14  15
HETATM   15  C12 UNL     1      25.068   4.054  11.457  1.00  0.00     0.232 C 
HETATM   16  N10 UNL     1      25.856   3.314  10.741  1.00  0.00    -0.325 N 
ATOM     17  H10 UNL     1      25.773   2.303  10.848  1.00  0.00     0.169 HD
BRANCH  16  18
HETATM   18  C13 UNL     1      26.811   3.785   9.834  1.00  0.00     0.188 C 
HETATM   19  C14 UNL     1      26.547   4.061   8.557  1.00  0.00     0.189 A 
HETATM   20  N11 UNL     1      25.296   3.941   7.890  1.00  0.00    -0.168 N 
HETATM   21  N14 UNL     1      27.483   4.539   7.594  1.00  0.00    -0.240 N 
HETATM   22  C15 UNL     1      25.463   4.334   6.553  1.00  0.00     0.719 A 
ATOM     23  H11 UNL     1      24.425   3.622   8.313  1.00  0.00     0.186 HD
HETATM   24  N12 UNL     1      24.540   4.359   5.625  1.00  0.00    -0.231 N 
HETATM   25  N13 UNL     1      26.831   4.704   6.384  1.00  0.00     0.017 N 
ATOM     26 2H12 UNL     1      23.562   4.095   5.746  1.00  0.00     0.174 HD
ATOM     27 1H12 UNL     1      24.660   4.645   4.654  1.00  0.00     0.174 HD
ATOM     28  H14 UNL     1      28.471   4.728   7.767  1.00  0.00     0.192 HD
BRANCH  18  29
HETATM   29  O6  UNL     1      28.107   3.975  10.281  1.00  0.00    -0.343 OA
ATOM     30  H6  UNL     1      28.811   3.522   9.832  1.00  0.00     0.219 HD
ENDBRANCH  18  29
BRANCH  25  31
HETATM   31  O7  UNL     1      27.342   5.135   5.214  1.00  0.00    -0.254 OA
ATOM     32  H7  UNL     1      27.903   5.897   5.139  1.00  0.00     0.247 HD
ENDBRANCH  25  31
ENDBRANCH  16  18
ENDBRANCH  14  15
ENDBRANCH   9  14
ENDBRANCH   7   9
ENDBRANCH   6   7
ENDBRANCH   1   6
BRANCH   5  33
HETATM   33  O4  UNL     1      20.746   6.686  11.350  1.00  0.00    -0.390 OA
ATOM     34  H4  UNL     1      20.739   7.633  11.420  1.00  0.00     0.210 HD
ENDBRANCH   5  33
BRANCH   3  35
HETATM   35  N3  UNL     1      24.132   7.475   8.212  1.00  0.00    -0.227 N 
HETATM   36  N4  UNL     1      25.374   7.278   8.623  1.00  0.00    -0.236 N 
HETATM   37  N5  UNL     1      26.219   7.894   7.827  1.00  0.00    -0.279 N 
ATOM     38  H4  UNL     1      25.638   6.727   9.440  1.00  0.00     0.208 HD
HETATM   39  C6  UNL     1      25.528   8.520   6.860  1.00  0.00     0.140 A 
ATOM     40  H5  UNL     1      27.234   7.897   7.928  1.00  0.00     0.189 HD
HETATM   41  C7  UNL     1      25.921   9.294   5.792  1.00  0.00     0.147 A 
HETATM   42  C9  UNL     1      24.197   8.245   7.117  1.00  0.00     0.173 A 
HETATM   43  N7  UNL     1      24.961   9.784   4.990  1.00  0.00    -0.175 N 
HETATM   44  C8  UNL     1      23.658   9.501   5.260  1.00  0.00     0.679 A 
ATOM     45  H7  UNL     1      25.206  10.362   4.186  1.00  0.00     0.186 HD
HETATM   46  N9  UNL     1      23.285   8.752   6.296  1.00  0.00    -0.173 N 
ATOM     47  H9  UNL     1      22.295   8.567   6.460  1.00  0.00     0.186 HD
BRANCH  41  48
HETATM   48  N6  UNL     1      27.143   9.578   5.510  1.00  0.00    -0.383 N 
ATOM     49  H62 UNL     1      27.753   9.871   6.274  1.00  0.00     0.157 HD
ATOM     50  H61 UNL     1      27.546   9.532   4.574  1.00  0.00     0.157 HD
ENDBRANCH  41  48
BRANCH  44  51
HETATM   51  N8  UNL     1      22.721   9.977   4.480  1.00  0.00    -0.234 N 
ATOM     52  H82 UNL     1      22.905  10.006   3.477  1.00  0.00     0.174 HD
ATOM     53  H81 UNL     1      21.845  10.301   4.889  1.00  0.00     0.174 HD
ENDBRANCH  44  51
ENDBRANCH   3  35
BRANCH   4  54
HETATM   54  O3  UNL     1      23.979   7.578  10.943  1.00  0.00    -0.388 OA
ATOM     55  H3  UNL     1      23.941   7.297  11.850  1.00  0.00     0.210 HD
ENDBRANCH   4  54
TORSDOF 15
ENDMDL
MODEL 5
REMARK VINA RESULT: -5.143321137      2.345      4.345
REMARK  15 active torsions:
REMARK  status: ('A' for Active; 'I' for Inactive)
REMARK    1  A    between atoms: O1_2  and  N1_3 
REMARK    2  A    between atoms: N1_3  and  C2_5 
REMARK    3  A    between atoms: C2_5  and  N2_6 
REMARK    4  A    between atoms: C2_5  and  O5_37 
REMARK    5  A    between atoms: N2_6  and  C3_8 
REMARK    6  A    between atoms: C3_8  and  C4_9 
REMARK    7  A    between atoms: C5_11  and  N3_12 
REMARK    8  A    between atoms: C7_18  and  N6_19 
REMARK    9  A    between atoms: C8_24  and  N8_25 
REMARK   10  A    between atoms: C10_31  and  O3_32 
REMARK   11  A    between atoms: C11_34  and  O4_35 
REMARK   12  A    between atoms: O5_37  and  C12_38 
REMARK   13  A    between atoms: N10_39  and  C13_41 
REMARK   14  A    between atoms: C13_41  and  O6_42 
REMARK   15  A    between atoms: N13_51  and  O7_52 
ROOT
HETATM    1  C4  UNL     1      22.881   1.338  10.920  1.00  0.00     0.173 C 
HETATM    2  O2  UNL     1      23.037   2.362   9.955  1.00  0.00    -0.353 OA
HETATM    3  C5  UNL     1      22.323   3.380  10.545  1.00  0.00     0.279 C 
HETATM    4  C10 UNL     1      22.870   3.463  11.926  1.00  0.00     0.200 C 
HETATM    5  C11 UNL     1      23.304   2.047  12.220  1.00  0.00     0.181 C 
ENDROOT
BRANCH   1   6
HETATM    6  C3  UNL     1      23.749   0.168  10.643  1.00  0.00     0.153 C 
BRANCH   6   7
HETATM    7  N2  UNL     1      24.328  -0.492  11.748  1.00  0.00    -0.377 N 
ATOM      8  H2  UNL     1      23.746  -0.947  12.452  1.00  0.00     0.157 HD
BRANCH   7   9
HETATM    9  C2  UNL     1      25.753  -0.504  11.852  1.00  0.00     0.352 C 
BRANCH   9  10
HETATM   10  N1  UNL     1      26.334  -1.276  12.872  1.00  0.00    -0.256 N 
ATOM     11  H1  UNL     1      27.092  -1.922  12.649  1.00  0.00     0.192 HD
BRANCH  10  12
HETATM   12  O1  UNL     1      25.909  -1.173  14.103  1.00  0.00    -0.286 OA
HETATM   13  C1  UNL     1      26.285  -2.283  14.865  1.00  0.00     0.237 C 
ENDBRANCH  10  12
ENDBRANCH   9  10
BRANCH   9  14
HETATM   14  O5  UNL     1      26.262   0.838  11.981  1.00  0.00    -0.302 OA
BRANCH  14  15
HETATM   15  C12 UNL     1      26.868   1.465  10.916  1.00  0.00     0.232 C 
HETATM   16  N10 UNL     1      26.279   2.504  10.412  1.00  0.00    -0.325 N 
ATOM     17  H10 UNL     1      25.398   2.794  10.838  1.00  0.00     0.169 HD
BRANCH  16  18
HETATM   18  C13 UNL     1      26.748   3.262   9.334  1.00  0.00     0.188 C 
HETATM   19  C14 UNL     1      26.579   4.579   9.225  1.00  0.00     0.189 A 
HETATM   20  N11 UNL     1      25.918   5.441  10.143  1.00  0.00    -0.168 N 
HETATM   21  N14 UNL     1      27.034   5.395   8.147  1.00  0.00    -0.240 N 
HETATM   22  C15 UNL     1      25.966   6.751   9.640  1.00  0.00     0.719 A 
ATOM     23  H11 UNL     1      25.482   5.156  11.019  1.00  0.00     0.186 HD
HETATM   24  N12 UNL     1      25.465   7.823  10.201  1.00  0.00    -0.231 N 
HETATM   25  N13 UNL     1      26.665   6.706   8.396  1.00  0.00     0.017 N 
ATOM     26 2H12 UNL     1      24.966   7.855  11.090  1.00  0.00     0.174 HD
ATOM     27 1H12 UNL     1      25.500   8.774   9.836  1.00  0.00     0.174 HD
ATOM     28  H14 UNL     1      27.546   5.066   7.328  1.00  0.00     0.192 HD
BRANCH  18  29
HETATM   29  O6  UNL     1      27.427   2.611   8.318  1.00  0.00    -0.343 OA
ATOM     30  H6  UNL     1      28.376   2.608   8.339  1.00  0.00     0.219 HD
ENDBRANCH  18  29
BRANCH  25  31
HETATM   31  O7  UNL     1      26.895   7.793   7.636  1.00  0.00    -0.254 OA
ATOM     32  H7  UNL     1      26.782   7.804   6.693  1.00  0.00     0.247 HD
ENDBRANCH  25  31
ENDBRANCH  16  18
ENDBRANCH  14  15
ENDBRANCH   9  14
ENDBRANCH   7   9
ENDBRANCH   6   7
ENDBRANCH   1   6
BRANCH   5  33
HETATM   33  O4  UNL     1      22.629   1.465  13.270  1.00  0.00    -0.390 OA
ATOM     34  H4  UNL     1      22.610   2.082  13.991  1.00  0.00     0.210 HD
ENDBRANCH   5  33
BRANCH   3  35
HETATM   35  N3  UNL     1      22.397   4.624   9.820  1.00  0.00    -0.227 N 
HETATM   36  N4  UNL     1      21.940   5.784  10.264  1.00  0.00    -0.236 N 
HETATM   37  N5  UNL     1      22.157   6.728   9.376  1.00  0.00    -0.279 N 
ATOM     38  H4  UNL     1      21.484   5.925  11.167  1.00  0.00     0.208 HD
HETATM   39  C6  UNL     1      22.774   6.190   8.311  1.00  0.00     0.140 A 
ATOM     40  H5  UNL     1      21.900   7.709   9.480  1.00  0.00     0.189 HD
HETATM   41  C7  UNL     1      23.218   6.730   7.126  1.00  0.00     0.147 A 
HETATM   42  C9  UNL     1      22.920   4.847   8.607  1.00  0.00     0.173 A 
HETATM   43  N7  UNL     1      23.809   5.903   6.247  1.00  0.00    -0.175 N 
HETATM   44  C8  UNL     1      23.943   4.586   6.557  1.00  0.00     0.679 A 
ATOM     45  H7  UNL     1      24.153   6.260   5.355  1.00  0.00     0.186 HD
HETATM   46  N9  UNL     1      23.511   4.070   7.706  1.00  0.00    -0.173 N 
ATOM     47  H9  UNL     1      23.633   3.075   7.894  1.00  0.00     0.186 HD
BRANCH  41  48
HETATM   48  N6  UNL     1      23.105   7.970   6.804  1.00  0.00    -0.383 N 
ATOM     49  H62 UNL     1      22.859   8.191   5.839  1.00  0.00     0.157 HD
ATOM     50  H61 UNL     1      23.247   8.749   7.447  1.00  0.00     0.157 HD
ENDBRANCH  41  48
BRANCH  44  51
HETATM   51  N8  UNL     1      24.520   3.780   5.702  1.00  0.00    -0.234 N 
ATOM     52  H82 UNL     1      25.482   3.982   5.429  1.00  0.00     0.174 HD
ATOM     53  H81 UNL     1      23.999   2.982   5.336  1.00  0.00     0.174 HD
ENDBRANCH  44  51
ENDBRANCH   3  35
BRANCH   4  54
HETATM   54  O3  UNL     1      23.965   4.315  12.043  1.00  0.00    -0.388 OA
ATOM     55  H3  UNL     1      24.801   3.873  11.955  1.00  0.00     0.210 HD
ENDBRANCH   4  54
TORSDOF 15
ENDMDL
