MODEL 1
REMARK VINA RESULT: -5.654867729      0.000      0.000
REMARK  21 active torsions:
REMARK  status: ('A' for Active; 'I' for Inactive)
REMARK    1  A    between atoms: N1_1  and  C1_4 
REMARK    2  A    between atoms: N4_12  and  C5_13 
REMARK    3  A    between atoms: C5_13  and  C6_14 
REMARK    4  A    between atoms: C6_14  and  O1_15 
REMARK    5  A    between atoms: C6_14  and  N5_17 
REMARK    6  A    between atoms: N5_17  and  N6_18 
REMARK    7  A    between atoms: N5_17  and  C7_22 
REMARK    8  A    between atoms: N6_18  and  O2_20 
REMARK    9  A    between atoms: C7_22  and  O3_23 
REMARK   10  A    between atoms: C7_22  and  C8_25 
REMARK   11  A    between atoms: C8_25  and  O4_26 
REMARK   12  A    between atoms: C8_25  and  C9_28 
REMARK   13  A    between atoms: C9_28  and  O5_29 
REMARK   14  A    between atoms: C9_28  and  O6_31 
REMARK   15  A    between atoms: C10_33  and  N7_34 
REMARK   16  A    between atoms: C11_35  and  O7_36 
REMARK   17  A    between atoms: C13_40  and  C14_41 
REMARK   18  A    between atoms: C14_41  and  N9_42 
REMARK   19  A    between atoms: C14_41  and  O8_46 
REMARK   20  A    between atoms: C15_48  and  O9_49 
REMARK   21  A    between atoms: C16_51  and  N10_52 
ROOT
HETATM    1  C1  UNL     1      24.915   2.246   7.925  1.00  0.00     0.679 A 
HETATM    2  N2  UNL     1      24.230   3.306   8.393  1.00  0.00    -0.174 N 
ATOM      3  H2  UNL     1      23.847   3.991   7.742  1.00  0.00     0.186 HD
HETATM    4  C2  UNL     1      24.047   3.468   9.733  1.00  0.00     0.155 A 
HETATM    5  C3  UNL     1      24.580   2.522  10.581  1.00  0.00     0.124 A 
HETATM    6  N3  UNL     1      24.277   2.887  11.840  1.00  0.00    -0.346 N 
ATOM      7  H3  UNL     1      24.531   2.390  12.693  1.00  0.00     0.167 HD
HETATM    8  C4  UNL     1      23.574   4.031  11.759  1.00  0.00     0.185 A 
HETATM    9  N4  UNL     1      23.420   4.407  10.473  1.00  0.00    -0.323 N 
HETATM   10  C10 UNL     1      25.284   1.433  10.110  1.00  0.00     0.162 A 
HETATM   11  N11 UNL     1      25.434   1.321   8.780  1.00  0.00    -0.174 N 
ATOM     12  H11 UNL     1      25.948   0.525   8.402  1.00  0.00     0.186 HD
ENDROOT
BRANCH  10  13
HETATM   13  N7  UNL     1      25.819   0.478  11.021  1.00  0.00    -0.257 N 
HETATM   14  C11 UNL     1      27.094   0.552  11.435  1.00  0.00     0.175 A 
HETATM   15  C12 UNL     1      27.579  -0.375  12.306  1.00  0.00     0.111 A 
HETATM   16  N8  UNL     1      28.911  -0.298  12.739  1.00  0.00    -0.097 NA
HETATM   17  C13 UNL     1      26.793  -1.420  12.798  1.00  0.00     0.062 A 
HETATM   18  C15 UNL     1      25.489  -1.472  12.356  1.00  0.00     0.122 A 
HETATM   19  C16 UNL     1      25.013  -0.508  11.461  1.00  0.00     0.143 A 
BRANCH  14  20
HETATM   20  O7  UNL     1      27.883   1.584  10.954  1.00  0.00    -0.344 OA
ATOM     21  H7  UNL     1      28.734   1.725  11.352  1.00  0.00     0.219 HD
ENDBRANCH  14  20
BRANCH  17  22
HETATM   22  C14 UNL     1      27.360  -2.410  13.746  1.00  0.00     0.355 C 
BRANCH  22  23
HETATM   23  N9  UNL     1      26.628  -2.292  15.016  1.00  0.00    -0.049 N 
ATOM     24  H93 UNL     1      25.728  -1.823  14.911  1.00  0.00     0.277 HD
ATOM     25  H92 UNL     1      26.276  -3.188  15.353  1.00  0.00     0.277 HD
ATOM     26  H91 UNL     1      27.238  -1.829  15.689  1.00  0.00     0.277 HD
ENDBRANCH  22  23
BRANCH  22  27
HETATM   27  O8  UNL     1      27.201  -3.718  13.305  1.00  0.00    -0.366 OA
ATOM     28  H8  UNL     1      27.242  -3.789  12.358  1.00  0.00     0.212 HD
ENDBRANCH  22  27
ENDBRANCH  17  22
BRANCH  18  29
HETATM   29  O9  UNL     1      24.691  -2.489  12.822  1.00  0.00    -0.356 OA
ATOM     30  H9  UNL     1      24.164  -2.965  12.192  1.00  0.00     0.218 HD
ENDBRANCH  18  29
BRANCH  19  31
HETATM   31  N10 UNL     1      23.803  -0.596  11.081  1.00  0.00    -0.383 N 
ATOM     32 2H10 UNL     1      23.448   0.122  10.450  1.00  0.00     0.157 HD
ATOM     33 1H10 UNL     1      23.200  -1.358  11.393  1.00  0.00     0.157 HD
ENDBRANCH  19  31
ENDBRANCH  10  13
BRANCH   1  34
HETATM   34  N1  UNL     1      25.124   2.034   6.669  1.00  0.00    -0.234 N 
ATOM     35  H12 UNL     1      25.875   2.577   6.242  1.00  0.00     0.174 HD
ATOM     36  H11 UNL     1      24.584   1.369   6.115  1.00  0.00     0.174 HD
ENDBRANCH   1  34
BRANCH   9  37
HETATM   37  C5  UNL     1      22.728   5.577   9.969  1.00  0.00     0.186 C 
BRANCH  37  38
HETATM   38  C6  UNL     1      23.164   6.820  10.681  1.00  0.00     0.258 C 
BRANCH  38  39
HETATM   39  O1  UNL     1      22.127   7.742  10.685  1.00  0.00    -0.373 OA
ATOM     40  H1  UNL     1      21.611   7.637  11.477  1.00  0.00     0.212 HD
ENDBRANCH  38  39
BRANCH  38  41
HETATM   41  N5  UNL     1      24.352   7.413  10.177  1.00  0.00    -0.247 N 
BRANCH  41  42
HETATM   42  N6  UNL     1      25.118   8.206  11.042  1.00  0.00    -0.208 N 
ATOM     43  H6  UNL     1      26.043   8.499  10.729  1.00  0.00     0.215 HD
BRANCH  42  44
HETATM   44  O2  UNL     1      24.740   8.571  12.163  1.00  0.00    -0.274 OA
ATOM     45  H2  UNL     1      25.041   8.185  12.977  1.00  0.00     0.246 HD
ENDBRANCH  42  44
ENDBRANCH  41  42
BRANCH  41  46
HETATM   46  C7  UNL     1      24.831   7.253   8.817  1.00  0.00     0.273 C 
BRANCH  46  47
HETATM   47  O3  UNL     1      25.148   8.476   8.257  1.00  0.00    -0.372 OA
ATOM     48  H3  UNL     1      24.449   8.783   7.691  1.00  0.00     0.212 HD
ENDBRANCH  46  47
BRANCH  46  49
HETATM   49  C8  UNL     1      26.084   6.410   8.850  1.00  0.00     0.223 C 
BRANCH  49  50
HETATM   50  O4  UNL     1      27.131   7.093   9.421  1.00  0.00    -0.386 OA
ATOM     51  H4  UNL     1      27.965   6.801   9.072  1.00  0.00     0.210 HD
ENDBRANCH  49  50
BRANCH  49  52
HETATM   52  C9  UNL     1      26.424   5.866   7.487  1.00  0.00     0.286 C 
BRANCH  52  53
HETATM   53  O5  UNL     1      25.246   5.754   6.745  1.00  0.00    -0.369 OA
ATOM     54  H5  UNL     1      24.515   5.683   7.346  1.00  0.00     0.212 HD
ENDBRANCH  52  53
BRANCH  52  55
HETATM   55  O6  UNL     1      27.027   4.616   7.656  1.00  0.00    -0.369 OA
ATOM     56  H6  UNL     1      27.966   4.725   7.556  1.00  0.00     0.212 HD
ENDBRANCH  52  55
ENDBRANCH  49  52
ENDBRANCH  46  49
ENDBRANCH  41  46
ENDBRANCH  38  41
ENDBRANCH  37  38
ENDBRANCH   9  37
TORSDOF 21
ENDMDL
MODEL 2
REMARK VINA RESULT: -5.552401756      1.149      1.956
REMARK  21 active torsions:
REMARK  status: ('A' for Active; 'I' for Inactive)
REMARK    1  A    between atoms: N1_1  and  C1_4 
REMARK    2  A    between atoms: N4_12  and  C5_13 
REMARK    3  A    between atoms: C5_13  and  C6_14 
REMARK    4  A    between atoms: C6_14  and  O1_15 
REMARK    5  A    between atoms: C6_14  and  N5_17 
REMARK    6  A    between atoms: N5_17  and  N6_18 
REMARK    7  A    between atoms: N5_17  and  C7_22 
REMARK    8  A    between atoms: N6_18  and  O2_20 
REMARK    9  A    between atoms: C7_22  and  O3_23 
REMARK   10  A    between atoms: C7_22  and  C8_25 
REMARK   11  A    between atoms: C8_25  and  O4_26 
REMARK   12  A    between atoms: C8_25  and  C9_28 
REMARK   13  A    between atoms: C9_28  and  O5_29 
REMARK   14  A    between atoms: C9_28  and  O6_31 
REMARK   15  A    between atoms: C10_33  and  N7_34 
REMARK   16  A    between atoms: C11_35  and  O7_36 
REMARK   17  A    between atoms: C13_40  and  C14_41 
REMARK   18  A    between atoms: C14_41  and  N9_42 
REMARK   19  A    between atoms: C14_41  and  O8_46 
REMARK   20  A    between atoms: C15_48  and  O9_49 
REMARK   21  A    between atoms: C16_51  and  N10_52 
ROOT
HETATM    1  C1  UNL     1      23.866   1.707   8.183  1.00  0.00     0.679 A 
HETATM    2  N2  UNL     1      23.437   2.903   8.628  1.00  0.00    -0.174 N 
ATOM      3  H2  UNL     1      22.926   3.524   8.002  1.00  0.00     0.186 HD
HETATM    4  C2  UNL     1      23.684   3.287   9.912  1.00  0.00     0.155 A 
HETATM    5  C3  UNL     1      24.378   2.421  10.727  1.00  0.00     0.124 A 
HETATM    6  N3  UNL     1      24.501   3.007  11.932  1.00  0.00    -0.346 N 
ATOM      7  H3  UNL     1      24.966   2.616  12.752  1.00  0.00     0.167 HD
HETATM    8  C4  UNL     1      23.894   4.204  11.851  1.00  0.00     0.185 A 
HETATM    9  N4  UNL     1      23.384   4.398  10.617  1.00  0.00    -0.323 N 
HETATM   10  C10 UNL     1      24.821   1.194  10.280  1.00  0.00     0.162 A 
HETATM   11  N11 UNL     1      24.550   0.864   9.007  1.00  0.00    -0.174 N 
ATOM     12  H11 UNL     1      24.864  -0.037   8.648  1.00  0.00     0.186 HD
ENDROOT
BRANCH  10  13
HETATM   13  N7  UNL     1      25.535   0.327  11.156  1.00  0.00    -0.257 N 
HETATM   14  C11 UNL     1      24.911  -0.665  11.811  1.00  0.00     0.175 A 
HETATM   15  C12 UNL     1      25.618  -1.479  12.642  1.00  0.00     0.111 A 
HETATM   16  N8  UNL     1      24.967  -2.516  13.327  1.00  0.00    -0.097 NA
HETATM   17  C13 UNL     1      26.992  -1.324  12.847  1.00  0.00     0.062 A 
HETATM   18  C15 UNL     1      27.606  -0.298  12.163  1.00  0.00     0.122 A 
HETATM   19  C16 UNL     1      26.858   0.525  11.314  1.00  0.00     0.143 A 
BRANCH  14  20
HETATM   20  O7  UNL     1      23.549  -0.829  11.616  1.00  0.00    -0.344 OA
ATOM     21  H7  UNL     1      23.226  -1.693  11.389  1.00  0.00     0.219 HD
ENDBRANCH  14  20
BRANCH  17  22
HETATM   22  C14 UNL     1      27.726  -2.232  13.762  1.00  0.00     0.355 C 
BRANCH  22  23
HETATM   23  N9  UNL     1      28.736  -2.953  12.972  1.00  0.00    -0.049 N 
ATOM     24  H93 UNL     1      28.703  -2.716  11.979  1.00  0.00     0.277 HD
ATOM     25  H92 UNL     1      29.685  -2.631  13.157  1.00  0.00     0.277 HD
ATOM     26  H91 UNL     1      28.616  -3.951  13.143  1.00  0.00     0.277 HD
ENDBRANCH  22  23
BRANCH  22  27
HETATM   27  O8  UNL     1      28.406  -1.544  14.759  1.00  0.00    -0.366 OA
ATOM     28  H8  UNL     1      27.987  -1.628  15.608  1.00  0.00     0.212 HD
ENDBRANCH  22  27
ENDBRANCH  17  22
BRANCH  18  29
HETATM   29  O9  UNL     1      28.957  -0.121  12.344  1.00  0.00    -0.356 OA
ATOM     30  H9  UNL     1      29.511  -0.106  11.573  1.00  0.00     0.218 HD
ENDBRANCH  18  29
BRANCH  19  31
HETATM   31  N10 UNL     1      27.468   1.459  10.703  1.00  0.00    -0.383 N 
ATOM     32 2H10 UNL     1      26.961   2.327  10.534  1.00  0.00     0.157 HD
ATOM     33 1H10 UNL     1      28.433   1.349  10.390  1.00  0.00     0.157 HD
ENDBRANCH  19  31
ENDBRANCH  10  13
BRANCH   1  34
HETATM   34  N1  UNL     1      23.665   1.284   6.981  1.00  0.00    -0.234 N 
ATOM     35  H12 UNL     1      22.828   1.638   6.516  1.00  0.00     0.174 HD
ATOM     36  H11 UNL     1      24.290   0.635   6.503  1.00  0.00     0.174 HD
ENDBRANCH   1  34
BRANCH   9  37
HETATM   37  C5  UNL     1      22.661   5.557  10.130  1.00  0.00     0.186 C 
BRANCH  37  38
HETATM   38  C6  UNL     1      23.129   6.815  10.795  1.00  0.00     0.258 C 
BRANCH  38  39
HETATM   39  O1  UNL     1      22.124   7.770  10.744  1.00  0.00    -0.373 OA
ATOM     40  H1  UNL     1      21.691   7.822  11.588  1.00  0.00     0.212 HD
ENDBRANCH  38  39
BRANCH  38  41
HETATM   41  N5  UNL     1      24.344   7.345  10.284  1.00  0.00    -0.247 N 
BRANCH  41  42
HETATM   42  N6  UNL     1      25.080   8.219  11.095  1.00  0.00    -0.208 N 
ATOM     43  H6  UNL     1      25.973   8.562  10.741  1.00  0.00     0.215 HD
BRANCH  42  44
HETATM   44  O2  UNL     1      24.713   8.599  12.214  1.00  0.00    -0.274 OA
ATOM     45  H2  UNL     1      25.266   8.589  12.986  1.00  0.00     0.246 HD
ENDBRANCH  42  44
ENDBRANCH  41  42
BRANCH  41  46
HETATM   46  C7  UNL     1      24.878   7.041   8.970  1.00  0.00     0.273 C 
BRANCH  46  47
HETATM   47  O3  UNL     1      25.189   8.199   8.282  1.00  0.00    -0.372 OA
ATOM     48  H3  UNL     1      24.408   8.713   8.112  1.00  0.00     0.212 HD
ENDBRANCH  46  47
BRANCH  46  49
HETATM   49  C8  UNL     1      26.148   6.242   9.146  1.00  0.00     0.223 C 
BRANCH  49  50
HETATM   50  O4  UNL     1      27.242   7.063   9.269  1.00  0.00    -0.386 OA
ATOM     51  H4  UNL     1      27.565   7.077  10.163  1.00  0.00     0.210 HD
ENDBRANCH  49  50
BRANCH  49  52
HETATM   52  C9  UNL     1      26.315   5.216   8.055  1.00  0.00     0.286 C 
BRANCH  52  53
HETATM   53  O5  UNL     1      25.131   5.153   7.317  1.00  0.00    -0.369 OA
ATOM     54  H5  UNL     1      24.833   4.252   7.299  1.00  0.00     0.212 HD
ENDBRANCH  52  53
BRANCH  52  55
HETATM   55  O6  UNL     1      26.595   3.985   8.656  1.00  0.00    -0.369 OA
ATOM     56  H6  UNL     1      25.958   3.353   8.344  1.00  0.00     0.212 HD
ENDBRANCH  52  55
ENDBRANCH  49  52
ENDBRANCH  46  49
ENDBRANCH  41  46
ENDBRANCH  38  41
ENDBRANCH  37  38
ENDBRANCH   9  37
TORSDOF 21
ENDMDL
MODEL 3
REMARK VINA RESULT: -5.447396056      1.225      1.991
REMARK  21 active torsions:
REMARK  status: ('A' for Active; 'I' for Inactive)
REMARK    1  A    between atoms: N1_1  and  C1_4 
REMARK    2  A    between atoms: N4_12  and  C5_13 
REMARK    3  A    between atoms: C5_13  and  C6_14 
REMARK    4  A    between atoms: C6_14  and  O1_15 
REMARK    5  A    between atoms: C6_14  and  N5_17 
REMARK    6  A    between atoms: N5_17  and  N6_18 
REMARK    7  A    between atoms: N5_17  and  C7_22 
REMARK    8  A    between atoms: N6_18  and  O2_20 
REMARK    9  A    between atoms: C7_22  and  O3_23 
REMARK   10  A    between atoms: C7_22  and  C8_25 
REMARK   11  A    between atoms: C8_25  and  O4_26 
REMARK   12  A    between atoms: C8_25  and  C9_28 
REMARK   13  A    between atoms: C9_28  and  O5_29 
REMARK   14  A    between atoms: C9_28  and  O6_31 
REMARK   15  A    between atoms: C10_33  and  N7_34 
REMARK   16  A    between atoms: C11_35  and  O7_36 
REMARK   17  A    between atoms: C13_40  and  C14_41 
REMARK   18  A    between atoms: C14_41  and  N9_42 
REMARK   19  A    between atoms: C14_41  and  O8_46 
REMARK   20  A    between atoms: C15_48  and  O9_49 
REMARK   21  A    between atoms: C16_51  and  N10_52 
ROOT
HETATM    1  C1  UNL     1      24.849   2.399   7.889  1.00  0.00     0.679 A 
HETATM    2  N2  UNL     1      24.175   3.475   8.335  1.00  0.00    -0.174 N 
ATOM      3  H2  UNL     1      24.017   4.268   7.713  1.00  0.00     0.186 HD
HETATM    4  C2  UNL     1      23.704   3.511   9.612  1.00  0.00     0.155 A 
HETATM    5  C3  UNL     1      23.938   2.421  10.422  1.00  0.00     0.124 A 
HETATM    6  N3  UNL     1      23.388   2.680  11.622  1.00  0.00    -0.346 N 
ATOM      7  H3  UNL     1      23.393   2.065  12.436  1.00  0.00     0.167 HD
HETATM    8  C4  UNL     1      22.832   3.901  11.544  1.00  0.00     0.185 A 
HETATM    9  N4  UNL     1      23.013   4.432  10.317  1.00  0.00    -0.323 N 
HETATM   10  C10 UNL     1      24.628   1.314   9.973  1.00  0.00     0.162 A 
HETATM   11  N11 UNL     1      25.069   1.330   8.705  1.00  0.00    -0.174 N 
ATOM     12  H11 UNL     1      25.581   0.525   8.345  1.00  0.00     0.186 HD
ENDROOT
BRANCH  10  13
HETATM   13  N7  UNL     1      24.848   0.207  10.843  1.00  0.00    -0.257 N 
HETATM   14  C11 UNL     1      23.971  -0.807  10.910  1.00  0.00     0.175 A 
HETATM   15  C12 UNL     1      24.207  -1.853  11.749  1.00  0.00     0.111 A 
HETATM   16  N8  UNL     1      23.291  -2.914  11.821  1.00  0.00    -0.097 NA
HETATM   17  C13 UNL     1      25.344  -1.918  12.559  1.00  0.00     0.062 A 
HETATM   18  C15 UNL     1      26.226  -0.864  12.469  1.00  0.00     0.122 A 
HETATM   19  C16 UNL     1      25.962   0.200  11.599  1.00  0.00     0.143 A 
BRANCH  14  20
HETATM   20  O7  UNL     1      22.840  -0.754  10.112  1.00  0.00    -0.344 OA
ATOM     21  H7  UNL     1      22.320  -1.543  10.012  1.00  0.00     0.219 HD
ENDBRANCH  14  20
BRANCH  17  22
HETATM   22  C14 UNL     1      25.563  -3.075  13.461  1.00  0.00     0.355 C 
BRANCH  22  23
HETATM   23  N9  UNL     1      26.872  -3.662  13.134  1.00  0.00    -0.049 N 
ATOM     24  H93 UNL     1      27.621  -2.970  13.112  1.00  0.00     0.277 HD
ATOM     25  H92 UNL     1      27.244  -4.241  13.887  1.00  0.00     0.277 HD
ATOM     26  H91 UNL     1      26.778  -4.171  12.255  1.00  0.00     0.277 HD
ENDBRANCH  22  23
BRANCH  22  27
HETATM   27  O8  UNL     1      25.608  -2.704  14.799  1.00  0.00    -0.366 OA
ATOM     28  H8  UNL     1      24.852  -2.190  15.058  1.00  0.00     0.212 HD
ENDBRANCH  22  27
ENDBRANCH  17  22
BRANCH  18  29
HETATM   29  O9  UNL     1      27.354  -0.899  13.254  1.00  0.00    -0.356 OA
ATOM     30  H9  UNL     1      27.633  -0.092  13.669  1.00  0.00     0.218 HD
ENDBRANCH  18  29
BRANCH  19  31
HETATM   31  N10 UNL     1      26.805   1.150  11.550  1.00  0.00    -0.383 N 
ATOM     32 2H10 UNL     1      26.950   1.612  10.653  1.00  0.00     0.157 HD
ATOM     33 1H10 UNL     1      27.323   1.446  12.378  1.00  0.00     0.157 HD
ENDBRANCH  19  31
ENDBRANCH  10  13
BRANCH   1  34
HETATM   34  N1  UNL     1      25.319   2.302   6.691  1.00  0.00    -0.234 N 
ATOM     35  H12 UNL     1      26.263   1.922   6.611  1.00  0.00     0.174 HD
ATOM     36  H11 UNL     1      24.799   2.581   5.860  1.00  0.00     0.174 HD
ENDBRANCH   1  34
BRANCH   9  37
HETATM   37  C5  UNL     1      22.567   5.725   9.836  1.00  0.00     0.186 C 
BRANCH  37  38
HETATM   38  C6  UNL     1      23.108   6.839  10.678  1.00  0.00     0.258 C 
BRANCH  38  39
HETATM   39  O1  UNL     1      22.129   7.806  10.855  1.00  0.00    -0.373 OA
ATOM     40  H1  UNL     1      21.322   7.393  11.142  1.00  0.00     0.212 HD
ENDBRANCH  38  39
BRANCH  38  41
HETATM   41  N5  UNL     1      24.305   7.429  10.192  1.00  0.00    -0.247 N 
BRANCH  41  42
HETATM   42  N6  UNL     1      25.058   8.223  11.067  1.00  0.00    -0.208 N 
ATOM     43  H6  UNL     1      25.974   8.544  10.754  1.00  0.00     0.215 HD
BRANCH  42  44
HETATM   44  O2  UNL     1      24.679   8.557  12.197  1.00  0.00    -0.274 OA
ATOM     45  H2  UNL     1      24.959   8.130  12.999  1.00  0.00     0.246 HD
ENDBRANCH  42  44
ENDBRANCH  41  42
BRANCH  41  46
HETATM   46  C7  UNL     1      24.806   7.264   8.840  1.00  0.00     0.273 C 
BRANCH  46  47
HETATM   47  O3  UNL     1      25.141   8.485   8.284  1.00  0.00    -0.372 OA
ATOM     48  H3  UNL     1      25.654   8.368   7.493  1.00  0.00     0.212 HD
ENDBRANCH  46  47
BRANCH  46  49
HETATM   49  C8  UNL     1      26.053   6.413   8.895  1.00  0.00     0.223 C 
BRANCH  49  50
HETATM   50  O4  UNL     1      27.081   7.073   9.522  1.00  0.00    -0.386 OA
ATOM     51  H4  UNL     1      27.920   6.859   9.129  1.00  0.00     0.210 HD
ENDBRANCH  49  50
BRANCH  49  52
HETATM   52  C9  UNL     1      26.439   5.903   7.531  1.00  0.00     0.286 C 
BRANCH  52  53
HETATM   53  O5  UNL     1      25.275   5.675   6.794  1.00  0.00    -0.369 OA
ATOM     54  H5  UNL     1      24.565   5.493   7.398  1.00  0.00     0.212 HD
ENDBRANCH  52  53
BRANCH  52  55
HETATM   55  O6  UNL     1      27.164   4.721   7.698  1.00  0.00    -0.369 OA
ATOM     56  H6  UNL     1      28.085   4.945   7.764  1.00  0.00     0.212 HD
ENDBRANCH  52  55
ENDBRANCH  49  52
ENDBRANCH  46  49
ENDBRANCH  41  46
ENDBRANCH  38  41
ENDBRANCH  37  38
ENDBRANCH   9  37
TORSDOF 21
ENDMDL
MODEL 4
REMARK VINA RESULT: -5.296756456      3.303      8.743
REMARK  21 active torsions:
REMARK  status: ('A' for Active; 'I' for Inactive)
REMARK    1  A    between atoms: N1_1  and  C1_4 
REMARK    2  A    between atoms: N4_12  and  C5_13 
REMARK    3  A    between atoms: C5_13  and  C6_14 
REMARK    4  A    between atoms: C6_14  and  O1_15 
REMARK    5  A    between atoms: C6_14  and  N5_17 
REMARK    6  A    between atoms: N5_17  and  N6_18 
REMARK    7  A    between atoms: N5_17  and  C7_22 
REMARK    8  A    between atoms: N6_18  and  O2_20 
REMARK    9  A    between atoms: C7_22  and  O3_23 
REMARK   10  A    between atoms: C7_22  and  C8_25 
REMARK   11  A    between atoms: C8_25  and  O4_26 
REMARK   12  A    between atoms: C8_25  and  C9_28 
REMARK   13  A    between atoms: C9_28  and  O5_29 
REMARK   14  A    between atoms: C9_28  and  O6_31 
REMARK   15  A    between atoms: C10_33  and  N7_34 
REMARK   16  A    between atoms: C11_35  and  O7_36 
REMARK   17  A    between atoms: C13_40  and  C14_41 
REMARK   18  A    between atoms: C14_41  and  N9_42 
REMARK   19  A    between atoms: C14_41  and  O8_46 
REMARK   20  A    between atoms: C15_48  and  O9_49 
REMARK   21  A    between atoms: C16_51  and  N10_52 
ROOT
HETATM    1  C1  UNL     1      21.874   6.198   9.944  1.00  0.00     0.679 A 
HETATM    2  N2  UNL     1      22.040   4.872   9.777  1.00  0.00    -0.174 N 
ATOM      3  H2  UNL     1      21.597   4.220  10.424  1.00  0.00     0.186 HD
HETATM    4  C2  UNL     1      22.798   4.399   8.749  1.00  0.00     0.155 A 
HETATM    5  C3  UNL     1      23.380   5.311   7.897  1.00  0.00     0.124 A 
HETATM    6  N3  UNL     1      24.071   4.621   6.972  1.00  0.00    -0.346 N 
ATOM      7  H3  UNL     1      24.612   5.013   6.202  1.00  0.00     0.167 HD
HETATM    8  C4  UNL     1      23.913   3.316   7.256  1.00  0.00     0.185 A 
HETATM    9  N4  UNL     1      23.133   3.155   8.345  1.00  0.00    -0.323 N 
HETATM   10  C10 UNL     1      23.215   6.671   8.060  1.00  0.00     0.162 A 
HETATM   11  N11 UNL     1      22.458   7.084   9.089  1.00  0.00    -0.174 N 
ATOM     12  H11 UNL     1      22.316   8.084   9.234  1.00  0.00     0.186 HD
ENDROOT
BRANCH  10  13
HETATM   13  N7  UNL     1      23.834   7.581   7.156  1.00  0.00    -0.257 N 
HETATM   14  C11 UNL     1      23.154   8.101   6.121  1.00  0.00     0.175 A 
HETATM   15  C12 UNL     1      23.771   8.969   5.273  1.00  0.00     0.111 A 
HETATM   16  N8  UNL     1      23.062   9.513   4.191  1.00  0.00    -0.097 NA
HETATM   17  C13 UNL     1      25.106   9.350   5.435  1.00  0.00     0.062 A 
HETATM   18  C15 UNL     1      25.778   8.801   6.505  1.00  0.00     0.122 A 
HETATM   19  C16 UNL     1      25.123   7.911   7.363  1.00  0.00     0.143 A 
BRANCH  14  20
HETATM   20  O7  UNL     1      21.830   7.731   5.950  1.00  0.00    -0.344 OA
ATOM     21  H7  UNL     1      21.364   8.059   5.190  1.00  0.00     0.219 HD
ENDBRANCH  14  20
BRANCH  17  22
HETATM   22  C14 UNL     1      25.740  10.299   4.488  1.00  0.00     0.355 C 
BRANCH  22  23
HETATM   23  N9  UNL     1      25.755   9.670   3.158  1.00  0.00    -0.049 N 
ATOM     24  H93 UNL     1      24.835   9.659   2.716  1.00  0.00     0.277 HD
ATOM     25  H92 UNL     1      26.234  10.237   2.459  1.00  0.00     0.277 HD
ATOM     26  H91 UNL     1      26.157   8.739   3.255  1.00  0.00     0.277 HD
ENDBRANCH  22  23
BRANCH  22  27
HETATM   27  O8  UNL     1      25.026  11.485   4.368  1.00  0.00    -0.366 OA
ATOM     28  H8  UNL     1      25.587  12.251   4.395  1.00  0.00     0.212 HD
ENDBRANCH  22  27
ENDBRANCH  17  22
BRANCH  18  29
HETATM   29  O9  UNL     1      27.093   9.157   6.690  1.00  0.00    -0.356 OA
ATOM     30  H9  UNL     1      27.381   9.349   7.574  1.00  0.00     0.218 HD
ENDBRANCH  18  29
BRANCH  19  31
HETATM   31  N10 UNL     1      25.784   7.431   8.337  1.00  0.00    -0.383 N 
ATOM     32 2H10 UNL     1      26.096   6.462   8.269  1.00  0.00     0.157 HD
ATOM     33 1H10 UNL     1      26.001   7.989   9.162  1.00  0.00     0.157 HD
ENDBRANCH  19  31
ENDBRANCH  10  13
BRANCH   1  34
HETATM   34  N1  UNL     1      21.169   6.711  10.895  1.00  0.00    -0.234 N 
ATOM     35  H12 UNL     1      20.203   6.942  10.662  1.00  0.00     0.174 HD
ATOM     36  H11 UNL     1      21.532   6.883  11.833  1.00  0.00     0.174 HD
ENDBRANCH   1  34
BRANCH   9  37
HETATM   37  C5  UNL     1      22.728   1.911   8.969  1.00  0.00     0.186 C 
BRANCH  37  38
HETATM   38  C6  UNL     1      23.732   1.455   9.983  1.00  0.00     0.258 C 
BRANCH  38  39
HETATM   39  O1  UNL     1      23.408   0.178  10.417  1.00  0.00    -0.373 OA
ATOM     40  H1  UNL     1      23.843   0.003  11.244  1.00  0.00     0.212 HD
ENDBRANCH  38  39
BRANCH  38  41
HETATM   41  N5  UNL     1      23.901   2.327  11.091  1.00  0.00    -0.247 N 
BRANCH  41  42
HETATM   42  N6  UNL     1      22.948   2.288  12.118  1.00  0.00    -0.208 N 
ATOM     43  H6  UNL     1      22.204   2.985  12.108  1.00  0.00     0.215 HD
BRANCH  42  44
HETATM   44  O2  UNL     1      22.956   1.458  13.037  1.00  0.00    -0.274 OA
ATOM     45  H2  UNL     1      22.858   1.682  13.955  1.00  0.00     0.246 HD
ENDBRANCH  42  44
ENDBRANCH  41  42
BRANCH  41  46
HETATM   46  C7  UNL     1      25.001   3.263  11.234  1.00  0.00     0.273 C 
BRANCH  46  47
HETATM   47  O3  UNL     1      25.422   3.334  12.549  1.00  0.00    -0.372 OA
ATOM     48  H3  UNL     1      26.268   3.761  12.612  1.00  0.00     0.212 HD
ENDBRANCH  46  47
BRANCH  46  49
HETATM   49  C8  UNL     1      26.156   2.770  10.395  1.00  0.00     0.223 C 
BRANCH  49  50
HETATM   50  O4  UNL     1      26.987   1.952  11.120  1.00  0.00    -0.386 OA
ATOM     51  H4  UNL     1      26.581   1.110  11.290  1.00  0.00     0.210 HD
ENDBRANCH  49  50
BRANCH  49  52
HETATM   52  C9  UNL     1      26.894   3.910   9.741  1.00  0.00     0.286 C 
BRANCH  52  53
HETATM   53  O5  UNL     1      28.183   3.971  10.274  1.00  0.00    -0.369 OA
ATOM     54  H5  UNL     1      28.293   4.811  10.705  1.00  0.00     0.212 HD
ENDBRANCH  52  53
BRANCH  52  55
HETATM   55  O6  UNL     1      26.189   5.088  10.000  1.00  0.00    -0.369 OA
ATOM     56  H6  UNL     1      26.796   5.721  10.365  1.00  0.00     0.212 HD
ENDBRANCH  52  55
ENDBRANCH  49  52
ENDBRANCH  46  49
ENDBRANCH  41  46
ENDBRANCH  38  41
ENDBRANCH  37  38
ENDBRANCH   9  37
TORSDOF 21
ENDMDL
MODEL 5
REMARK VINA RESULT: -5.243022478      2.083      3.462
REMARK  21 active torsions:
REMARK  status: ('A' for Active; 'I' for Inactive)
REMARK    1  A    between atoms: N1_1  and  C1_4 
REMARK    2  A    between atoms: N4_12  and  C5_13 
REMARK    3  A    between atoms: C5_13  and  C6_14 
REMARK    4  A    between atoms: C6_14  and  O1_15 
REMARK    5  A    between atoms: C6_14  and  N5_17 
REMARK    6  A    between atoms: N5_17  and  N6_18 
REMARK    7  A    between atoms: N5_17  and  C7_22 
REMARK    8  A    between atoms: N6_18  and  O2_20 
REMARK    9  A    between atoms: C7_22  and  O3_23 
REMARK   10  A    between atoms: C7_22  and  C8_25 
REMARK   11  A    between atoms: C8_25  and  O4_26 
REMARK   12  A    between atoms: C8_25  and  C9_28 
REMARK   13  A    between atoms: C9_28  and  O5_29 
REMARK   14  A    between atoms: C9_28  and  O6_31 
REMARK   15  A    between atoms: C10_33  and  N7_34 
REMARK   16  A    between atoms: C11_35  and  O7_36 
REMARK   17  A    between atoms: C13_40  and  C14_41 
REMARK   18  A    between atoms: C14_41  and  N9_42 
REMARK   19  A    between atoms: C14_41  and  O8_46 
REMARK   20  A    between atoms: C15_48  and  O9_49 
REMARK   21  A    between atoms: C16_51  and  N10_52 
ROOT
HETATM    1  C1  UNL     1      24.318   1.298   7.959  1.00  0.00     0.679 A 
HETATM    2  N2  UNL     1      24.892   2.501   7.773  1.00  0.00    -0.174 N 
ATOM      3  H2  UNL     1      24.517   3.140   7.072  1.00  0.00     0.186 HD
HETATM    4  C2  UNL     1      25.972   2.869   8.517  1.00  0.00     0.155 A 
HETATM    5  C3  UNL     1      26.450   1.979   9.453  1.00  0.00     0.124 A 
HETATM    6  N3  UNL     1      27.506   2.552  10.058  1.00  0.00    -0.346 N 
ATOM      7  H3  UNL     1      28.076   2.144  10.798  1.00  0.00     0.167 HD
HETATM    8  C4  UNL     1      27.667   3.765   9.501  1.00  0.00     0.185 A 
HETATM    9  N4  UNL     1      26.735   3.982   8.551  1.00  0.00    -0.323 N 
HETATM   10  C10 UNL     1      25.868   0.744   9.650  1.00  0.00     0.162 A 
HETATM   11  N11 UNL     1      24.805   0.432   8.891  1.00  0.00    -0.174 N 
ATOM     12  H11 UNL     1      24.353  -0.474   9.015  1.00  0.00     0.186 HD
ENDROOT
BRANCH  10  13
HETATM   13  N7  UNL     1      26.393  -0.148  10.629  1.00  0.00    -0.257 N 
HETATM   14  C11 UNL     1      25.861  -0.216  11.861  1.00  0.00     0.175 A 
HETATM   15  C12 UNL     1      26.383  -1.078  12.776  1.00  0.00     0.111 A 
HETATM   16  N8  UNL     1      25.828  -1.151  14.064  1.00  0.00    -0.097 NA
HETATM   17  C13 UNL     1      27.468  -1.909  12.486  1.00  0.00     0.062 A 
HETATM   18  C15 UNL     1      27.993  -1.817  11.216  1.00  0.00     0.122 A 
HETATM   19  C16 UNL     1      27.440  -0.924  10.292  1.00  0.00     0.143 A 
BRANCH  14  20
HETATM   20  O7  UNL     1      24.785   0.603  12.160  1.00  0.00    -0.344 OA
ATOM     21  H7  UNL     1      24.680   0.901  13.056  1.00  0.00     0.219 HD
ENDBRANCH  14  20
BRANCH  17  22
HETATM   22  C14 UNL     1      28.006  -2.833  13.514  1.00  0.00     0.355 C 
BRANCH  22  23
HETATM   23  N9  UNL     1      28.532  -2.023  14.623  1.00  0.00    -0.049 N 
ATOM     24  H93 UNL     1      28.084  -2.237  15.515  1.00  0.00     0.277 HD
ATOM     25  H92 UNL     1      29.483  -2.279  14.883  1.00  0.00     0.277 HD
ATOM     26  H91 UNL     1      28.444  -1.041  14.363  1.00  0.00     0.277 HD
ENDBRANCH  22  23
BRANCH  22  27
HETATM   27  O8  UNL     1      27.026  -3.663  14.046  1.00  0.00    -0.366 OA
ATOM     28  H8  UNL     1      27.385  -4.317  14.634  1.00  0.00     0.212 HD
ENDBRANCH  22  27
ENDBRANCH  17  22
BRANCH  18  29
HETATM   29  O9  UNL     1      29.062  -2.622  10.901  1.00  0.00    -0.356 OA
ATOM     30  H9  UNL     1      29.465  -2.512  10.048  1.00  0.00     0.218 HD
ENDBRANCH  18  29
BRANCH  19  31
HETATM   31  N10 UNL     1      27.958  -0.874   9.132  1.00  0.00    -0.383 N 
ATOM     32 2H10 UNL     1      27.514  -1.412   8.388  1.00  0.00     0.157 HD
ATOM     33 1H10 UNL     1      28.791  -0.316   8.943  1.00  0.00     0.157 HD
ENDBRANCH  19  31
ENDBRANCH  10  13
BRANCH   1  34
HETATM   34  N1  UNL     1      23.293   0.889   7.289  1.00  0.00    -0.234 N 
ATOM     35  H12 UNL     1      23.284   1.128   6.297  1.00  0.00     0.174 HD
ATOM     36  H11 UNL     1      22.527   0.358   7.703  1.00  0.00     0.174 HD
ENDBRANCH   1  34
BRANCH   9  37
HETATM   37  C5  UNL     1      26.571   5.162   7.723  1.00  0.00     0.186 C 
BRANCH  37  38
HETATM   38  C6  UNL     1      25.998   6.304   8.505  1.00  0.00     0.258 C 
BRANCH  38  39
HETATM   39  O1  UNL     1      26.961   6.803   9.371  1.00  0.00    -0.373 OA
ATOM     40  H1  UNL     1      26.540   7.147  10.151  1.00  0.00     0.212 HD
ENDBRANCH  38  39
BRANCH  38  41
HETATM   41  N5  UNL     1      24.803   6.005   9.212  1.00  0.00    -0.247 N 
BRANCH  41  42
HETATM   42  N6  UNL     1      23.644   5.733   8.472  1.00  0.00    -0.208 N 
ATOM     43  H6  UNL     1      23.627   4.885   7.905  1.00  0.00     0.215 HD
BRANCH  42  44
HETATM   44  O2  UNL     1      22.642   6.459   8.465  1.00  0.00    -0.274 OA
ATOM     45  H2  UNL     1      21.966   6.438   9.132  1.00  0.00     0.246 HD
ENDBRANCH  42  44
ENDBRANCH  41  42
BRANCH  41  46
HETATM   46  C7  UNL     1      24.699   5.961  10.659  1.00  0.00     0.273 C 
BRANCH  46  47
HETATM   47  O3  UNL     1      23.963   7.031  11.134  1.00  0.00    -0.372 OA
ATOM     48  H3  UNL     1      24.298   7.328  11.972  1.00  0.00     0.212 HD
ENDBRANCH  46  47
BRANCH  46  49
HETATM   49  C8  UNL     1      23.983   4.688  11.046  1.00  0.00     0.223 C 
BRANCH  49  50
HETATM   50  O4  UNL     1      22.620   4.835  10.960  1.00  0.00    -0.386 OA
ATOM     51  H4  UNL     1      22.187   3.994  10.874  1.00  0.00     0.210 HD
ENDBRANCH  49  50
BRANCH  49  52
HETATM   52  C9  UNL     1      24.428   4.190  12.397  1.00  0.00     0.286 C 
BRANCH  52  53
HETATM   53  O5  UNL     1      25.537   3.359  12.223  1.00  0.00    -0.369 OA
ATOM     54  H5  UNL     1      26.313   3.902  12.145  1.00  0.00     0.212 HD
ENDBRANCH  52  53
BRANCH  52  55
HETATM   55  O6  UNL     1      23.364   3.489  12.972  1.00  0.00    -0.369 OA
ATOM     56  H6  UNL     1      22.746   3.273  12.284  1.00  0.00     0.212 HD
ENDBRANCH  52  55
ENDBRANCH  49  52
ENDBRANCH  46  49
ENDBRANCH  41  46
ENDBRANCH  38  41
ENDBRANCH  37  38
ENDBRANCH   9  37
TORSDOF 21
ENDMDL
