MODEL 1
REMARK VINA RESULT: -5.758479144      0.000      0.000
REMARK  17 active torsions:
REMARK  status: ('A' for Active; 'I' for Inactive)
REMARK    1  A    between atoms: N1_1  and  C1_4 
REMARK    2  A    between atoms: N4_12  and  O1_13 
REMARK    3  A    between atoms: C5_15  and  N5_16 
REMARK    4  A    between atoms: N6_19  and  C6_20 
REMARK    5  A    between atoms: C6_20  and  N7_21 
REMARK    6  A    between atoms: N7_21  and  C7_23 
REMARK    7  A    between atoms: C8_24  and  N8_25 
REMARK    8  A    between atoms: N8_25  and  C9_27 
REMARK    9  A    between atoms: C10_30  and  C11_31 
REMARK   10  A    between atoms: C11_31  and  N10_32 
REMARK   11  A    between atoms: N10_32  and  C12_35 
REMARK   12  A    between atoms: C12_35  and  N11_36 
REMARK   13  A    between atoms: C12_35  and  N12_40 
REMARK   14  A    between atoms: C12_35  and  O2_44 
REMARK   15  A    between atoms: C14_47  and  O3_48 
REMARK   16  A    between atoms: C15_50  and  O4_51 
REMARK   17  A    between atoms: N13_56  and  O7_57 
ROOT
HETATM    1  C7  UNL     1      22.483   5.341   8.967  1.00  0.00     0.187 A 
HETATM    2  C8  UNL     1      21.780   4.355   9.621  1.00  0.00     0.197 A 
HETATM    3  O5  UNL     1      21.167   4.968  10.661  1.00  0.00    -0.238 OA
HETATM    4  C16 UNL     1      21.446   6.218  10.675  1.00  0.00     0.399 A 
HETATM    5  O6  UNL     1      21.008   7.033  11.542  1.00  0.00    -0.235 OA
HETATM    6  N13 UNL     1      22.255   6.493   9.645  1.00  0.00    -0.145 N 
ENDROOT
BRANCH   2   7
HETATM    7  N8  UNL     1      21.635   2.981   9.390  1.00  0.00    -0.344 N 
ATOM      8  H8  UNL     1      20.829   2.748   8.810  1.00  0.00     0.163 HD
BRANCH   7   9
HETATM    9  C9  UNL     1      22.391   1.835   9.804  1.00  0.00     0.211 C 
HETATM   10  N9  UNL     1      23.674   1.837   9.216  1.00  0.00    -0.394 N 
HETATM   11  C10 UNL     1      24.818   1.942  10.088  1.00  0.00     0.107 C 
ATOM     12  H9  UNL     1      23.789   1.766   8.205  1.00  0.00     0.155 HD
HETATM   13  C13 UNL     1      24.549   2.923  11.171  1.00  0.00     0.061 C 
HETATM   14  C14 UNL     1      23.382   2.516  12.038  1.00  0.00     0.152 C 
HETATM   15  C15 UNL     1      22.374   1.701  11.327  1.00  0.00     0.189 C 
BRANCH  11  16
HETATM   16  C11 UNL     1      25.344   0.609  10.522  1.00  0.00     0.265 C 
BRANCH  16  17
HETATM   17  N10 UNL     1      26.320   0.785  11.578  1.00  0.00     0.010 N 
ATOM     18 2H10 UNL     1      26.370   1.749  11.907  1.00  0.00     0.285 HD
ATOM     19 1H10 UNL     1      26.030   0.351  12.454  1.00  0.00     0.285 HD
BRANCH  17  20
HETATM   20  C12 UNL     1      27.616   0.287  11.109  1.00  0.00     0.558 C 
BRANCH  20  21
HETATM   21  N11 UNL     1      28.397  -0.228  12.224  1.00  0.00     0.005 N 
ATOM     22 3H11 UNL     1      29.399  -0.113  12.071  1.00  0.00     0.282 HD
ATOM     23 2H11 UNL     1      28.303   0.356  13.055  1.00  0.00     0.282 HD
ATOM     24 1H11 UNL     1      28.151  -1.200  12.414  1.00  0.00     0.282 HD
ENDBRANCH  20  21
BRANCH  20  25
HETATM   25  N12 UNL     1      27.506  -0.708  10.083  1.00  0.00     0.005 N 
ATOM     26 3H12 UNL     1      28.273  -1.378  10.146  1.00  0.00     0.282 HD
ATOM     27 2H12 UNL     1      26.720  -1.333  10.267  1.00  0.00     0.282 HD
ATOM     28 1H12 UNL     1      27.444  -0.317   9.143  1.00  0.00     0.282 HD
ENDBRANCH  20  25
BRANCH  20  29
HETATM   29  O2  UNL     1      28.316   1.375  10.590  1.00  0.00    -0.321 OA
ATOM     30  H2  UNL     1      29.230   1.122  10.532  1.00  0.00     0.216 HD
ENDBRANCH  20  29
ENDBRANCH  17  20
ENDBRANCH  16  17
ENDBRANCH  11  16
BRANCH  14  31
HETATM   31  O3  UNL     1      22.896   3.645  12.684  1.00  0.00    -0.393 OA
ATOM     32  H3  UNL     1      22.265   3.372  13.339  1.00  0.00     0.210 HD
ENDBRANCH  14  31
BRANCH  15  33
HETATM   33  O4  UNL     1      21.096   2.173  11.716  1.00  0.00    -0.389 OA
ATOM     34  H4  UNL     1      21.185   3.118  11.738  1.00  0.00     0.210 HD
ENDBRANCH  15  33
ENDBRANCH   7   9
ENDBRANCH   2   7
BRANCH   1  35
HETATM   35  N7  UNL     1      23.226   5.236   7.769  1.00  0.00    -0.354 N 
ATOM     36  H7  UNL     1      22.804   4.649   7.049  1.00  0.00     0.163 HD
BRANCH  35  37
HETATM   37  C6  UNL     1      24.483   5.827   7.411  1.00  0.00     0.274 C 
BRANCH  37  38
HETATM   38  N6  UNL     1      25.642   5.018   7.801  1.00  0.00    -0.147 N 
HETATM   39  C3  UNL     1      26.275   4.104   7.090  1.00  0.00     0.160 A 
HETATM   40  N3  UNL     1      26.137   3.519   5.904  1.00  0.00    -0.336 N 
HETATM   41  C4  UNL     1      27.375   3.628   7.844  1.00  0.00     0.169 A 
HETATM   42  C2  UNL     1      26.901   2.578   5.391  1.00  0.00     0.183 A 
ATOM     43  H3  UNL     1      25.355   3.833   5.330  1.00  0.00     0.168 HD
HETATM   44  N2  UNL     1      27.927   2.134   6.092  1.00  0.00    -0.337 N 
HETATM   45  C1  UNL     1      28.177   2.653   7.328  1.00  0.00     0.134 A 
ATOM     46  H2  UNL     1      28.530   1.404   5.711  1.00  0.00     0.168 HD
HETATM   47  N4  UNL     1      27.323   4.317   9.001  1.00  0.00    -0.045 N 
HETATM   48  C5  UNL     1      26.287   5.148   8.977  1.00  0.00     0.708 A 
BRANCH  45  49
HETATM   49  N1  UNL     1      29.186   2.211   7.993  1.00  0.00    -0.383 N 
ATOM     50  H12 UNL     1      30.085   2.690   7.958  1.00  0.00     0.157 HD
ATOM     51  H11 UNL     1      29.072   1.366   8.553  1.00  0.00     0.157 HD
ENDBRANCH  45  49
BRANCH  47  52
HETATM   52  O1  UNL     1      28.233   4.170  10.062  1.00  0.00    -0.269 OA
ATOM     53  H1  UNL     1      28.099   3.608  10.816  1.00  0.00     0.245 HD
ENDBRANCH  47  52
BRANCH  48  54
HETATM   54  N5  UNL     1      25.966   5.942   9.931  1.00  0.00    -0.232 N 
ATOM     55  H52 UNL     1      26.590   6.594  10.406  1.00  0.00     0.174 HD
ATOM     56  H51 UNL     1      25.032   6.018  10.335  1.00  0.00     0.174 HD
ENDBRANCH  48  54
ENDBRANCH  37  38
ENDBRANCH  35  37
ENDBRANCH   1  35
BRANCH   6  57
HETATM   57  O7  UNL     1      22.680   7.763   9.396  1.00  0.00    -0.277 OA
ATOM     58  H7  UNL     1      23.463   8.217   9.684  1.00  0.00     0.245 HD
ENDBRANCH   6  57
TORSDOF 17
ENDMDL
MODEL 2
REMARK VINA RESULT: -5.726413626      2.211      4.951
REMARK  17 active torsions:
REMARK  status: ('A' for Active; 'I' for Inactive)
REMARK    1  A    between atoms: N1_1  and  C1_4 
REMARK    2  A    between atoms: N4_12  and  O1_13 
REMARK    3  A    between atoms: C5_15  and  N5_16 
REMARK    4  A    between atoms: N6_19  and  C6_20 
REMARK    5  A    between atoms: C6_20  and  N7_21 
REMARK    6  A    between atoms: N7_21  and  C7_23 
REMARK    7  A    between atoms: C8_24  and  N8_25 
REMARK    8  A    between atoms: N8_25  and  C9_27 
REMARK    9  A    between atoms: C10_30  and  C11_31 
REMARK   10  A    between atoms: C11_31  and  N10_32 
REMARK   11  A    between atoms: N10_32  and  C12_35 
REMARK   12  A    between atoms: C12_35  and  N11_36 
REMARK   13  A    between atoms: C12_35  and  N12_40 
REMARK   14  A    between atoms: C12_35  and  O2_44 
REMARK   15  A    between atoms: C14_47  and  O3_48 
REMARK   16  A    between atoms: C15_50  and  O4_51 
REMARK   17  A    between atoms: N13_56  and  O7_57 
ROOT
HETATM    1  C7  UNL     1      23.889   5.418   9.086  1.00  0.00     0.187 A 
HETATM    2  C8  UNL     1      25.176   4.993   9.333  1.00  0.00     0.197 A 
HETATM    3  O5  UNL     1      25.786   6.020   9.969  1.00  0.00    -0.238 OA
HETATM    4  C16 UNL     1      24.978   7.003  10.116  1.00  0.00     0.399 A 
HETATM    5  O6  UNL     1      25.287   8.098  10.678  1.00  0.00    -0.235 OA
HETATM    6  N13 UNL     1      23.794   6.674   9.587  1.00  0.00    -0.145 N 
ENDROOT
BRANCH   2   7
HETATM    7  N8  UNL     1      25.851   3.799   9.049  1.00  0.00    -0.344 N 
ATOM      8  H8  UNL     1      26.175   3.734   8.084  1.00  0.00     0.163 HD
BRANCH   7   9
HETATM    9  C9  UNL     1      26.179   2.650   9.841  1.00  0.00     0.211 C 
HETATM   10  N9  UNL     1      25.593   1.483   9.306  1.00  0.00    -0.394 N 
HETATM   11  C10 UNL     1      26.470   0.443   8.829  1.00  0.00     0.107 C 
ATOM     12  H9  UNL     1      24.579   1.379   9.258  1.00  0.00     0.155 HD
HETATM   13  C13 UNL     1      27.622   1.036   8.103  1.00  0.00     0.061 C 
HETATM   14  C14 UNL     1      28.458   1.932   8.985  1.00  0.00     0.152 C 
HETATM   15  C15 UNL     1      27.689   2.571  10.075  1.00  0.00     0.189 C 
BRANCH  11  16
HETATM   16  C11 UNL     1      26.805  -0.566   9.883  1.00  0.00     0.265 C 
BRANCH  16  17
HETATM   17  N10 UNL     1      25.610  -0.925  10.619  1.00  0.00     0.010 N 
ATOM     18 2H10 UNL     1      24.814  -0.333  10.383  1.00  0.00     0.285 HD
ATOM     19 1H10 UNL     1      25.219  -1.817  10.315  1.00  0.00     0.285 HD
BRANCH  17  20
HETATM   20  C12 UNL     1      25.915  -0.906  12.051  1.00  0.00     0.558 C 
BRANCH  20  21
HETATM   21  N11 UNL     1      25.912  -2.259  12.591  1.00  0.00     0.005 N 
ATOM     22 3H11 UNL     1      25.052  -2.464  13.098  1.00  0.00     0.282 HD
ATOM     23 2H11 UNL     1      25.824  -2.960  11.855  1.00  0.00     0.282 HD
ATOM     24 1H11 UNL     1      26.739  -2.415  13.167  1.00  0.00     0.282 HD
ENDBRANCH  20  21
BRANCH  20  25
HETATM   25  N12 UNL     1      27.154  -0.255  12.361  1.00  0.00     0.005 N 
ATOM     26 3H12 UNL     1      27.904  -0.938  12.468  1.00  0.00     0.282 HD
ATOM     27 2H12 UNL     1      27.505   0.258  11.553  1.00  0.00     0.282 HD
ATOM     28 1H12 UNL     1      27.099   0.352  13.179  1.00  0.00     0.282 HD
ENDBRANCH  20  25
BRANCH  20  29
HETATM   29  O2  UNL     1      24.885  -0.213  12.686  1.00  0.00    -0.321 OA
ATOM     30  H2  UNL     1      25.250   0.602  13.009  1.00  0.00     0.216 HD
ENDBRANCH  20  29
ENDBRANCH  17  20
ENDBRANCH  16  17
ENDBRANCH  11  16
BRANCH  14  31
HETATM   31  O3  UNL     1      29.186   2.796   8.176  1.00  0.00    -0.393 OA
ATOM     32  H3  UNL     1      28.616   3.503   7.897  1.00  0.00     0.210 HD
ENDBRANCH  14  31
BRANCH  15  33
HETATM   33  O4  UNL     1      28.112   3.920  10.158  1.00  0.00    -0.389 OA
ATOM     34  H4  UNL     1      29.058   3.873  10.221  1.00  0.00     0.210 HD
ENDBRANCH  15  33
ENDBRANCH   7   9
ENDBRANCH   2   7
BRANCH   1  35
HETATM   35  N7  UNL     1      22.823   4.687   8.515  1.00  0.00    -0.354 N 
ATOM     36  H7  UNL     1      22.930   4.468   7.525  1.00  0.00     0.163 HD
BRANCH  35  37
HETATM   37  C6  UNL     1      21.612   4.205   9.116  1.00  0.00     0.274 C 
BRANCH  37  38
HETATM   38  N6  UNL     1      21.796   2.979   9.899  1.00  0.00    -0.147 N 
HETATM   39  C3  UNL     1      21.744   1.728   9.482  1.00  0.00     0.160 A 
HETATM   40  N3  UNL     1      21.466   1.085   8.352  1.00  0.00    -0.336 N 
HETATM   41  C4  UNL     1      22.048   0.877  10.571  1.00  0.00     0.169 A 
HETATM   42  C2  UNL     1      21.451  -0.217   8.165  1.00  0.00     0.183 A 
ATOM     43  H3  UNL     1      21.241   1.664   7.543  1.00  0.00     0.168 HD
HETATM   44  N2  UNL     1      21.734  -1.012   9.178  1.00  0.00    -0.337 N 
HETATM   45  C1  UNL     1      22.037  -0.476  10.396  1.00  0.00     0.134 A 
ATOM     46  H2  UNL     1      21.727  -2.025   9.052  1.00  0.00     0.168 HD
HETATM   47  N4  UNL     1      22.269   1.708  11.607  1.00  0.00    -0.045 N 
HETATM   48  C5  UNL     1      22.119   2.966  11.208  1.00  0.00     0.708 A 
BRANCH  45  49
HETATM   49  N1  UNL     1      22.316  -1.269  11.369  1.00  0.00    -0.383 N 
ATOM     50  H12 UNL     1      23.026  -1.993  11.266  1.00  0.00     0.157 HD
ATOM     51  H11 UNL     1      21.809  -1.163  12.249  1.00  0.00     0.157 HD
ENDBRANCH  45  49
BRANCH  47  52
HETATM   52  O1  UNL     1      22.609   1.296  12.907  1.00  0.00    -0.269 OA
ATOM     53  H1  UNL     1      22.033   1.352  13.661  1.00  0.00     0.245 HD
ENDBRANCH  47  52
BRANCH  48  54
HETATM   54  N5  UNL     1      22.261   3.994  11.961  1.00  0.00    -0.232 N 
ATOM     55  H52 UNL     1      23.076   4.210  12.535  1.00  0.00     0.174 HD
ATOM     56  H51 UNL     1      21.564   4.731  12.077  1.00  0.00     0.174 HD
ENDBRANCH  48  54
ENDBRANCH  37  38
ENDBRANCH  35  37
ENDBRANCH   1  35
BRANCH   6  57
HETATM   57  O7  UNL     1      22.732   7.525   9.638  1.00  0.00    -0.277 OA
ATOM     58  H7  UNL     1      22.619   8.340  10.113  1.00  0.00     0.245 HD
ENDBRANCH   6  57
TORSDOF 17
ENDMDL
MODEL 3
REMARK VINA RESULT: -5.723595798      2.734      6.140
REMARK  17 active torsions:
REMARK  status: ('A' for Active; 'I' for Inactive)
REMARK    1  A    between atoms: N1_1  and  C1_4 
REMARK    2  A    between atoms: N4_12  and  O1_13 
REMARK    3  A    between atoms: C5_15  and  N5_16 
REMARK    4  A    between atoms: N6_19  and  C6_20 
REMARK    5  A    between atoms: C6_20  and  N7_21 
REMARK    6  A    between atoms: N7_21  and  C7_23 
REMARK    7  A    between atoms: C8_24  and  N8_25 
REMARK    8  A    between atoms: N8_25  and  C9_27 
REMARK    9  A    between atoms: C10_30  and  C11_31 
REMARK   10  A    between atoms: C11_31  and  N10_32 
REMARK   11  A    between atoms: N10_32  and  C12_35 
REMARK   12  A    between atoms: C12_35  and  N11_36 
REMARK   13  A    between atoms: C12_35  and  N12_40 
REMARK   14  A    between atoms: C12_35  and  O2_44 
REMARK   15  A    between atoms: C14_47  and  O3_48 
REMARK   16  A    between atoms: C15_50  and  O4_51 
REMARK   17  A    between atoms: N13_56  and  O7_57 
ROOT
HETATM    1  C7  UNL     1      27.337   6.228   6.054  1.00  0.00     0.187 A 
HETATM    2  C8  UNL     1      27.339   5.182   6.949  1.00  0.00     0.197 A 
HETATM    3  O5  UNL     1      27.382   4.056   6.198  1.00  0.00    -0.238 OA
HETATM    4  C16 UNL     1      27.406   4.347   4.951  1.00  0.00     0.399 A 
HETATM    5  O6  UNL     1      27.445   3.485   4.021  1.00  0.00    -0.235 OA
HETATM    6  N13 UNL     1      27.381   5.678   4.815  1.00  0.00    -0.145 N 
ENDROOT
BRANCH   2   7
HETATM    7  N8  UNL     1      27.302   5.130   8.348  1.00  0.00    -0.344 N 
ATOM      8  H8  UNL     1      28.085   5.607   8.794  1.00  0.00     0.163 HD
BRANCH   7   9
HETATM    9  C9  UNL     1      26.385   4.542   9.280  1.00  0.00     0.211 C 
HETATM   10  N9  UNL     1      25.199   4.133   8.634  1.00  0.00    -0.394 N 
HETATM   11  C10 UNL     1      24.885   2.725   8.623  1.00  0.00     0.107 C 
ATOM     12  H9  UNL     1      24.583   4.813   8.187  1.00  0.00     0.155 HD
HETATM   13  C13 UNL     1      26.115   1.927   8.386  1.00  0.00     0.061 C 
HETATM   14  C14 UNL     1      27.148   2.129   9.469  1.00  0.00     0.152 C 
HETATM   15  C15 UNL     1      27.080   3.461  10.109  1.00  0.00     0.189 C 
BRANCH  11  16
HETATM   16  C11 UNL     1      24.042   2.308   9.787  1.00  0.00     0.265 C 
BRANCH  16  17
HETATM   17  N10 UNL     1      23.105   3.361  10.121  1.00  0.00     0.010 N 
ATOM     18 2H10 UNL     1      23.335   4.245   9.667  1.00  0.00     0.285 HD
ATOM     19 1H10 UNL     1      22.190   3.217   9.695  1.00  0.00     0.285 HD
BRANCH  17  20
HETATM   20  C12 UNL     1      23.033   3.484  11.578  1.00  0.00     0.558 C 
BRANCH  20  21
HETATM   21  N11 UNL     1      22.578   2.234  12.172  1.00  0.00     0.005 N 
ATOM     22 3H11 UNL     1      22.862   1.425  11.620  1.00  0.00     0.282 HD
ATOM     23 2H11 UNL     1      23.083   2.016  13.031  1.00  0.00     0.282 HD
ATOM     24 1H11 UNL     1      21.569   2.257  12.321  1.00  0.00     0.282 HD
ENDBRANCH  20  21
BRANCH  20  25
HETATM   25  N12 UNL     1      24.269   3.892  12.178  1.00  0.00     0.005 N 
ATOM     26 3H12 UNL     1      25.001   3.983  11.472  1.00  0.00     0.282 HD
ATOM     27 2H12 UNL     1      24.217   4.861  12.493  1.00  0.00     0.282 HD
ATOM     28 1H12 UNL     1      24.573   3.281  12.936  1.00  0.00     0.282 HD
ENDBRANCH  20  25
BRANCH  20  29
HETATM   29  O2  UNL     1      22.068   4.447  11.867  1.00  0.00    -0.321 OA
ATOM     30  H2  UNL     1      21.239   4.127  11.530  1.00  0.00     0.216 HD
ENDBRANCH  20  29
ENDBRANCH  17  20
ENDBRANCH  16  17
ENDBRANCH  11  16
BRANCH  14  31
HETATM   31  O3  UNL     1      28.392   1.766   8.968  1.00  0.00    -0.393 OA
ATOM     32  H3  UNL     1      28.933   2.544   8.906  1.00  0.00     0.210 HD
ENDBRANCH  14  31
BRANCH  15  33
HETATM   33  O4  UNL     1      28.409   3.925  10.266  1.00  0.00    -0.389 OA
ATOM     34  H4  UNL     1      28.354   4.863  10.129  1.00  0.00     0.210 HD
ENDBRANCH  15  33
ENDBRANCH   7   9
ENDBRANCH   2   7
BRANCH   1  35
HETATM   35  N7  UNL     1      27.380   7.613   6.331  1.00  0.00    -0.354 N 
ATOM     36  H7  UNL     1      28.315   7.999   6.459  1.00  0.00     0.163 HD
BRANCH  35  37
HETATM   37  C6  UNL     1      26.309   8.560   6.458  1.00  0.00     0.274 C 
BRANCH  37  38
HETATM   38  N6  UNL     1      25.069   7.974   6.977  1.00  0.00    -0.147 N 
HETATM   39  C3  UNL     1      24.728   7.768   8.236  1.00  0.00     0.160 A 
HETATM   40  N3  UNL     1      25.287   7.899   9.435  1.00  0.00    -0.336 N 
HETATM   41  C4  UNL     1      23.415   7.242   8.266  1.00  0.00     0.169 A 
HETATM   42  C2  UNL     1      24.750   7.597  10.597  1.00  0.00     0.183 A 
ATOM     43  H3  UNL     1      26.236   8.275   9.455  1.00  0.00     0.168 HD
HETATM   44  N2  UNL     1      23.526   7.107  10.628  1.00  0.00    -0.337 N 
HETATM   45  C1  UNL     1      22.841   6.923   9.462  1.00  0.00     0.134 A 
ATOM     46  H2  UNL     1      23.093   6.867  11.520  1.00  0.00     0.168 HD
HETATM   47  N4  UNL     1      23.044   7.164   6.973  1.00  0.00    -0.045 N 
HETATM   48  C5  UNL     1      24.033   7.601   6.201  1.00  0.00     0.708 A 
BRANCH  45  49
HETATM   49  N1  UNL     1      21.647   6.450   9.514  1.00  0.00    -0.383 N 
ATOM     50  H12 UNL     1      21.312   5.797   8.806  1.00  0.00     0.157 HD
ATOM     51  H11 UNL     1      21.035   6.743  10.277  1.00  0.00     0.157 HD
ENDBRANCH  45  49
BRANCH  47  52
HETATM   52  O1  UNL     1      21.799   6.693   6.524  1.00  0.00    -0.269 OA
ATOM     53  H1  UNL     1      21.605   6.445   5.628  1.00  0.00     0.245 HD
ENDBRANCH  47  52
BRANCH  48  54
HETATM   54  N5  UNL     1      23.991   7.653   4.921  1.00  0.00    -0.232 N 
ATOM     55  H52 UNL     1      23.173   7.477   4.339  1.00  0.00     0.174 HD
ATOM     56  H51 UNL     1      24.784   7.883   4.322  1.00  0.00     0.174 HD
ENDBRANCH  48  54
ENDBRANCH  37  38
ENDBRANCH  35  37
ENDBRANCH   1  35
BRANCH   6  57
HETATM   57  O7  UNL     1      27.437   6.268   3.589  1.00  0.00    -0.277 OA
ATOM     58  H7  UNL     1      27.544   5.885   2.726  1.00  0.00     0.245 HD
ENDBRANCH   6  57
TORSDOF 17
ENDMDL
MODEL 4
REMARK VINA RESULT: -5.715279129      2.030      3.221
REMARK  17 active torsions:
REMARK  status: ('A' for Active; 'I' for Inactive)
REMARK    1  A    between atoms: N1_1  and  C1_4 
REMARK    2  A    between atoms: N4_12  and  O1_13 
REMARK    3  A    between atoms: C5_15  and  N5_16 
REMARK    4  A    between atoms: N6_19  and  C6_20 
REMARK    5  A    between atoms: C6_20  and  N7_21 
REMARK    6  A    between atoms: N7_21  and  C7_23 
REMARK    7  A    between atoms: C8_24  and  N8_25 
REMARK    8  A    between atoms: N8_25  and  C9_27 
REMARK    9  A    between atoms: C10_30  and  C11_31 
REMARK   10  A    between atoms: C11_31  and  N10_32 
REMARK   11  A    between atoms: N10_32  and  C12_35 
REMARK   12  A    between atoms: C12_35  and  N11_36 
REMARK   13  A    between atoms: C12_35  and  N12_40 
REMARK   14  A    between atoms: C12_35  and  O2_44 
REMARK   15  A    between atoms: C14_47  and  O3_48 
REMARK   16  A    between atoms: C15_50  and  O4_51 
REMARK   17  A    between atoms: N13_56  and  O7_57 
ROOT
HETATM    1  C7  UNL     1      24.015   6.898   6.173  1.00  0.00     0.187 A 
HETATM    2  C8  UNL     1      22.893   6.397   6.794  1.00  0.00     0.197 A 
HETATM    3  O5  UNL     1      22.107   7.468   7.054  1.00  0.00    -0.238 OA
HETATM    4  C16 UNL     1      22.665   8.546   6.643  1.00  0.00     0.399 A 
HETATM    5  O6  UNL     1      22.151   9.700   6.760  1.00  0.00    -0.235 OA
HETATM    6  N13 UNL     1      23.845   8.241   6.091  1.00  0.00    -0.145 N 
ENDROOT
BRANCH   2   7
HETATM    7  N8  UNL     1      22.506   5.099   7.151  1.00  0.00    -0.344 N 
ATOM      8  H8  UNL     1      21.980   4.616   6.423  1.00  0.00     0.163 HD
BRANCH   7   9
HETATM    9  C9  UNL     1      22.700   4.312   8.333  1.00  0.00     0.211 C 
HETATM   10  N9  UNL     1      23.973   4.548   8.895  1.00  0.00    -0.394 N 
HETATM   11  C10 UNL     1      24.034   5.136  10.211  1.00  0.00     0.107 C 
ATOM     12  H9  UNL     1      24.824   4.312   8.385  1.00  0.00     0.155 HD
HETATM   13  C13 UNL     1      23.007   6.201  10.345  1.00  0.00     0.061 C 
HETATM   14  C14 UNL     1      21.604   5.672  10.175  1.00  0.00     0.152 C 
HETATM   15  C15 UNL     1      21.523   4.486   9.294  1.00  0.00     0.189 C 
BRANCH  11  16
HETATM   16  C11 UNL     1      24.069   4.114  11.304  1.00  0.00     0.265 C 
BRANCH  16  17
HETATM   17  N10 UNL     1      25.208   3.237  11.122  1.00  0.00     0.010 N 
ATOM     18 2H10 UNL     1      25.731   3.448  10.272  1.00  0.00     0.285 HD
ATOM     19 1H10 UNL     1      25.951   3.419  11.796  1.00  0.00     0.285 HD
BRANCH  17  20
HETATM   20  C12 UNL     1      24.744   1.848  11.161  1.00  0.00     0.558 C 
BRANCH  20  21
HETATM   21  N11 UNL     1      23.531   1.739  11.960  1.00  0.00     0.005 N 
ATOM     22 3H11 UNL     1      23.108   0.814  11.883  1.00  0.00     0.282 HD
ATOM     23 2H11 UNL     1      23.735   1.729  12.959  1.00  0.00     0.282 HD
ATOM     24 1H11 UNL     1      22.874   2.479  11.714  1.00  0.00     0.282 HD
ENDBRANCH  20  21
BRANCH  20  25
HETATM   25  N12 UNL     1      24.530   1.282   9.861  1.00  0.00     0.005 N 
ATOM     26 3H12 UNL     1      24.534   0.263   9.906  1.00  0.00     0.282 HD
ATOM     27 2H12 UNL     1      23.569   1.434   9.554  1.00  0.00     0.282 HD
ATOM     28 1H12 UNL     1      25.191   1.616   9.160  1.00  0.00     0.282 HD
ENDBRANCH  20  25
BRANCH  20  29
HETATM   29  O2  UNL     1      25.726   1.100  11.808  1.00  0.00    -0.321 OA
ATOM     30  H2  UNL     1      26.114   1.656  12.473  1.00  0.00     0.216 HD
ENDBRANCH  20  29
ENDBRANCH  17  20
ENDBRANCH  16  17
ENDBRANCH  11  16
BRANCH  14  31
HETATM   31  O3  UNL     1      20.769   6.729   9.837  1.00  0.00    -0.393 OA
ATOM     32  H3  UNL     1      20.464   6.602   8.946  1.00  0.00     0.210 HD
ENDBRANCH  14  31
BRANCH  15  33
HETATM   33  O4  UNL     1      20.395   4.656   8.455  1.00  0.00    -0.389 OA
ATOM     34  H4  UNL     1      19.869   5.317   8.890  1.00  0.00     0.210 HD
ENDBRANCH  15  33
ENDBRANCH   7   9
ENDBRANCH   2   7
BRANCH   1  35
HETATM   35  N7  UNL     1      25.104   6.181   5.628  1.00  0.00    -0.354 N 
ATOM     36  H7  UNL     1      24.865   5.541   4.871  1.00  0.00     0.163 HD
BRANCH  35  37
HETATM   37  C6  UNL     1      26.496   6.216   5.976  1.00  0.00     0.274 C 
BRANCH  37  38
HETATM   38  N6  UNL     1      26.861   5.256   7.023  1.00  0.00    -0.147 N 
HETATM   39  C3  UNL     1      27.016   3.950   6.913  1.00  0.00     0.160 A 
HETATM   40  N3  UNL     1      26.863   3.022   5.974  1.00  0.00    -0.336 N 
HETATM   41  C4  UNL     1      27.435   3.439   8.165  1.00  0.00     0.169 A 
HETATM   42  C2  UNL     1      27.059   1.727   6.099  1.00  0.00     0.183 A 
ATOM     43  H3  UNL     1      26.560   3.350   5.056  1.00  0.00     0.168 HD
HETATM   44  N2  UNL     1      27.450   1.249   7.264  1.00  0.00    -0.337 N 
HETATM   45  C1  UNL     1      27.643   2.099   8.314  1.00  0.00     0.134 A 
ATOM     46  H2  UNL     1      27.606   0.248   7.381  1.00  0.00     0.168 HD
HETATM   47  N4  UNL     1      27.504   4.517   8.971  1.00  0.00    -0.045 N 
HETATM   48  C5  UNL     1      27.161   5.604   8.289  1.00  0.00     0.708 A 
BRANCH  45  49
HETATM   49  N1  UNL     1      28.030   1.614   9.440  1.00  0.00    -0.383 N 
ATOM     50  H12 UNL     1      29.022   1.497   9.645  1.00  0.00     0.157 HD
ATOM     51  H11 UNL     1      27.325   1.342  10.126  1.00  0.00     0.157 HD
ENDBRANCH  45  49
BRANCH  47  52
HETATM   52  O1  UNL     1      27.885   4.482  10.323  1.00  0.00    -0.269 OA
ATOM     53  H1  UNL     1      28.382   5.162  10.764  1.00  0.00     0.245 HD
ENDBRANCH  47  52
BRANCH  48  54
HETATM   54  N5  UNL     1      27.125   6.789   8.776  1.00  0.00    -0.232 N 
ATOM     55  H52 UNL     1      27.875   7.480   8.733  1.00  0.00     0.174 HD
ATOM     56  H51 UNL     1      26.329   7.191   9.272  1.00  0.00     0.174 HD
ENDBRANCH  48  54
ENDBRANCH  37  38
ENDBRANCH  35  37
ENDBRANCH   1  35
BRANCH   6  57
HETATM   57  O7  UNL     1      24.637   9.198   5.535  1.00  0.00    -0.277 OA
ATOM     58  H7  UNL     1      24.421  10.065   5.211  1.00  0.00     0.245 HD
ENDBRANCH   6  57
TORSDOF 17
ENDMDL
MODEL 5
REMARK VINA RESULT: -5.678848213      2.101      3.482
REMARK  17 active torsions:
REMARK  status: ('A' for Active; 'I' for Inactive)
REMARK    1  A    between atoms: N1_1  and  C1_4 
REMARK    2  A    between atoms: N4_12  and  O1_13 
REMARK    3  A    between atoms: C5_15  and  N5_16 
REMARK    4  A    between atoms: N6_19  and  C6_20 
REMARK    5  A    between atoms: C6_20  and  N7_21 
REMARK    6  A    between atoms: N7_21  and  C7_23 
REMARK    7  A    between atoms: C8_24  and  N8_25 
REMARK    8  A    between atoms: N8_25  and  C9_27 
REMARK    9  A    between atoms: C10_30  and  C11_31 
REMARK   10  A    between atoms: C11_31  and  N10_32 
REMARK   11  A    between atoms: N10_32  and  C12_35 
REMARK   12  A    between atoms: C12_35  and  N11_36 
REMARK   13  A    between atoms: C12_35  and  N12_40 
REMARK   14  A    between atoms: C12_35  and  O2_44 
REMARK   15  A    between atoms: C14_47  and  O3_48 
REMARK   16  A    between atoms: C15_50  and  O4_51 
REMARK   17  A    between atoms: N13_56  and  O7_57 
ROOT
HETATM    1  C7  UNL     1      23.251   5.797   8.709  1.00  0.00     0.187 A 
HETATM    2  C8  UNL     1      23.038   4.932   9.759  1.00  0.00     0.197 A 
HETATM    3  O5  UNL     1      22.457   5.671  10.732  1.00  0.00    -0.238 OA
HETATM    4  C16 UNL     1      22.311   6.885  10.349  1.00  0.00     0.399 A 
HETATM    5  O6  UNL     1      21.795   7.797  11.064  1.00  0.00    -0.235 OA
HETATM    6  N13 UNL     1      22.786   7.008   9.104  1.00  0.00    -0.145 N 
ENDROOT
BRANCH   2   7
HETATM    7  N8  UNL     1      23.310   3.569   9.935  1.00  0.00    -0.344 N 
ATOM      8  H8  UNL     1      24.142   3.252   9.438  1.00  0.00     0.163 HD
BRANCH   7   9
HETATM    9  C9  UNL     1      22.654   2.530  10.672  1.00  0.00     0.211 C 
HETATM   10  N9  UNL     1      22.330   1.441   9.833  1.00  0.00    -0.394 N 
HETATM   11  C10 UNL     1      22.959   0.171  10.101  1.00  0.00     0.107 C 
ATOM     12  H9  UNL     1      21.673   1.550   9.061  1.00  0.00     0.155 HD
HETATM   13  C13 UNL     1      24.386   0.370  10.460  1.00  0.00     0.061 C 
HETATM   14  C14 UNL     1      24.554   1.204  11.707  1.00  0.00     0.152 C 
HETATM   15  C15 UNL     1      23.455   2.170  11.924  1.00  0.00     0.189 C 
BRANCH  11  16
HETATM   16  C11 UNL     1      22.160  -0.691  11.029  1.00  0.00     0.265 C 
BRANCH  16  17
HETATM   17  N10 UNL     1      21.199  -1.469  10.274  1.00  0.00     0.010 N 
ATOM     18 2H10 UNL     1      21.375  -1.437   9.269  1.00  0.00     0.285 HD
ATOM     19 1H10 UNL     1      21.320  -2.473  10.407  1.00  0.00     0.285 HD
BRANCH  17  20
HETATM   20  C12 UNL     1      19.850  -1.016  10.620  1.00  0.00     0.558 C 
BRANCH  20  21
HETATM   21  N11 UNL     1      19.163  -0.513   9.438  1.00  0.00     0.005 N 
ATOM     22 3H11 UNL     1      19.315   0.487   9.308  1.00  0.00     0.282 HD
ATOM     23 2H11 UNL     1      19.597  -0.846   8.577  1.00  0.00     0.282 HD
ATOM     24 1H11 UNL     1      18.170  -0.745   9.477  1.00  0.00     0.282 HD
ENDBRANCH  20  21
BRANCH  20  25
HETATM   25  N12 UNL     1      19.057  -2.026  11.258  1.00  0.00     0.005 N 
ATOM     26 3H12 UNL     1      19.570  -2.457  12.027  1.00  0.00     0.282 HD
ATOM     27 2H12 UNL     1      18.289  -1.605  11.782  1.00  0.00     0.282 HD
ATOM     28 1H12 UNL     1      18.709  -2.736  10.613  1.00  0.00     0.282 HD
ENDBRANCH  20  25
BRANCH  20  29
HETATM   29  O2  UNL     1      19.984   0.056  11.500  1.00  0.00    -0.321 OA
ATOM     30  H2  UNL     1      19.401  -0.104  12.232  1.00  0.00     0.216 HD
ENDBRANCH  20  29
ENDBRANCH  17  20
ENDBRANCH  16  17
ENDBRANCH  11  16
BRANCH  14  31
HETATM   31  O3  UNL     1      25.835   1.740  11.713  1.00  0.00    -0.393 OA
ATOM     32  H3  UNL     1      26.462   1.028  11.657  1.00  0.00     0.210 HD
ENDBRANCH  14  31
BRANCH  15  33
HETATM   33  O4  UNL     1      24.039   3.391  12.341  1.00  0.00    -0.389 OA
ATOM     34  H4  UNL     1      24.674   3.141  13.002  1.00  0.00     0.210 HD
ENDBRANCH  15  33
ENDBRANCH   7   9
ENDBRANCH   2   7
BRANCH   1  35
HETATM   35  N7  UNL     1      23.760   5.501   7.424  1.00  0.00    -0.354 N 
ATOM     36  H7  UNL     1      23.053   5.313   6.713  1.00  0.00     0.163 HD
BRANCH  35  37
HETATM   37  C6  UNL     1      25.118   5.426   6.966  1.00  0.00     0.274 C 
BRANCH  37  38
HETATM   38  N6  UNL     1      25.954   4.524   7.763  1.00  0.00    -0.147 N 
HETATM   39  C3  UNL     1      26.104   3.219   7.631  1.00  0.00     0.160 A 
HETATM   40  N3  UNL     1      25.589   2.247   6.884  1.00  0.00    -0.336 N 
HETATM   41  C4  UNL     1      27.059   2.777   8.576  1.00  0.00     0.169 A 
HETATM   42  C2  UNL     1      25.879   0.964   6.943  1.00  0.00     0.183 A 
ATOM     43  H3  UNL     1      24.895   2.525   6.190  1.00  0.00     0.168 HD
HETATM   44  N2  UNL     1      26.770   0.550   7.823  1.00  0.00    -0.337 N 
HETATM   45  C1  UNL     1      27.372   1.451   8.652  1.00  0.00     0.134 A 
ATOM     46  H2  UNL     1      27.008  -0.440   7.884  1.00  0.00     0.168 HD
HETATM   47  N4  UNL     1      27.431   3.890   9.237  1.00  0.00    -0.045 N 
HETATM   48  C5  UNL     1      26.771   4.936   8.752  1.00  0.00     0.708 A 
BRANCH  45  49
HETATM   49  N1  UNL     1      28.243   1.027   9.499  1.00  0.00    -0.383 N 
ATOM     50  H12 UNL     1      27.971   0.407  10.261  1.00  0.00     0.157 HD
ATOM     51  H11 UNL     1      29.213   1.327   9.397  1.00  0.00     0.157 HD
ENDBRANCH  45  49
BRANCH  47  52
HETATM   52  O1  UNL     1      28.376   3.926  10.277  1.00  0.00    -0.269 OA
ATOM     53  H1  UNL     1      28.855   4.701  10.547  1.00  0.00     0.245 HD
ENDBRANCH  47  52
BRANCH  48  54
HETATM   54  N5  UNL     1      26.902   6.140   9.172  1.00  0.00    -0.232 N 
ATOM     55  H52 UNL     1      26.922   6.438  10.146  1.00  0.00     0.174 HD
ATOM     56  H51 UNL     1      27.005   6.957   8.569  1.00  0.00     0.174 HD
ENDBRANCH  48  54
ENDBRANCH  37  38
ENDBRANCH  35  37
ENDBRANCH   1  35
BRANCH   6  57
HETATM   57  O7  UNL     1      22.722   8.191   8.434  1.00  0.00    -0.277 OA
ATOM     58  H7  UNL     1      22.005   8.807   8.339  1.00  0.00     0.245 HD
ENDBRANCH   6  57
TORSDOF 17
ENDMDL
