MODEL 1
REMARK VINA RESULT: -9.343438945      0.000      0.000
REMARK  5 active torsions:
REMARK  status: ('A' for Active; 'I' for Inactive)
REMARK    1  A    between atoms: C2_2  and  C3_3 
REMARK    2  A    between atoms: C3_3  and  C4_4 
REMARK    3  A    between atoms: C4_4  and  C5_5 
REMARK    4  A    between atoms: N1_13  and  C13_14 
REMARK    5  A    between atoms: C13_14  and  C14_15 
ROOT
HETATM    1  C5  UNL     1      14.060  30.091  48.982  1.00  0.00     0.013 A 
HETATM    2  C6  UNL     1      14.117  29.920  50.349  1.00  0.00     0.039 A 
HETATM    3  C7  UNL     1      13.840  28.602  50.639  1.00  0.00    -0.007 A 
HETATM    4  C8  UNL     1      13.755  27.860  51.794  1.00  0.00     0.014 A 
HETATM    5  C9  UNL     1      13.452  26.517  51.782  1.00  0.00     0.001 A 
HETATM    6  C10 UNL     1      13.231  25.912  50.568  1.00  0.00     0.002 A 
HETATM    7  C11 UNL     1      13.319  26.661  49.420  1.00  0.00     0.030 A 
HETATM    8  C12 UNL     1      13.620  28.006  49.412  1.00  0.00     0.045 A 
HETATM    9  N1  UNL     1      13.755  28.909  48.426  1.00  0.00    -0.344 N 
ENDROOT
BRANCH   9  10
HETATM   10  C13 UNL     1      13.587  28.628  47.034  1.00  0.00     0.186 C 
BRANCH  10  11
HETATM   11  C14 UNL     1      14.770  28.140  46.330  1.00  0.00     0.029 A 
HETATM   12  C15 UNL     1      15.007  28.023  44.979  1.00  0.00     0.040 A 
HETATM   13  C16 UNL     1      16.271  27.512  44.764  1.00  0.00    -0.008 A 
HETATM   14  C17 UNL     1      17.011  27.196  43.651  1.00  0.00     0.014 A 
HETATM   15  C21 UNL     1      16.802  27.318  46.014  1.00  0.00     0.042 A 
HETATM   16  C18 UNL     1      18.283  26.686  43.797  1.00  0.00     0.001 A 
HETATM   17  C19 UNL     1      18.807  26.495  45.072  1.00  0.00     0.002 A 
HETATM   18  C20 UNL     1      18.074  26.808  46.193  1.00  0.00     0.030 A 
HETATM   19  N2  UNL     1      15.884  27.702  46.932  1.00  0.00    -0.357 N 
ATOM     20  H2  UNL     1      16.021  27.663  47.942  1.00  0.00     0.166 HD
ENDBRANCH  10  11
ENDBRANCH   9  10
BRANCH   1  21
HETATM   21  C4  UNL     1      14.315  31.396  48.326  1.00  0.00     0.057 C 
BRANCH  21  22
HETATM   22  C3  UNL     1      15.819  31.502  48.033  1.00  0.00     0.006 C 
BRANCH  22  23
HETATM   23  C2  UNL     1      16.046  31.375  46.562  1.00  0.00    -0.004 C 
HETATM   24  C1  UNL     1      14.866  31.807  45.734  1.00  0.00     0.005 C 
ENDBRANCH  22  23
ENDBRANCH  21  22
ENDBRANCH   1  21
TORSDOF 5
ENDMDL
MODEL 2
REMARK VINA RESULT: -9.095869214      2.841      5.771
REMARK  5 active torsions:
REMARK  status: ('A' for Active; 'I' for Inactive)
REMARK    1  A    between atoms: C2_2  and  C3_3 
REMARK    2  A    between atoms: C3_3  and  C4_4 
REMARK    3  A    between atoms: C4_4  and  C5_5 
REMARK    4  A    between atoms: N1_13  and  C13_14 
REMARK    5  A    between atoms: C13_14  and  C14_15 
ROOT
HETATM    1  C5  UNL     1      15.225  31.532  49.197  1.00  0.00     0.013 A 
HETATM    2  C6  UNL     1      15.863  31.851  48.017  1.00  0.00     0.039 A 
HETATM    3  C7  UNL     1      15.186  31.255  46.975  1.00  0.00    -0.007 A 
HETATM    4  C8  UNL     1      15.347  31.217  45.610  1.00  0.00     0.014 A 
HETATM    5  C9  UNL     1      14.488  30.520  44.790  1.00  0.00     0.001 A 
HETATM    6  C10 UNL     1      13.440  29.846  45.370  1.00  0.00     0.002 A 
HETATM    7  C11 UNL     1      13.287  29.891  46.735  1.00  0.00     0.030 A 
HETATM    8  C12 UNL     1      14.137  30.582  47.572  1.00  0.00     0.045 A 
HETATM    9  N1  UNL     1      14.171  30.756  48.904  1.00  0.00    -0.344 N 
ENDROOT
BRANCH   9  10
HETATM   10  C13 UNL     1      13.233  30.190  49.824  1.00  0.00     0.186 C 
BRANCH  10  11
HETATM   11  C14 UNL     1      13.421  28.777  50.144  1.00  0.00     0.029 A 
HETATM   12  C15 UNL     1      14.455  27.929  49.818  1.00  0.00     0.040 A 
HETATM   13  C16 UNL     1      14.214  26.672  50.335  1.00  0.00    -0.008 A 
HETATM   14  C17 UNL     1      14.885  25.473  50.319  1.00  0.00     0.014 A 
HETATM   15  C21 UNL     1      13.009  26.770  50.984  1.00  0.00     0.042 A 
HETATM   16  C18 UNL     1      14.344  24.377  50.955  1.00  0.00     0.001 A 
HETATM   17  C19 UNL     1      13.121  24.493  51.608  1.00  0.00     0.002 A 
HETATM   18  C20 UNL     1      12.440  25.688  51.630  1.00  0.00     0.030 A 
HETATM   19  N2  UNL     1      12.557  28.039  50.854  1.00  0.00    -0.357 N 
ATOM     20  H2  UNL     1      11.680  28.386  51.243  1.00  0.00     0.166 HD
ENDBRANCH  10  11
ENDBRANCH   9  10
BRANCH   1  21
HETATM   21  C4  UNL     1      15.692  32.017  50.518  1.00  0.00     0.057 C 
BRANCH  21  22
HETATM   22  C3  UNL     1      16.260  30.821  51.296  1.00  0.00     0.006 C 
BRANCH  22  23
HETATM   23  C2  UNL     1      15.644  30.781  52.658  1.00  0.00    -0.004 C 
HETATM   24  C1  UNL     1      15.387  29.386  53.158  1.00  0.00     0.005 C 
ENDBRANCH  22  23
ENDBRANCH  21  22
ENDBRANCH   1  21
TORSDOF 5
ENDMDL
MODEL 3
REMARK VINA RESULT: -9.048412492      1.197      3.990
REMARK  5 active torsions:
REMARK  status: ('A' for Active; 'I' for Inactive)
REMARK    1  A    between atoms: C2_2  and  C3_3 
REMARK    2  A    between atoms: C3_3  and  C4_4 
REMARK    3  A    between atoms: C4_4  and  C5_5 
REMARK    4  A    between atoms: N1_13  and  C13_14 
REMARK    5  A    between atoms: C13_14  and  C14_15 
ROOT
HETATM    1  C5  UNL     1      13.644  27.805  49.893  1.00  0.00     0.013 A 
HETATM    2  C6  UNL     1      14.068  28.176  51.152  1.00  0.00     0.039 A 
HETATM    3  C7  UNL     1      14.659  29.417  51.069  1.00  0.00    -0.007 A 
HETATM    4  C8  UNL     1      15.250  30.272  51.970  1.00  0.00     0.014 A 
HETATM    5  C9  UNL     1      15.772  31.490  51.592  1.00  0.00     0.001 A 
HETATM    6  C10 UNL     1      15.691  31.848  50.268  1.00  0.00     0.002 A 
HETATM    7  C11 UNL     1      15.099  30.987  49.376  1.00  0.00     0.030 A 
HETATM    8  C12 UNL     1      14.572  29.765  49.735  1.00  0.00     0.045 A 
HETATM    9  N1  UNL     1      13.961  28.790  49.040  1.00  0.00    -0.344 N 
ENDROOT
BRANCH   9  10
HETATM   10  C13 UNL     1      13.714  28.825  47.632  1.00  0.00     0.186 C 
BRANCH  10  11
HETATM   11  C14 UNL     1      14.787  28.322  46.779  1.00  0.00     0.029 A 
HETATM   12  C15 UNL     1      14.885  28.299  45.406  1.00  0.00     0.040 A 
HETATM   13  C16 UNL     1      16.084  27.728  45.028  1.00  0.00    -0.008 A 
HETATM   14  C17 UNL     1      16.691  27.457  43.826  1.00  0.00     0.014 A 
HETATM   15  C21 UNL     1      16.717  27.401  46.200  1.00  0.00     0.042 A 
HETATM   16  C18 UNL     1      17.931  26.858  43.806  1.00  0.00     0.001 A 
HETATM   17  C19 UNL     1      18.559  26.532  45.003  1.00  0.00     0.002 A 
HETATM   18  C20 UNL     1      17.961  26.799  46.213  1.00  0.00     0.030 A 
HETATM   19  N2  UNL     1      15.919  27.767  47.232  1.00  0.00    -0.357 N 
ATOM     20  H2  UNL     1      16.149  27.639  48.217  1.00  0.00     0.166 HD
ENDBRANCH  10  11
ENDBRANCH   9  10
BRANCH   1  21
HETATM   21  C4  UNL     1      12.957  26.519  49.625  1.00  0.00     0.057 C 
BRANCH  21  22
HETATM   22  C3  UNL     1      12.977  25.685  50.915  1.00  0.00     0.006 C 
BRANCH  22  23
HETATM   23  C2  UNL     1      14.132  24.738  50.872  1.00  0.00    -0.004 C 
HETATM   24  C1  UNL     1      13.759  23.322  51.218  1.00  0.00     0.005 C 
ENDBRANCH  22  23
ENDBRANCH  21  22
ENDBRANCH   1  21
TORSDOF 5
ENDMDL
MODEL 4
REMARK VINA RESULT: -9.009862422      0.527      1.200
REMARK  5 active torsions:
REMARK  status: ('A' for Active; 'I' for Inactive)
REMARK    1  A    between atoms: C2_2  and  C3_3 
REMARK    2  A    between atoms: C3_3  and  C4_4 
REMARK    3  A    between atoms: C4_4  and  C5_5 
REMARK    4  A    between atoms: N1_13  and  C13_14 
REMARK    5  A    between atoms: C13_14  and  C14_15 
ROOT
HETATM    1  C5  UNL     1      14.059  30.114  49.080  1.00  0.00     0.013 A 
HETATM    2  C6  UNL     1      14.087  30.004  50.454  1.00  0.00     0.039 A 
HETATM    3  C7  UNL     1      13.843  28.692  50.796  1.00  0.00    -0.007 A 
HETATM    4  C8  UNL     1      13.751  27.999  51.980  1.00  0.00     0.014 A 
HETATM    5  C9  UNL     1      13.491  26.648  52.021  1.00  0.00     0.001 A 
HETATM    6  C10 UNL     1      13.320  25.983  50.831  1.00  0.00     0.002 A 
HETATM    7  C11 UNL     1      13.414  26.684  49.652  1.00  0.00     0.030 A 
HETATM    8  C12 UNL     1      13.674  28.036  49.592  1.00  0.00     0.045 A 
HETATM    9  N1  UNL     1      13.806  28.899  48.570  1.00  0.00    -0.344 N 
ENDROOT
BRANCH   9  10
HETATM   10  C13 UNL     1      13.683  28.552  47.188  1.00  0.00     0.186 C 
BRANCH  10  11
HETATM   11  C14 UNL     1      14.896  28.063  46.539  1.00  0.00     0.029 A 
HETATM   12  C15 UNL     1      16.065  27.591  47.093  1.00  0.00     0.040 A 
HETATM   13  C16 UNL     1      16.949  27.233  46.096  1.00  0.00    -0.008 A 
HETATM   14  C17 UNL     1      18.223  26.719  46.069  1.00  0.00     0.014 A 
HETATM   15  C21 UNL     1      16.296  27.498  44.918  1.00  0.00     0.042 A 
HETATM   16  C18 UNL     1      18.836  26.473  44.860  1.00  0.00     0.001 A 
HETATM   17  C19 UNL     1      18.160  26.746  43.675  1.00  0.00     0.002 A 
HETATM   18  C20 UNL     1      16.885  27.262  43.690  1.00  0.00     0.030 A 
HETATM   19  N2  UNL     1      15.071  27.993  45.212  1.00  0.00    -0.357 N 
ATOM     20  H2  UNL     1      14.376  28.273  44.520  1.00  0.00     0.166 HD
ENDBRANCH  10  11
ENDBRANCH   9  10
BRANCH   1  21
HETATM   21  C4  UNL     1      14.291  31.396  48.373  1.00  0.00     0.057 C 
BRANCH  21  22
HETATM   22  C3  UNL     1      15.796  31.529  48.098  1.00  0.00     0.006 C 
BRANCH  22  23
HETATM   23  C2  UNL     1      16.051  31.326  46.640  1.00  0.00    -0.004 C 
HETATM   24  C1  UNL     1      14.895  31.730  45.767  1.00  0.00     0.005 C 
ENDBRANCH  22  23
ENDBRANCH  21  22
ENDBRANCH   1  21
TORSDOF 5
ENDMDL
MODEL 5
REMARK VINA RESULT: -8.904856196      1.137      1.914
REMARK  5 active torsions:
REMARK  status: ('A' for Active; 'I' for Inactive)
REMARK    1  A    between atoms: C2_2  and  C3_3 
REMARK    2  A    between atoms: C3_3  and  C4_4 
REMARK    3  A    between atoms: C4_4  and  C5_5 
REMARK    4  A    between atoms: N1_13  and  C13_14 
REMARK    5  A    between atoms: C13_14  and  C14_15 
ROOT
HETATM    1  C5  UNL     1      15.297  30.697  47.808  1.00  0.00     0.013 A 
HETATM    2  C6  UNL     1      15.398  31.410  48.985  1.00  0.00     0.039 A 
HETATM    3  C7  UNL     1      14.781  30.693  49.987  1.00  0.00    -0.007 A 
HETATM    4  C8  UNL     1      14.570  30.891  51.331  1.00  0.00     0.014 A 
HETATM    5  C9  UNL     1      13.900  29.974  52.111  1.00  0.00     0.001 A 
HETATM    6  C10 UNL     1      13.434  28.830  51.511  1.00  0.00     0.002 A 
HETATM    7  C11 UNL     1      13.650  28.641  50.167  1.00  0.00     0.030 A 
HETATM    8  C12 UNL     1      14.318  29.547  49.371  1.00  0.00     0.045 A 
HETATM    9  N1  UNL     1      14.634  29.561  48.065  1.00  0.00    -0.344 N 
ENDROOT
BRANCH   9  10
HETATM   10  C13 UNL     1      14.298  28.528  47.134  1.00  0.00     0.186 C 
BRANCH  10  11
HETATM   11  C14 UNL     1      15.405  27.981  46.355  1.00  0.00     0.029 A 
HETATM   12  C15 UNL     1      15.580  27.924  44.991  1.00  0.00     0.040 A 
HETATM   13  C16 UNL     1      16.784  27.317  44.695  1.00  0.00    -0.008 A 
HETATM   14  C17 UNL     1      17.451  27.003  43.536  1.00  0.00     0.014 A 
HETATM   15  C21 UNL     1      17.342  27.003  45.908  1.00  0.00     0.042 A 
HETATM   16  C18 UNL     1      18.676  26.376  43.599  1.00  0.00     0.001 A 
HETATM   17  C19 UNL     1      19.228  26.065  44.838  1.00  0.00     0.002 A 
HETATM   18  C20 UNL     1      18.568  26.374  46.005  1.00  0.00     0.030 A 
HETATM   19  N2  UNL     1      16.496  27.412  46.884  1.00  0.00    -0.357 N 
ATOM     20  H2  UNL     1      16.667  27.301  47.884  1.00  0.00     0.166 HD
ENDBRANCH  10  11
ENDBRANCH   9  10
BRANCH   1  21
HETATM   21  C4  UNL     1      15.864  31.182  46.527  1.00  0.00     0.057 C 
BRANCH  21  22
HETATM   22  C3  UNL     1      14.813  32.067  45.840  1.00  0.00     0.006 C 
BRANCH  22  23
HETATM   23  C2  UNL     1      13.815  31.199  45.146  1.00  0.00    -0.004 C 
HETATM   24  C1  UNL     1      12.390  31.508  45.517  1.00  0.00     0.005 C 
ENDBRANCH  22  23
ENDBRANCH  21  22
ENDBRANCH   1  21
TORSDOF 5
ENDMDL
