MODEL 1
REMARK VINA RESULT: -10.509893898      0.000      0.000
REMARK  5 active torsions:
REMARK  status: ('A' for Active; 'I' for Inactive)
REMARK    1  A    between atoms: C2_2  and  C3_3 
REMARK    2  A    between atoms: C2_2  and  C14_15 
REMARK    3  A    between atoms: C3_3  and  C4_4 
REMARK    4  A    between atoms: C4_4  and  C5_5 
REMARK    5  A    between atoms: C5_5  and  C6_6 
ROOT
HETATM    1  C1  UNL     1      16.254  31.504  47.938  1.00  0.00     0.020 C 
HETATM    2  C2  UNL     1      15.065  30.956  47.992  1.00  0.00    -0.055 C 
ENDROOT
BRANCH   2   3
HETATM    3  C3  UNL     1      14.136  31.332  46.876  1.00  0.00     0.039 C 
BRANCH   3   4
HETATM    4  C4  UNL     1      14.685  30.906  45.542  1.00  0.00     0.011 C 
BRANCH   4   5
HETATM    5  C5  UNL     1      14.315  29.514  45.144  1.00  0.00     0.065 C 
BRANCH   5   6
HETATM    6  C6  UNL     1      15.473  28.602  44.999  1.00  0.00     0.054 A 
HETATM    7  C7  UNL     1      16.151  28.128  46.126  1.00  0.00     0.047 A 
HETATM    8  C8  UNL     1      17.164  27.316  45.667  1.00  0.00     0.000 A 
HETATM    9  C9  UNL     1      18.130  26.594  46.317  1.00  0.00     0.014 A 
HETATM   10  C13 UNL     1      17.064  27.326  44.294  1.00  0.00     0.086 A 
HETATM   11  C10 UNL     1      19.021  25.861  45.551  1.00  0.00     0.001 A 
HETATM   12  C11 UNL     1      18.926  25.867  44.179  1.00  0.00     0.003 A 
HETATM   13  C12 UNL     1      17.953  26.593  43.522  1.00  0.00     0.038 A 
HETATM   14  O1  UNL     1      16.057  28.096  43.966  1.00  0.00    -0.314 OA
ENDBRANCH   5   6
ENDBRANCH   4   5
ENDBRANCH   3   4
ENDBRANCH   2   3
BRANCH   2  15
HETATM   15  C14 UNL     1      14.635  30.068  49.055  1.00  0.00    -0.003 A 
HETATM   16  C15 UNL     1      13.797  28.963  48.936  1.00  0.00     0.101 A 
HETATM   17  N1  UNL     1      13.581  28.383  50.116  1.00  0.00    -0.364 N 
HETATM   18  C16 UNL     1      14.269  29.091  51.035  1.00  0.00     0.043 A 
ATOM     19  H1  UNL     1      13.006  27.559  50.290  1.00  0.00     0.165 HD
HETATM   20  C17 UNL     1      14.368  28.908  52.395  1.00  0.00     0.030 A 
HETATM   21  C21 UNL     1      14.930  30.144  50.393  1.00  0.00     0.003 A 
HETATM   22  C18 UNL     1      15.112  29.743  53.189  1.00  0.00     0.002 A 
HETATM   23  C19 UNL     1      15.765  30.782  52.571  1.00  0.00     0.001 A 
HETATM   24  C20 UNL     1      15.665  30.966  51.194  1.00  0.00     0.014 A 
ENDBRANCH   2  15
TORSDOF 5
ENDMDL
MODEL 2
REMARK VINA RESULT: -10.469425394      2.172      7.264
REMARK  5 active torsions:
REMARK  status: ('A' for Active; 'I' for Inactive)
REMARK    1  A    between atoms: C2_2  and  C3_3 
REMARK    2  A    between atoms: C2_2  and  C14_15 
REMARK    3  A    between atoms: C3_3  and  C4_4 
REMARK    4  A    between atoms: C4_4  and  C5_5 
REMARK    5  A    between atoms: C5_5  and  C6_6 
ROOT
HETATM    1  C1  UNL     1      14.235  27.816  44.629  1.00  0.00     0.020 C 
HETATM    2  C2  UNL     1      15.409  28.396  44.676  1.00  0.00    -0.055 C 
ENDROOT
BRANCH   2   3
HETATM    3  C3  UNL     1      15.425  29.841  44.273  1.00  0.00     0.039 C 
BRANCH   3   4
HETATM    4  C4  UNL     1      14.424  30.640  45.062  1.00  0.00     0.011 C 
BRANCH   4   5
HETATM    5  C5  UNL     1      15.030  31.703  45.920  1.00  0.00     0.065 C 
BRANCH   5   6
HETATM    6  C6  UNL     1      14.726  31.557  47.363  1.00  0.00     0.054 A 
HETATM    7  C7  UNL     1      15.754  31.364  48.290  1.00  0.00     0.047 A 
HETATM    8  C8  UNL     1      15.156  31.264  49.527  1.00  0.00     0.000 A 
HETATM    9  C9  UNL     1      15.670  31.074  50.783  1.00  0.00     0.014 A 
HETATM   10  C13 UNL     1      13.804  31.400  49.307  1.00  0.00     0.086 A 
HETATM   11  C10 UNL     1      14.785  31.019  51.848  1.00  0.00     0.001 A 
HETATM   12  C11 UNL     1      13.433  31.153  51.633  1.00  0.00     0.003 A 
HETATM   13  C12 UNL     1      12.913  31.346  50.369  1.00  0.00     0.038 A 
HETATM   14  O1  UNL     1      13.617  31.568  48.022  1.00  0.00    -0.314 OA
ENDBRANCH   5   6
ENDBRANCH   4   5
ENDBRANCH   3   4
ENDBRANCH   2   3
BRANCH   2  15
HETATM   15  C14 UNL     1      16.630  27.714  45.058  1.00  0.00    -0.003 A 
HETATM   16  C15 UNL     1      17.322  27.843  46.259  1.00  0.00     0.101 A 
HETATM   17  N1  UNL     1      18.423  27.093  46.273  1.00  0.00    -0.364 N 
HETATM   18  C16 UNL     1      18.482  26.458  45.085  1.00  0.00     0.043 A 
ATOM     19  H1  UNL     1      19.094  27.015  47.037  1.00  0.00     0.165 HD
HETATM   20  C17 UNL     1      19.425  25.580  44.601  1.00  0.00     0.030 A 
HETATM   21  C21 UNL     1      17.375  26.832  44.315  1.00  0.00     0.003 A 
HETATM   22  C18 UNL     1      19.331  25.031  43.347  1.00  0.00     0.002 A 
HETATM   23  C19 UNL     1      18.250  25.392  42.581  1.00  0.00     0.001 A 
HETATM   24  C20 UNL     1      17.296  26.280  43.072  1.00  0.00     0.014 A 
ENDBRANCH   2  15
TORSDOF 5
ENDMDL
MODEL 3
REMARK VINA RESULT: -10.421214187      1.437      1.869
REMARK  5 active torsions:
REMARK  status: ('A' for Active; 'I' for Inactive)
REMARK    1  A    between atoms: C2_2  and  C3_3 
REMARK    2  A    between atoms: C2_2  and  C14_15 
REMARK    3  A    between atoms: C3_3  and  C4_4 
REMARK    4  A    between atoms: C4_4  and  C5_5 
REMARK    5  A    between atoms: C5_5  and  C6_6 
ROOT
HETATM    1  C1  UNL     1      16.326  31.248  47.560  1.00  0.00     0.020 C 
HETATM    2  C2  UNL     1      15.022  31.122  47.590  1.00  0.00    -0.055 C 
ENDROOT
BRANCH   2   3
HETATM    3  C3  UNL     1      14.321  31.412  46.295  1.00  0.00     0.039 C 
BRANCH   3   4
HETATM    4  C4  UNL     1      14.946  30.658  45.154  1.00  0.00     0.011 C 
BRANCH   4   5
HETATM    5  C5  UNL     1      14.587  29.208  45.109  1.00  0.00     0.065 C 
BRANCH   5   6
HETATM    6  C6  UNL     1      15.749  28.305  44.943  1.00  0.00     0.054 A 
HETATM    7  C7  UNL     1      16.468  27.859  46.056  1.00  0.00     0.047 A 
HETATM    8  C8  UNL     1      17.474  27.049  45.578  1.00  0.00     0.000 A 
HETATM    9  C9  UNL     1      18.467  26.348  46.210  1.00  0.00     0.014 A 
HETATM   10  C13 UNL     1      17.330  27.034  44.210  1.00  0.00     0.086 A 
HETATM   11  C10 UNL     1      19.342  25.610  45.429  1.00  0.00     0.001 A 
HETATM   12  C11 UNL     1      19.203  25.592  44.060  1.00  0.00     0.003 A 
HETATM   13  C12 UNL     1      18.203  26.297  43.422  1.00  0.00     0.038 A 
HETATM   14  O1  UNL     1      16.306  27.787  43.900  1.00  0.00    -0.314 OA
ENDBRANCH   5   6
ENDBRANCH   4   5
ENDBRANCH   3   4
ENDBRANCH   2   3
BRANCH   2  15
HETATM   15  C14 UNL     1      14.275  30.755  48.777  1.00  0.00    -0.003 A 
HETATM   16  C15 UNL     1      13.656  31.617  49.677  1.00  0.00     0.101 A 
HETATM   17  N1  UNL     1      13.078  30.951  50.676  1.00  0.00    -0.364 N 
HETATM   18  C16 UNL     1      13.304  29.639  50.457  1.00  0.00     0.043 A 
ATOM     19  H1  UNL     1      12.562  31.356  51.457  1.00  0.00     0.165 HD
HETATM   20  C17 UNL     1      12.927  28.544  51.199  1.00  0.00     0.030 A 
HETATM   21  C21 UNL     1      14.048  29.498  49.280  1.00  0.00     0.003 A 
HETATM   22  C18 UNL     1      13.258  27.265  50.829  1.00  0.00     0.002 A 
HETATM   23  C19 UNL     1      13.990  27.114  49.676  1.00  0.00     0.001 A 
HETATM   24  C20 UNL     1      14.371  28.223  48.926  1.00  0.00     0.014 A 
ENDBRANCH   2  15
TORSDOF 5
ENDMDL
MODEL 4
REMARK VINA RESULT: -10.342018434      1.390      2.040
REMARK  5 active torsions:
REMARK  status: ('A' for Active; 'I' for Inactive)
REMARK    1  A    between atoms: C2_2  and  C3_3 
REMARK    2  A    between atoms: C2_2  and  C14_15 
REMARK    3  A    between atoms: C3_3  and  C4_4 
REMARK    4  A    between atoms: C4_4  and  C5_5 
REMARK    5  A    between atoms: C5_5  and  C6_6 
ROOT
HETATM    1  C1  UNL     1      15.431  31.021  48.290  1.00  0.00     0.020 C 
HETATM    2  C2  UNL     1      14.313  30.350  48.417  1.00  0.00    -0.055 C 
ENDROOT
BRANCH   2   3
HETATM    3  C3  UNL     1      13.441  30.322  47.197  1.00  0.00     0.039 C 
BRANCH   3   4
HETATM    4  C4  UNL     1      13.736  29.121  46.341  1.00  0.00     0.011 C 
BRANCH   4   5
HETATM    5  C5  UNL     1      14.615  29.408  45.166  1.00  0.00     0.065 C 
BRANCH   5   6
HETATM    6  C6  UNL     1      15.748  28.466  45.020  1.00  0.00     0.054 A 
HETATM    7  C7  UNL     1      16.401  27.957  46.146  1.00  0.00     0.047 A 
HETATM    8  C8  UNL     1      17.395  27.123  45.684  1.00  0.00     0.000 A 
HETATM    9  C9  UNL     1      18.333  26.365  46.333  1.00  0.00     0.014 A 
HETATM   10  C13 UNL     1      17.310  27.157  44.311  1.00  0.00     0.086 A 
HETATM   11  C10 UNL     1      19.212  25.618  45.566  1.00  0.00     0.001 A 
HETATM   12  C11 UNL     1      19.131  25.647  44.192  1.00  0.00     0.003 A 
HETATM   13  C12 UNL     1      18.186  26.410  43.537  1.00  0.00     0.038 A 
HETATM   14  O1  UNL     1      16.328  27.959  43.984  1.00  0.00    -0.314 OA
ENDBRANCH   5   6
ENDBRANCH   4   5
ENDBRANCH   3   4
ENDBRANCH   2   3
BRANCH   2  15
HETATM   15  C14 UNL     1      13.903  29.691  49.643  1.00  0.00    -0.003 A 
HETATM   16  C15 UNL     1      13.252  30.270  50.728  1.00  0.00     0.101 A 
HETATM   17  N1  UNL     1      13.047  29.386  51.704  1.00  0.00    -0.364 N 
HETATM   18  C16 UNL     1      13.558  28.210  51.285  1.00  0.00     0.043 A 
ATOM     19  H1  UNL     1      12.590  29.566  52.598  1.00  0.00     0.165 HD
HETATM   20  C17 UNL     1      13.607  26.993  51.924  1.00  0.00     0.030 A 
HETATM   21  C21 UNL     1      14.095  28.381  50.004  1.00  0.00     0.003 A 
HETATM   22  C18 UNL     1      14.182  25.891  51.345  1.00  0.00     0.002 A 
HETATM   23  C19 UNL     1      14.715  26.045  50.089  1.00  0.00     0.001 A 
HETATM   24  C20 UNL     1      14.664  27.278  49.443  1.00  0.00     0.014 A 
ENDBRANCH   2  15
TORSDOF 5
ENDMDL
MODEL 5
REMARK VINA RESULT: -10.308458372      0.637      1.240
REMARK  5 active torsions:
REMARK  status: ('A' for Active; 'I' for Inactive)
REMARK    1  A    between atoms: C2_2  and  C3_3 
REMARK    2  A    between atoms: C2_2  and  C14_15 
REMARK    3  A    between atoms: C3_3  and  C4_4 
REMARK    4  A    between atoms: C4_4  and  C5_5 
REMARK    5  A    between atoms: C5_5  and  C6_6 
ROOT
HETATM    1  C1  UNL     1      15.949  31.514  47.908  1.00  0.00     0.020 C 
HETATM    2  C2  UNL     1      14.790  30.928  48.083  1.00  0.00    -0.055 C 
ENDROOT
BRANCH   2   3
HETATM    3  C3  UNL     1      13.731  31.294  47.086  1.00  0.00     0.039 C 
BRANCH   3   4
HETATM    4  C4  UNL     1      14.080  30.796  45.711  1.00  0.00     0.011 C 
BRANCH   4   5
HETATM    5  C5  UNL     1      13.856  29.331  45.515  1.00  0.00     0.065 C 
BRANCH   5   6
HETATM    6  C6  UNL     1      15.104  28.537  45.441  1.00  0.00     0.054 A 
HETATM    7  C7  UNL     1      15.633  28.157  44.204  1.00  0.00     0.047 A 
HETATM    8  C8  UNL     1      16.779  27.438  44.468  1.00  0.00     0.000 A 
HETATM    9  C9  UNL     1      17.691  26.830  43.647  1.00  0.00     0.014 A 
HETATM   10  C13 UNL     1      16.900  27.410  45.838  1.00  0.00     0.086 A 
HETATM   11  C10 UNL     1      18.759  26.172  44.235  1.00  0.00     0.001 A 
HETATM   12  C11 UNL     1      18.886  26.141  45.605  1.00  0.00     0.003 A 
HETATM   13  C12 UNL     1      17.968  26.753  46.433  1.00  0.00     0.038 A 
HETATM   14  O1  UNL     1      15.891  28.069  46.350  1.00  0.00    -0.314 OA
ENDBRANCH   5   6
ENDBRANCH   4   5
ENDBRANCH   3   4
ENDBRANCH   2   3
BRANCH   2  15
HETATM   15  C14 UNL     1      14.508  30.008  49.168  1.00  0.00    -0.003 A 
HETATM   16  C15 UNL     1      13.766  28.833  49.099  1.00  0.00     0.101 A 
HETATM   17  N1  UNL     1      13.678  28.238  50.288  1.00  0.00    -0.364 N 
HETATM   18  C16 UNL     1      14.356  29.007  51.165  1.00  0.00     0.043 A 
ATOM     19  H1  UNL     1      13.190  27.367  50.496  1.00  0.00     0.165 HD
HETATM   20  C17 UNL     1      14.556  28.837  52.515  1.00  0.00     0.030 A 
HETATM   21  C21 UNL     1      14.880  30.113  50.485  1.00  0.00     0.003 A 
HETATM   22  C18 UNL     1      15.273  29.737  53.262  1.00  0.00     0.002 A 
HETATM   23  C19 UNL     1      15.790  30.828  52.608  1.00  0.00     0.001 A 
HETATM   24  C20 UNL     1      15.588  30.999  51.241  1.00  0.00     0.014 A 
ENDBRANCH   2  15
TORSDOF 5
ENDMDL
