MODEL 1
REMARK VINA RESULT: -10.759751209      0.000      0.000
REMARK  5 active torsions:
REMARK  status: ('A' for Active; 'I' for Inactive)
REMARK    1  A    between atoms: C6_6  and  O1_7 
REMARK    2  A    between atoms: O1_7  and  C7_8 
REMARK    3  A    between atoms: C7_8  and  C8_9 
REMARK    4  A    between atoms: C8_9  and  C9_10 
REMARK    5  A    between atoms: C9_10  and  C10_11 
ROOT
HETATM    1  C7  UNL     1      14.000  29.567  45.700  1.00  0.00     0.176 C 
ENDROOT
BRANCH   1   2
HETATM    2  O1  UNL     1      13.519  29.726  46.969  1.00  0.00    -0.351 OA
BRANCH   2   3
HETATM    3  C6  UNL     1      14.058  30.003  48.158  1.00  0.00     0.069 A 
HETATM    4  C5  UNL     1      13.859  29.247  49.273  1.00  0.00     0.049 A 
HETATM    5  C4  UNL     1      14.457  29.601  50.464  1.00  0.00    -0.023 A 
HETATM    6  C3  UNL     1      14.272  28.844  51.615  1.00  0.00     0.012 A 
HETATM    7  C20 UNL     1      15.268  30.714  50.584  1.00  0.00    -0.026 A 
HETATM    8  C2  UNL     1      14.869  29.185  52.820  1.00  0.00     0.001 A 
HETATM    9  C1  UNL     1      15.672  30.304  52.901  1.00  0.00     0.001 A 
HETATM   10  C21 UNL     1      15.863  31.060  51.776  1.00  0.00     0.012 A 
HETATM   11  C19 UNL     1      15.452  31.462  49.442  1.00  0.00     0.015 A 
HETATM   12  C18 UNL     1      14.876  31.136  48.259  1.00  0.00     0.037 A 
ENDBRANCH   2   3
ENDBRANCH   1   2
BRANCH   1  13
HETATM   13  C8  UNL     1      14.575  28.189  45.500  1.00  0.00     0.031 C 
BRANCH  13  14
HETATM   14  C9  UNL     1      15.747  28.346  44.549  1.00  0.00     0.043 C 
BRANCH  14  15
HETATM   15  C10 UNL     1      16.920  27.585  44.980  1.00  0.00    -0.030 A 
HETATM   16  C11 UNL     1      17.512  27.674  46.217  1.00  0.00     0.096 A 
HETATM   17  N1  UNL     1      18.556  26.827  46.250  1.00  0.00    -0.365 N 
HETATM   18  C12 UNL     1      18.627  26.199  45.033  1.00  0.00     0.042 A 
ATOM     19  H1  UNL     1      19.183  26.677  47.039  1.00  0.00     0.165 HD
HETATM   20  C13 UNL     1      19.518  25.252  44.576  1.00  0.00     0.030 A 
HETATM   21  C17 UNL     1      17.617  26.653  44.217  1.00  0.00    -0.002 A 
HETATM   22  C14 UNL     1      19.371  24.772  43.282  1.00  0.00     0.002 A 
HETATM   23  C15 UNL     1      18.355  25.234  42.474  1.00  0.00     0.001 A 
HETATM   24  C16 UNL     1      17.478  26.169  42.932  1.00  0.00     0.014 A 
ENDBRANCH  14  15
ENDBRANCH  13  14
ENDBRANCH   1  13
TORSDOF 5
ENDMDL
MODEL 2
REMARK VINA RESULT: -10.657813178      2.156      8.034
REMARK  5 active torsions:
REMARK  status: ('A' for Active; 'I' for Inactive)
REMARK    1  A    between atoms: C6_6  and  O1_7 
REMARK    2  A    between atoms: O1_7  and  C7_8 
REMARK    3  A    between atoms: C7_8  and  C8_9 
REMARK    4  A    between atoms: C8_9  and  C9_10 
REMARK    5  A    between atoms: C9_10  and  C10_11 
ROOT
HETATM    1  C7  UNL     1      14.507  29.719  46.776  1.00  0.00     0.176 C 
ENDROOT
BRANCH   1   2
HETATM    2  O1  UNL     1      15.583  28.883  46.884  1.00  0.00    -0.351 OA
BRANCH   2   3
HETATM    3  C6  UNL     1      16.298  28.145  46.032  1.00  0.00     0.069 A 
HETATM    4  C5  UNL     1      17.287  27.291  46.418  1.00  0.00     0.049 A 
HETATM    5  C4  UNL     1      17.976  26.561  45.474  1.00  0.00    -0.023 A 
HETATM    6  C3  UNL     1      18.987  25.680  45.842  1.00  0.00     0.012 A 
HETATM    7  C20 UNL     1      17.707  26.656  44.121  1.00  0.00    -0.026 A 
HETATM    8  C2  UNL     1      19.688  24.936  44.905  1.00  0.00     0.001 A 
HETATM    9  C1  UNL     1      19.391  25.059  43.562  1.00  0.00     0.001 A 
HETATM   10  C21 UNL     1      18.399  25.923  43.184  1.00  0.00     0.012 A 
HETATM   11  C19 UNL     1      16.704  27.528  43.757  1.00  0.00     0.015 A 
HETATM   12  C18 UNL     1      16.011  28.257  44.666  1.00  0.00     0.037 A 
ENDBRANCH   2   3
ENDBRANCH   1   2
BRANCH   1  13
HETATM   13  C8  UNL     1      14.930  31.165  46.810  1.00  0.00     0.031 C 
BRANCH  13  14
HETATM   14  C9  UNL     1      15.586  31.389  48.160  1.00  0.00     0.043 C 
BRANCH  14  15
HETATM   15  C10 UNL     1      14.619  31.376  49.258  1.00  0.00    -0.030 A 
HETATM   16  C11 UNL     1      13.285  31.687  49.143  1.00  0.00     0.096 A 
HETATM   17  N1  UNL     1      12.715  31.560  50.355  1.00  0.00    -0.365 N 
HETATM   18  C12 UNL     1      13.687  31.170  51.239  1.00  0.00     0.042 A 
ATOM     19  H1  UNL     1      11.734  31.726  50.577  1.00  0.00     0.165 HD
HETATM   20  C13 UNL     1      13.603  30.914  52.591  1.00  0.00     0.030 A 
HETATM   21  C17 UNL     1      14.890  31.047  50.583  1.00  0.00    -0.002 A 
HETATM   22  C14 UNL     1      14.754  30.531  53.266  1.00  0.00     0.002 A 
HETATM   23  C15 UNL     1      15.952  30.410  52.598  1.00  0.00     0.001 A 
HETATM   24  C16 UNL     1      16.028  30.665  51.263  1.00  0.00     0.014 A 
ENDBRANCH  14  15
ENDBRANCH  13  14
ENDBRANCH   1  13
TORSDOF 5
ENDMDL
MODEL 3
REMARK VINA RESULT: -10.553875308      2.182      8.299
REMARK  5 active torsions:
REMARK  status: ('A' for Active; 'I' for Inactive)
REMARK    1  A    between atoms: C6_6  and  O1_7 
REMARK    2  A    between atoms: O1_7  and  C7_8 
REMARK    3  A    between atoms: C7_8  and  C8_9 
REMARK    4  A    between atoms: C8_9  and  C9_10 
REMARK    5  A    between atoms: C9_10  and  C10_11 
ROOT
HETATM    1  C7  UNL     1      15.151  29.420  46.934  1.00  0.00     0.176 C 
ENDROOT
BRANCH   1   2
HETATM    2  O1  UNL     1      15.636  28.892  45.771  1.00  0.00    -0.351 OA
BRANCH   2   3
HETATM    3  C6  UNL     1      16.544  27.965  45.457  1.00  0.00     0.069 A 
HETATM    4  C5  UNL     1      16.677  27.428  44.213  1.00  0.00     0.049 A 
HETATM    5  C4  UNL     1      17.645  26.477  43.971  1.00  0.00    -0.023 A 
HETATM    6  C3  UNL     1      17.804  25.916  42.709  1.00  0.00     0.012 A 
HETATM    7  C20 UNL     1      18.508  26.031  44.954  1.00  0.00    -0.026 A 
HETATM    8  C2  UNL     1      18.775  24.960  42.449  1.00  0.00     0.001 A 
HETATM    9  C1  UNL     1      19.618  24.539  43.456  1.00  0.00     0.001 A 
HETATM   10  C21 UNL     1      19.474  25.083  44.705  1.00  0.00     0.012 A 
HETATM   11  C19 UNL     1      18.352  26.590  46.204  1.00  0.00     0.015 A 
HETATM   12  C18 UNL     1      17.409  27.526  46.468  1.00  0.00     0.037 A 
ENDBRANCH   2   3
ENDBRANCH   1   2
BRANCH   1  13
HETATM   13  C8  UNL     1      15.063  30.922  46.861  1.00  0.00     0.031 C 
BRANCH  13  14
HETATM   14  C9  UNL     1      15.619  31.449  48.171  1.00  0.00     0.043 C 
BRANCH  14  15
HETATM   15  C10 UNL     1      14.634  31.402  49.252  1.00  0.00    -0.030 A 
HETATM   16  C11 UNL     1      13.298  31.697  49.121  1.00  0.00     0.096 A 
HETATM   17  N1  UNL     1      12.710  31.538  50.320  1.00  0.00    -0.365 N 
HETATM   18  C12 UNL     1      13.672  31.143  51.213  1.00  0.00     0.042 A 
ATOM     19  H1  UNL     1      11.723  31.686  50.529  1.00  0.00     0.165 HD
HETATM   20  C13 UNL     1      13.569  30.858  52.558  1.00  0.00     0.030 A 
HETATM   21  C17 UNL     1      14.887  31.049  50.575  1.00  0.00    -0.002 A 
HETATM   22  C14 UNL     1      14.713  30.476  53.244  1.00  0.00     0.002 A 
HETATM   23  C15 UNL     1      15.924  30.385  52.594  1.00  0.00     0.001 A 
HETATM   24  C16 UNL     1      16.019  30.668  51.266  1.00  0.00     0.014 A 
ENDBRANCH  14  15
ENDBRANCH  13  14
ENDBRANCH   1  13
TORSDOF 5
ENDMDL
MODEL 4
REMARK VINA RESULT: -10.513346733      1.077      1.965
REMARK  5 active torsions:
REMARK  status: ('A' for Active; 'I' for Inactive)
REMARK    1  A    between atoms: C6_6  and  O1_7 
REMARK    2  A    between atoms: O1_7  and  C7_8 
REMARK    3  A    between atoms: C7_8  and  C8_9 
REMARK    4  A    between atoms: C8_9  and  C9_10 
REMARK    5  A    between atoms: C9_10  and  C10_11 
ROOT
HETATM    1  C7  UNL     1      13.772  29.613  45.710  1.00  0.00     0.176 C 
ENDROOT
BRANCH   1   2
HETATM    2  O1  UNL     1      14.007  29.881  47.029  1.00  0.00    -0.351 OA
BRANCH   2   3
HETATM    3  C6  UNL     1      14.000  29.166  48.157  1.00  0.00     0.069 A 
HETATM    4  C5  UNL     1      14.255  29.692  49.387  1.00  0.00     0.049 A 
HETATM    5  C4  UNL     1      14.223  28.885  50.504  1.00  0.00    -0.023 A 
HETATM    6  C3  UNL     1      14.476  29.398  51.771  1.00  0.00     0.012 A 
HETATM    7  C20 UNL     1      13.938  27.534  50.435  1.00  0.00    -0.026 A 
HETATM    8  C2  UNL     1      14.445  28.600  52.904  1.00  0.00     0.001 A 
HETATM    9  C1  UNL     1      14.158  27.255  52.795  1.00  0.00     0.001 A 
HETATM   10  C21 UNL     1      13.906  26.734  51.554  1.00  0.00     0.012 A 
HETATM   11  C19 UNL     1      13.685  27.027  49.179  1.00  0.00     0.015 A 
HETATM   12  C18 UNL     1      13.710  27.799  48.065  1.00  0.00     0.037 A 
ENDBRANCH   2   3
ENDBRANCH   1   2
BRANCH   1  13
HETATM   13  C8  UNL     1      15.048  29.645  44.909  1.00  0.00     0.031 C 
BRANCH  13  14
HETATM   14  C9  UNL     1      15.287  28.227  44.424  1.00  0.00     0.043 C 
BRANCH  14  15
HETATM   15  C10 UNL     1      16.526  27.659  44.956  1.00  0.00    -0.030 A 
HETATM   16  C11 UNL     1      17.031  27.895  46.213  1.00  0.00     0.096 A 
HETATM   17  N1  UNL     1      18.176  27.202  46.346  1.00  0.00    -0.365 N 
HETATM   18  C12 UNL     1      18.398  26.525  45.175  1.00  0.00     0.042 A 
ATOM     19  H1  UNL     1      18.773  27.182  47.172  1.00  0.00     0.165 HD
HETATM   20  C13 UNL     1      19.432  25.686  44.819  1.00  0.00     0.030 A 
HETATM   21  C17 UNL     1      17.383  26.791  44.285  1.00  0.00    -0.002 A 
HETATM   22  C14 UNL     1      19.422  25.122  43.551  1.00  0.00     0.002 A 
HETATM   23  C15 UNL     1      18.400  25.395  42.669  1.00  0.00     0.001 A 
HETATM   24  C16 UNL     1      17.381  26.224  43.027  1.00  0.00     0.014 A 
ENDBRANCH  14  15
ENDBRANCH  13  14
ENDBRANCH   1  13
TORSDOF 5
ENDMDL
MODEL 5
REMARK VINA RESULT: -10.471264613      0.908      1.720
REMARK  5 active torsions:
REMARK  status: ('A' for Active; 'I' for Inactive)
REMARK    1  A    between atoms: C6_6  and  O1_7 
REMARK    2  A    between atoms: O1_7  and  C7_8 
REMARK    3  A    between atoms: C7_8  and  C8_9 
REMARK    4  A    between atoms: C8_9  and  C9_10 
REMARK    5  A    between atoms: C9_10  and  C10_11 
ROOT
HETATM    1  C7  UNL     1      13.641  29.986  44.908  1.00  0.00     0.176 C 
ENDROOT
BRANCH   1   2
HETATM    2  O1  UNL     1      13.244  29.263  45.998  1.00  0.00    -0.351 OA
BRANCH   2   3
HETATM    3  C6  UNL     1      13.605  29.211  47.282  1.00  0.00     0.069 A 
HETATM    4  C5  UNL     1      14.003  30.296  48.001  1.00  0.00     0.049 A 
HETATM    5  C4  UNL     1      14.355  30.157  49.326  1.00  0.00    -0.023 A 
HETATM    6  C3  UNL     1      14.762  31.250  50.082  1.00  0.00     0.012 A 
HETATM    7  C20 UNL     1      14.324  28.938  49.977  1.00  0.00    -0.026 A 
HETATM    8  C2  UNL     1      15.116  31.126  51.417  1.00  0.00     0.001 A 
HETATM    9  C1  UNL     1      15.073  29.892  52.033  1.00  0.00     0.001 A 
HETATM   10  C21 UNL     1      14.675  28.805  51.301  1.00  0.00     0.012 A 
HETATM   11  C19 UNL     1      13.918  27.855  49.227  1.00  0.00     0.015 A 
HETATM   12  C18 UNL     1      13.567  27.965  47.923  1.00  0.00     0.037 A 
ENDBRANCH   2   3
ENDBRANCH   1   2
BRANCH   1  13
HETATM   13  C8  UNL     1      15.099  29.762  44.603  1.00  0.00     0.031 C 
BRANCH  13  14
HETATM   14  C9  UNL     1      15.252  28.284  44.295  1.00  0.00     0.043 C 
BRANCH  14  15
HETATM   15  C10 UNL     1      16.467  27.716  44.880  1.00  0.00    -0.030 A 
HETATM   16  C11 UNL     1      16.931  27.973  46.149  1.00  0.00     0.096 A 
HETATM   17  N1  UNL     1      18.065  27.273  46.334  1.00  0.00    -0.365 N 
HETATM   18  C12 UNL     1      18.321  26.572  45.185  1.00  0.00     0.042 A 
ATOM     19  H1  UNL     1      18.633  27.266  47.181  1.00  0.00     0.165 HD
HETATM   20  C13 UNL     1      19.360  25.718  44.882  1.00  0.00     0.030 A 
HETATM   21  C17 UNL     1      17.339  26.828  44.256  1.00  0.00    -0.002 A 
HETATM   22  C14 UNL     1      19.388  25.129  43.625  1.00  0.00     0.002 A 
HETATM   23  C15 UNL     1      18.399  25.393  42.704  1.00  0.00     0.001 A 
HETATM   24  C16 UNL     1      17.376  26.238  43.010  1.00  0.00     0.014 A 
ENDBRANCH  14  15
ENDBRANCH  13  14
ENDBRANCH   1  13
TORSDOF 5
ENDMDL
