MODEL 1
REMARK VINA RESULT: -10.362137075      0.000      0.000
REMARK  3 active torsions:
REMARK  status: ('A' for Active; 'I' for Inactive)
REMARK    1  A    between atoms: C6_10  and  C7_11 
REMARK    2  A    between atoms: N3_17  and  C13_18 
REMARK    3  A    between atoms: N4_21  and  C16_22 
ROOT
HETATM    1  N1  UNL     1      41.023  16.688  84.213  1.00  0.00    -0.234 N 
ATOM      2  H11 UNL     1      40.054  16.693  84.530  1.00  0.00     0.174 HD
ATOM      3  H12 UNL     1      41.435  17.585  84.471  1.00  0.00     0.174 HD
HETATM    4  C1  UNL     1      41.462  15.658  83.621  1.00  0.00     0.677 C 
HETATM    5  N2  UNL     1      42.810  15.651  83.181  1.00  0.00    -0.208 N 
HETATM    6  C2  UNL     1      44.120  16.229  83.246  1.00  0.00     0.142 C 
HETATM    7  C3  UNL     1      44.962  14.939  83.349  1.00  0.00     0.023 C 
HETATM    8  C4  UNL     1      43.957  13.795  83.064  1.00  0.00     0.033 C 
HETATM    9  C5  UNL     1      42.955  14.577  82.263  1.00  0.00     0.149 C 
HETATM   10  C6  UNL     1      41.589  14.075  82.092  1.00  0.00     0.035 C 
HETATM   11  N3  UNL     1      40.867  14.363  83.248  1.00  0.00    -0.184 N 
ENDROOT
BRANCH  11  12
HETATM   12  C13 UNL     1      39.835  13.871  84.121  1.00  0.00     0.110 C 
HETATM   13  C14 UNL     1      39.930  14.332  85.561  1.00  0.00     0.045 C 
HETATM   14  C15 UNL     1      38.560  14.488  86.238  1.00  0.00     0.119 C 
HETATM   15  N4  UNL     1      37.815  15.453  85.562  1.00  0.00    -0.408 N 
HETATM   16  C23 UNL     1      37.765  15.344  84.148  1.00  0.00     0.119 C 
HETATM   17  C24 UNL     1      38.418  14.025  83.751  1.00  0.00     0.045 C 
BRANCH  15  18
HETATM   18  C16 UNL     1      36.707  16.041  86.224  1.00  0.00     0.079 C 
HETATM   19  C17 UNL     1      36.360  15.167  87.420  1.00  0.00     0.025 C 
HETATM   20  C18 UNL     1      35.081  15.562  88.080  1.00  0.00     0.002 C 
HETATM   21  C19 UNL     1      35.200  16.988  88.575  1.00  0.00     0.000 C 
HETATM   22  C20 UNL     1      34.792  17.885  87.425  1.00  0.00     0.000 C 
HETATM   23  C21 UNL     1      36.024  18.405  86.763  1.00  0.00     0.002 C 
HETATM   24  C22 UNL     1      37.157  17.425  86.692  1.00  0.00     0.025 C 
ENDBRANCH  15  18
ENDBRANCH  11  12
BRANCH  10  25
HETATM   25  C7  UNL     1      41.493  12.870  81.228  1.00  0.00     0.034 C 
HETATM   26  C8  UNL     1      41.334  13.334  79.766  1.00  0.00     0.010 C 
HETATM   27  C9  UNL     1      42.507  13.140  78.900  1.00  0.00     0.001 C 
HETATM   28  C10 UNL     1      43.044  11.721  78.957  1.00  0.00     0.000 C 
HETATM   29  C11 UNL     1      43.312  11.283  80.350  1.00  0.00     0.001 C 
HETATM   30  C12 UNL     1      42.455  11.779  81.419  1.00  0.00     0.010 C 
ENDBRANCH  10  25
TORSDOF 3
ENDMDL
MODEL 2
REMARK VINA RESULT: -9.987004092      1.291      1.583
REMARK  3 active torsions:
REMARK  status: ('A' for Active; 'I' for Inactive)
REMARK    1  A    between atoms: C6_10  and  C7_11 
REMARK    2  A    between atoms: N3_17  and  C13_18 
REMARK    3  A    between atoms: N4_21  and  C16_22 
ROOT
HETATM    1  N1  UNL     1      42.962  17.468  83.174  1.00  0.00    -0.234 N 
ATOM      2  H11 UNL     1      42.238  17.644  83.871  1.00  0.00     0.174 HD
ATOM      3  H12 UNL     1      43.502  18.327  83.067  1.00  0.00     0.174 HD
HETATM    4  C1  UNL     1      43.025  16.320  82.643  1.00  0.00     0.677 C 
HETATM    5  N2  UNL     1      44.031  16.075  81.674  1.00  0.00    -0.208 N 
HETATM    6  C2  UNL     1      45.267  16.475  81.067  1.00  0.00     0.142 C 
HETATM    7  C3  UNL     1      45.982  15.108  81.023  1.00  0.00     0.023 C 
HETATM    8  C4  UNL     1      44.886  14.082  81.404  1.00  0.00     0.033 C 
HETATM    9  C5  UNL     1      43.684  14.881  80.988  1.00  0.00     0.149 C 
HETATM   10  C6  UNL     1      42.357  14.549  81.513  1.00  0.00     0.035 C 
HETATM   11  N3  UNL     1      42.246  15.079  82.796  1.00  0.00    -0.184 N 
ENDROOT
BRANCH  11  12
HETATM   12  C13 UNL     1      41.683  14.848  84.099  1.00  0.00     0.110 C 
HETATM   13  C14 UNL     1      41.445  16.091  84.933  1.00  0.00     0.045 C 
HETATM   14  C15 UNL     1      40.231  15.971  85.866  1.00  0.00     0.119 C 
HETATM   15  N4  UNL     1      39.078  15.777  85.107  1.00  0.00    -0.408 N 
HETATM   16  C23 UNL     1      39.142  14.787  84.093  1.00  0.00     0.119 C 
HETATM   17  C24 UNL     1      40.462  14.038  84.245  1.00  0.00     0.045 C 
BRANCH  15  18
HETATM   18  C16 UNL     1      37.819  16.034  85.707  1.00  0.00     0.079 C 
HETATM   19  C17 UNL     1      37.598  14.991  86.793  1.00  0.00     0.025 C 
HETATM   20  C18 UNL     1      36.218  15.024  87.361  1.00  0.00     0.002 C 
HETATM   21  C19 UNL     1      35.969  16.386  87.976  1.00  0.00     0.000 C 
HETATM   22  C20 UNL     1      35.449  17.277  86.867  1.00  0.00     0.000 C 
HETATM   23  C21 UNL     1      36.572  18.121  86.366  1.00  0.00     0.002 C 
HETATM   24  C22 UNL     1      37.903  17.431  86.323  1.00  0.00     0.025 C 
ENDBRANCH  15  18
ENDBRANCH  11  12
BRANCH  10  25
HETATM   25  C7  UNL     1      41.809  13.266  81.001  1.00  0.00     0.034 C 
HETATM   26  C8  UNL     1      41.652  13.382  79.472  1.00  0.00     0.010 C 
HETATM   27  C9  UNL     1      42.615  12.614  78.668  1.00  0.00     0.001 C 
HETATM   28  C10 UNL     1      42.695  11.157  79.090  1.00  0.00     0.000 C 
HETATM   29  C11 UNL     1      42.956  11.013  80.544  1.00  0.00     0.001 C 
HETATM   30  C12 UNL     1      42.405  12.005  81.459  1.00  0.00     0.010 C 
ENDBRANCH  10  25
TORSDOF 3
ENDMDL
MODEL 3
REMARK VINA RESULT: -9.788778832      1.004      1.594
REMARK  3 active torsions:
REMARK  status: ('A' for Active; 'I' for Inactive)
REMARK    1  A    between atoms: C6_10  and  C7_11 
REMARK    2  A    between atoms: N3_17  and  C13_18 
REMARK    3  A    between atoms: N4_21  and  C16_22 
ROOT
HETATM    1  N1  UNL     1      42.462  16.223  84.648  1.00  0.00    -0.234 N 
ATOM      2  H11 UNL     1      41.524  16.360  85.024  1.00  0.00     0.174 HD
ATOM      3  H12 UNL     1      43.090  16.851  85.150  1.00  0.00     0.174 HD
HETATM    4  C1  UNL     1      42.625  15.375  83.722  1.00  0.00     0.677 C 
HETATM    5  N2  UNL     1      43.928  15.183  83.198  1.00  0.00    -0.208 N 
HETATM    6  C2  UNL     1      45.343  15.364  83.345  1.00  0.00     0.142 C 
HETATM    7  C3  UNL     1      45.821  13.948  82.957  1.00  0.00     0.023 C 
HETATM    8  C4  UNL     1      44.557  13.250  82.396  1.00  0.00     0.033 C 
HETATM    9  C5  UNL     1      43.798  14.476  81.974  1.00  0.00     0.149 C 
HETATM   10  C6  UNL     1      42.351  14.412  81.757  1.00  0.00     0.035 C 
HETATM   11  N3  UNL     1      41.718  14.467  82.997  1.00  0.00    -0.184 N 
ENDROOT
BRANCH  11  12
HETATM   12  C13 UNL     1      40.586  13.983  83.741  1.00  0.00     0.110 C 
HETATM   13  C14 UNL     1      40.746  13.998  85.248  1.00  0.00     0.045 C 
HETATM   14  C15 UNL     1      39.427  14.247  85.994  1.00  0.00     0.119 C 
HETATM   15  N4  UNL     1      38.919  15.496  85.637  1.00  0.00    -0.408 N 
HETATM   16  C23 UNL     1      38.877  15.794  84.251  1.00  0.00     0.119 C 
HETATM   17  C24 UNL     1      39.243  14.528  83.483  1.00  0.00     0.045 C 
BRANCH  15  18
HETATM   18  C16 UNL     1      37.948  16.098  86.477  1.00  0.00     0.079 C 
HETATM   19  C17 UNL     1      37.393  17.315  85.751  1.00  0.00     0.025 C 
HETATM   20  C18 UNL     1      36.514  18.158  86.614  1.00  0.00     0.002 C 
HETATM   21  C19 UNL     1      35.337  17.326  87.081  1.00  0.00     0.000 C 
HETATM   22  C20 UNL     1      35.774  16.623  88.349  1.00  0.00     0.000 C 
HETATM   23  C21 UNL     1      36.155  15.221  88.012  1.00  0.00     0.002 C 
HETATM   24  C22 UNL     1      36.846  15.060  86.691  1.00  0.00     0.025 C 
ENDBRANCH  15  18
ENDBRANCH  11  12
BRANCH  10  25
HETATM   25  C7  UNL     1      41.953  13.628  80.559  1.00  0.00     0.034 C 
HETATM   26  C8  UNL     1      42.663  14.229  79.329  1.00  0.00     0.010 C 
HETATM   27  C9  UNL     1      43.759  13.427  78.765  1.00  0.00     0.001 C 
HETATM   28  C10 UNL     1      43.351  11.989  78.499  1.00  0.00     0.000 C 
HETATM   29  C11 UNL     1      42.763  11.346  79.701  1.00  0.00     0.001 C 
HETATM   30  C12 UNL     1      41.986  12.162  80.626  1.00  0.00     0.010 C 
ENDBRANCH  10  25
TORSDOF 3
ENDMDL
MODEL 4
REMARK VINA RESULT: -9.287318630      1.267      3.312
REMARK  3 active torsions:
REMARK  status: ('A' for Active; 'I' for Inactive)
REMARK    1  A    between atoms: C6_10  and  C7_11 
REMARK    2  A    between atoms: N3_17  and  C13_18 
REMARK    3  A    between atoms: N4_21  and  C16_22 
ROOT
HETATM    1  N1  UNL     1      39.701  13.308  83.859  1.00  0.00    -0.234 N 
ATOM      2  H11 UNL     1      39.215  13.775  84.624  1.00  0.00     0.174 HD
ATOM      3  H12 UNL     1      39.187  12.453  83.645  1.00  0.00     0.174 HD
HETATM    4  C1  UNL     1      40.744  13.848  83.385  1.00  0.00     0.677 C 
HETATM    5  N2  UNL     1      41.420  13.199  82.321  1.00  0.00    -0.208 N 
HETATM    6  C2  UNL     1      41.398  12.217  81.277  1.00  0.00     0.142 C 
HETATM    7  C3  UNL     1      42.019  13.048  80.133  1.00  0.00     0.023 C 
HETATM    8  C4  UNL     1      42.534  14.336  80.823  1.00  0.00     0.033 C 
HETATM    9  C5  UNL     1      42.708  13.787  82.211  1.00  0.00     0.149 C 
HETATM   10  C6  UNL     1      42.780  14.692  83.361  1.00  0.00     0.035 C 
HETATM   11  N3  UNL     1      41.486  15.083  83.695  1.00  0.00    -0.184 N 
ENDROOT
BRANCH  11  12
HETATM   12  C13 UNL     1      40.700  16.180  84.192  1.00  0.00     0.110 C 
HETATM   13  C14 UNL     1      39.367  16.389  83.501  1.00  0.00     0.045 C 
HETATM   14  C15 UNL     1      38.282  16.945  84.435  1.00  0.00     0.119 C 
HETATM   15  N4  UNL     1      38.054  16.042  85.473  1.00  0.00    -0.408 N 
HETATM   16  C23 UNL     1      39.198  15.533  86.137  1.00  0.00     0.119 C 
HETATM   17  C24 UNL     1      40.418  16.296  85.632  1.00  0.00     0.045 C 
BRANCH  15  18
HETATM   18  C16 UNL     1      36.847  16.149  86.211  1.00  0.00     0.079 C 
HETATM   19  C17 UNL     1      36.960  15.239  87.425  1.00  0.00     0.025 C 
HETATM   20  C18 UNL     1      35.676  15.100  88.172  1.00  0.00     0.002 C 
HETATM   21  C19 UNL     1      35.240  16.466  88.662  1.00  0.00     0.000 C 
HETATM   22  C20 UNL     1      34.432  17.094  87.546  1.00  0.00     0.000 C 
HETATM   23  C21 UNL     1      35.304  18.049  86.803  1.00  0.00     0.002 C 
HETATM   24  C22 UNL     1      36.729  17.609  86.652  1.00  0.00     0.025 C 
ENDBRANCH  15  18
ENDBRANCH  11  12
BRANCH  10  25
HETATM   25  C7  UNL     1      44.025  15.502  83.414  1.00  0.00     0.034 C 
HETATM   26  C8  UNL     1      45.230  14.547  83.297  1.00  0.00     0.010 C 
HETATM   27  C9  UNL     1      45.958  14.587  82.019  1.00  0.00     0.001 C 
HETATM   28  C10 UNL     1      46.350  15.997  81.615  1.00  0.00     0.000 C 
HETATM   29  C11 UNL     1      45.185  16.919  81.612  1.00  0.00     0.001 C 
HETATM   30  C12 UNL     1      44.122  16.711  82.588  1.00  0.00     0.010 C 
ENDBRANCH  10  25
TORSDOF 3
ENDMDL
MODEL 5
REMARK VINA RESULT: -8.670650107      1.393      3.548
REMARK  3 active torsions:
REMARK  status: ('A' for Active; 'I' for Inactive)
REMARK    1  A    between atoms: C6_10  and  C7_11 
REMARK    2  A    between atoms: N3_17  and  C13_18 
REMARK    3  A    between atoms: N4_21  and  C16_22 
ROOT
HETATM    1  N1  UNL     1      39.765  12.356  84.171  1.00  0.00    -0.234 N 
ATOM      2  H11 UNL     1      38.940  12.681  84.675  1.00  0.00     0.174 HD
ATOM      3  H12 UNL     1      39.752  11.336  84.186  1.00  0.00     0.174 HD
HETATM    4  C1  UNL     1      40.554  13.217  83.681  1.00  0.00     0.677 C 
HETATM    5  N2  UNL     1      41.701  12.766  82.982  1.00  0.00    -0.208 N 
HETATM    6  C2  UNL     1      42.388  11.694  82.322  1.00  0.00     0.142 C 
HETATM    7  C3  UNL     1      42.866  12.439  81.057  1.00  0.00     0.023 C 
HETATM    8  C4  UNL     1      42.565  13.931  81.347  1.00  0.00     0.033 C 
HETATM    9  C5  UNL     1      42.584  13.871  82.848  1.00  0.00     0.149 C 
HETATM   10  C6  UNL     1      41.945  14.927  83.638  1.00  0.00     0.035 C 
HETATM   11  N3  UNL     1      40.573  14.691  83.661  1.00  0.00    -0.184 N 
ENDROOT
BRANCH  11  12
HETATM   12  C13 UNL     1      39.287  15.336  83.669  1.00  0.00     0.110 C 
HETATM   13  C14 UNL     1      38.154  14.516  84.252  1.00  0.00     0.045 C 
HETATM   14  C15 UNL     1      37.088  15.370  84.954  1.00  0.00     0.119 C 
HETATM   15  N4  UNL     1      37.669  16.056  86.020  1.00  0.00    -0.408 N 
HETATM   16  C23 UNL     1      38.886  16.735  85.753  1.00  0.00     0.119 C 
HETATM   17  C24 UNL     1      39.138  16.681  84.250  1.00  0.00     0.045 C 
BRANCH  15  18
HETATM   18  C16 UNL     1      36.823  16.578  87.032  1.00  0.00     0.079 C 
HETATM   19  C17 UNL     1      36.420  17.987  86.622  1.00  0.00     0.025 C 
HETATM   20  C18 UNL     1      35.700  18.725  87.702  1.00  0.00     0.002 C 
HETATM   21  C19 UNL     1      34.434  17.971  88.055  1.00  0.00     0.000 C 
HETATM   22  C20 UNL     1      34.813  16.953  89.112  1.00  0.00     0.000 C 
HETATM   23  C21 UNL     1      34.979  15.624  88.457  1.00  0.00     0.002 C 
HETATM   24  C22 UNL     1      35.594  15.671  87.090  1.00  0.00     0.025 C 
ENDBRANCH  15  18
ENDBRANCH  11  12
BRANCH  10  25
HETATM   25  C7  UNL     1      42.649  16.234  83.579  1.00  0.00     0.034 C 
HETATM   26  C8  UNL     1      44.139  15.997  83.897  1.00  0.00     0.010 C 
HETATM   27  C9  UNL     1      45.064  16.113  82.759  1.00  0.00     0.001 C 
HETATM   28  C10 UNL     1      44.881  17.407  81.988  1.00  0.00     0.000 C 
HETATM   29  C11 UNL     1      43.470  17.611  81.571  1.00  0.00     0.001 C 
HETATM   30  C12 UNL     1      42.404  17.123  82.438  1.00  0.00     0.010 C 
ENDBRANCH  10  25
TORSDOF 3
ENDMDL
