MODEL 1
REMARK VINA RESULT: -10.072228606      0.000      0.000
REMARK  5 active torsions:
REMARK  status: ('A' for Active; 'I' for Inactive)
REMARK    1  A    between atoms: O1_2  and  C2_3 
REMARK    2  A    between atoms: C2_3  and  C3_4 
REMARK    3  A    between atoms: N1_10  and  C8_11 
REMARK    4  A    between atoms: C8_11  and  N2_13 
REMARK    5  A    between atoms: N2_13  and  C9_15 
ROOT
HETATM    1  C8  UNL     1      40.806  14.199  84.357  1.00  0.00     0.170 C 
HETATM    2  S2  UNL     1      40.650  12.788  85.146  1.00  0.00    -0.041 SA
ENDROOT
BRANCH   1   3
HETATM    3  N1  UNL     1      39.691  15.062  84.363  1.00  0.00    -0.353 N 
HETATM    4  C7  UNL     1      38.333  14.532  84.551  1.00  0.00     0.172 C 
HETATM    5  C6  UNL     1      37.577  15.487  85.445  1.00  0.00     0.007 A 
HETATM    6  C5  UNL     1      37.651  16.821  85.150  1.00  0.00    -0.041 A 
HETATM    7  S1  UNL     1      36.589  15.442  86.824  1.00  0.00    -0.095 SA
HETATM    8  C4  UNL     1      36.982  17.662  85.956  1.00  0.00     0.025 A 
HETATM    9  C21 UNL     1      38.485  17.138  83.924  1.00  0.00     0.059 C 
HETATM   10  C3  UNL     1      36.286  17.111  87.002  1.00  0.00     0.007 A 
HETATM   11  C20 UNL     1      39.849  16.487  84.188  1.00  0.00     0.130 C 
BRANCH  10  12
HETATM   12  C2  UNL     1      35.461  17.837  88.036  1.00  0.00     0.213 C 
BRANCH  12  13
HETATM   13  O1  UNL     1      34.728  18.798  87.395  1.00  0.00    -0.391 OA
HETATM   14  C1  UNL     1      35.012  20.082  87.825  1.00  0.00     0.201 C 
ENDBRANCH  12  13
ENDBRANCH  10  12
ENDBRANCH   1   3
BRANCH   1  15
HETATM   15  N2  UNL     1      41.989  14.563  83.698  1.00  0.00    -0.358 N 
ATOM     16  H2  UNL     1      42.588  15.222  84.196  1.00  0.00     0.162 HD
BRANCH  15  17
HETATM   17  C9  UNL     1      42.472  14.128  82.409  1.00  0.00     0.033 C 
HETATM   18  C10 UNL     1      42.868  15.304  81.587  1.00  0.00     0.035 C 
HETATM   19  C11 UNL     1      43.581  14.903  80.292  1.00  0.00    -0.012 C 
HETATM   20  C12 UNL     1      42.607  14.545  79.217  1.00  0.00     0.005 C 
HETATM   21  C17 UNL     1      44.651  13.888  80.494  1.00  0.00     0.009 C 
HETATM   22  C13 UNL     1      42.014  13.214  79.239  1.00  0.00     0.005 C 
HETATM   23  C14 UNL     1      41.969  12.488  80.549  1.00  0.00    -0.012 C 
HETATM   24  C15 UNL     1      43.285  11.809  80.855  1.00  0.00     0.009 C 
HETATM   25  C19 UNL     1      41.447  13.334  81.680  1.00  0.00     0.035 C 
HETATM   26  C16 UNL     1      44.284  12.787  81.427  1.00  0.00    -0.012 C 
HETATM   27  C18 UNL     1      43.733  13.314  82.698  1.00  0.00     0.035 C 
ENDBRANCH  15  17
ENDBRANCH   1  15
TORSDOF 5
ENDMDL
MODEL 2
REMARK VINA RESULT: -9.950039515      0.360      1.590
REMARK  5 active torsions:
REMARK  status: ('A' for Active; 'I' for Inactive)
REMARK    1  A    between atoms: O1_2  and  C2_3 
REMARK    2  A    between atoms: C2_3  and  C3_4 
REMARK    3  A    between atoms: N1_10  and  C8_11 
REMARK    4  A    between atoms: C8_11  and  N2_13 
REMARK    5  A    between atoms: N2_13  and  C9_15 
ROOT
HETATM    1  C8  UNL     1      40.781  14.166  84.180  1.00  0.00     0.170 C 
HETATM    2  S2  UNL     1      40.614  12.738  84.935  1.00  0.00    -0.041 SA
ENDROOT
BRANCH   1   3
HETATM    3  N1  UNL     1      39.679  15.046  84.226  1.00  0.00    -0.353 N 
HETATM    4  C7  UNL     1      38.316  14.531  84.416  1.00  0.00     0.172 C 
HETATM    5  C6  UNL     1      37.587  15.472  85.348  1.00  0.00     0.007 A 
HETATM    6  C5  UNL     1      37.678  16.813  85.090  1.00  0.00    -0.041 A 
HETATM    7  S1  UNL     1      36.616  15.403  86.738  1.00  0.00    -0.095 SA
HETATM    8  C4  UNL     1      37.033  17.640  85.928  1.00  0.00     0.025 A 
HETATM    9  C21 UNL     1      38.501  17.152  83.862  1.00  0.00     0.059 C 
HETATM   10  C3  UNL     1      36.342  17.071  86.967  1.00  0.00     0.007 A 
HETATM   11  C20 UNL     1      39.858  16.473  84.090  1.00  0.00     0.130 C 
BRANCH  10  12
HETATM   12  C2  UNL     1      35.542  17.779  88.033  1.00  0.00     0.213 C 
BRANCH  12  13
HETATM   13  O1  UNL     1      34.747  18.708  87.419  1.00  0.00    -0.391 OA
HETATM   14  C1  UNL     1      35.016  20.006  87.811  1.00  0.00     0.201 C 
ENDBRANCH  12  13
ENDBRANCH  10  12
ENDBRANCH   1   3
BRANCH   1  15
HETATM   15  N2  UNL     1      41.959  14.529  83.512  1.00  0.00    -0.358 N 
ATOM     16  H2  UNL     1      42.557  15.196  84.001  1.00  0.00     0.162 HD
BRANCH  15  17
HETATM   17  C9  UNL     1      42.438  14.084  82.225  1.00  0.00     0.033 C 
HETATM   18  C10 UNL     1      41.327  13.471  81.449  1.00  0.00     0.035 C 
HETATM   19  C11 UNL     1      41.719  13.168  80.000  1.00  0.00    -0.012 C 
HETATM   20  C12 UNL     1      42.445  11.867  79.888  1.00  0.00     0.005 C 
HETATM   21  C17 UNL     1      42.410  14.300  79.323  1.00  0.00     0.009 C 
HETATM   22  C13 UNL     1      43.864  11.838  80.221  1.00  0.00     0.005 C 
HETATM   23  C14 UNL     1      44.392  12.902  81.133  1.00  0.00    -0.012 C 
HETATM   24  C15 UNL     1      44.686  14.182  80.383  1.00  0.00     0.009 C 
HETATM   25  C19 UNL     1      43.548  13.103  82.364  1.00  0.00     0.035 C 
HETATM   26  C16 UNL     1      43.428  14.989  80.165  1.00  0.00    -0.012 C 
HETATM   27  C18 UNL     1      42.879  15.351  81.492  1.00  0.00     0.035 C 
ENDBRANCH  15  17
ENDBRANCH   1  15
TORSDOF 5
ENDMDL
MODEL 3
REMARK VINA RESULT: -9.865428936      0.338      1.700
REMARK  5 active torsions:
REMARK  status: ('A' for Active; 'I' for Inactive)
REMARK    1  A    between atoms: O1_2  and  C2_3 
REMARK    2  A    between atoms: C2_3  and  C3_4 
REMARK    3  A    between atoms: N1_10  and  C8_11 
REMARK    4  A    between atoms: C8_11  and  N2_13 
REMARK    5  A    between atoms: N2_13  and  C9_15 
ROOT
HETATM    1  C8  UNL     1      40.716  14.238  84.231  1.00  0.00     0.170 C 
HETATM    2  S2  UNL     1      40.548  12.797  84.960  1.00  0.00    -0.041 SA
ENDROOT
BRANCH   1   3
HETATM    3  N1  UNL     1      39.607  15.109  84.273  1.00  0.00    -0.353 N 
HETATM    4  C7  UNL     1      38.250  14.586  84.485  1.00  0.00     0.172 C 
HETATM    5  C6  UNL     1      37.522  15.537  85.408  1.00  0.00     0.007 A 
HETATM    6  C5  UNL     1      37.599  16.874  85.126  1.00  0.00    -0.041 A 
HETATM    7  S1  UNL     1      36.566  15.483  86.809  1.00  0.00    -0.095 SA
HETATM    8  C4  UNL     1      36.956  17.710  85.957  1.00  0.00     0.025 A 
HETATM    9  C21 UNL     1      38.407  17.199  83.885  1.00  0.00     0.059 C 
HETATM   10  C3  UNL     1      36.280  17.152  87.013  1.00  0.00     0.007 A 
HETATM   11  C20 UNL     1      39.773  16.535  84.111  1.00  0.00     0.130 C 
BRANCH  10  12
HETATM   12  C2  UNL     1      35.484  17.872  88.074  1.00  0.00     0.213 C 
BRANCH  12  13
HETATM   13  O1  UNL     1      34.687  18.794  87.453  1.00  0.00    -0.391 OA
HETATM   14  C1  UNL     1      34.984  20.099  87.800  1.00  0.00     0.201 C 
ENDBRANCH  12  13
ENDBRANCH  10  12
ENDBRANCH   1   3
BRANCH   1  15
HETATM   15  N2  UNL     1      41.902  14.620  83.588  1.00  0.00    -0.358 N 
ATOM     16  H2  UNL     1      42.433  15.363  84.043  1.00  0.00     0.162 HD
BRANCH  15  17
HETATM   17  C9  UNL     1      42.473  14.100  82.368  1.00  0.00     0.033 C 
HETATM   18  C10 UNL     1      43.539  13.110  82.682  1.00  0.00     0.035 C 
HETATM   19  C11 UNL     1      44.039  12.370  81.437  1.00  0.00    -0.012 C 
HETATM   20  C12 UNL     1      45.067  13.166  80.702  1.00  0.00     0.005 C 
HETATM   21  C17 UNL     1      42.942  11.860  80.570  1.00  0.00     0.009 C 
HETATM   22  C13 UNL     1      44.612  14.233  79.819  1.00  0.00     0.005 C 
HETATM   23  C14 UNL     1      43.262  14.828  80.076  1.00  0.00    -0.012 C 
HETATM   24  C15 UNL     1      42.158  13.985  79.479  1.00  0.00     0.009 C 
HETATM   25  C19 UNL     1      43.036  15.186  81.522  1.00  0.00     0.035 C 
HETATM   26  C16 UNL     1      41.817  12.818  80.375  1.00  0.00    -0.012 C 
HETATM   27  C18 UNL     1      41.335  13.357  81.668  1.00  0.00     0.035 C 
ENDBRANCH  15  17
ENDBRANCH   1  15
TORSDOF 5
ENDMDL
MODEL 4
REMARK VINA RESULT: -9.741955594      1.042      2.166
REMARK  5 active torsions:
REMARK  status: ('A' for Active; 'I' for Inactive)
REMARK    1  A    between atoms: O1_2  and  C2_3 
REMARK    2  A    between atoms: C2_3  and  C3_4 
REMARK    3  A    between atoms: N1_10  and  C8_11 
REMARK    4  A    between atoms: C8_11  and  N2_13 
REMARK    5  A    between atoms: N2_13  and  C9_15 
ROOT
HETATM    1  C8  UNL     1      40.910  14.524  84.569  1.00  0.00     0.170 C 
HETATM    2  S2  UNL     1      40.827  12.929  84.862  1.00  0.00    -0.041 SA
ENDROOT
BRANCH   1   3
HETATM    3  N1  UNL     1      39.693  15.237  84.559  1.00  0.00    -0.353 N 
HETATM    4  C7  UNL     1      38.432  14.573  84.916  1.00  0.00     0.172 C 
HETATM    5  C6  UNL     1      37.614  15.537  85.744  1.00  0.00     0.007 A 
HETATM    6  C5  UNL     1      37.492  16.819  85.283  1.00  0.00    -0.041 A 
HETATM    7  S1  UNL     1      36.729  15.552  87.192  1.00  0.00    -0.095 SA
HETATM    8  C4  UNL     1      36.770  17.670  86.031  1.00  0.00     0.025 A 
HETATM    9  C21 UNL     1      38.199  17.073  83.965  1.00  0.00     0.059 C 
HETATM   10  C3  UNL     1      36.220  17.180  87.188  1.00  0.00     0.007 A 
HETATM   11  C20 UNL     1      39.651  16.635  84.199  1.00  0.00     0.130 C 
BRANCH  10  12
HETATM   12  C2  UNL     1      35.373  17.928  88.188  1.00  0.00     0.213 C 
BRANCH  12  13
HETATM   13  O1  UNL     1      34.738  18.945  87.528  1.00  0.00    -0.391 OA
HETATM   14  C1  UNL     1      35.068  20.200  88.006  1.00  0.00     0.201 C 
ENDBRANCH  12  13
ENDBRANCH  10  12
ENDBRANCH   1   3
BRANCH   1  15
HETATM   15  N2  UNL     1      42.127  15.182  84.341  1.00  0.00    -0.358 N 
ATOM     16  H2  UNL     1      42.456  15.780  85.100  1.00  0.00     0.162 HD
BRANCH  15  17
HETATM   17  C9  UNL     1      42.977  15.126  83.176  1.00  0.00     0.033 C 
HETATM   18  C10 UNL     1      42.377  14.234  82.147  1.00  0.00     0.035 C 
HETATM   19  C11 UNL     1      43.122  14.294  80.810  1.00  0.00    -0.012 C 
HETATM   20  C12 UNL     1      44.321  13.403  80.809  1.00  0.00     0.005 C 
HETATM   21  C17 UNL     1      43.405  15.682  80.351  1.00  0.00     0.009 C 
HETATM   22  C13 UNL     1      45.539  13.885  81.447  1.00  0.00     0.005 C 
HETATM   23  C14 UNL     1      45.408  14.945  82.496  1.00  0.00    -0.012 C 
HETATM   24  C15 UNL     1      45.291  16.323  81.884  1.00  0.00     0.009 C 
HETATM   25  C19 UNL     1      44.342  14.644  83.517  1.00  0.00     0.035 C 
HETATM   26  C16 UNL     1      43.879  16.599  81.425  1.00  0.00    -0.012 C 
HETATM   27  C18 UNL     1      42.992  16.547  82.611  1.00  0.00     0.035 C 
ENDBRANCH  15  17
ENDBRANCH   1  15
TORSDOF 5
ENDMDL
MODEL 5
REMARK VINA RESULT: -9.560524312      1.129      2.196
REMARK  5 active torsions:
REMARK  status: ('A' for Active; 'I' for Inactive)
REMARK    1  A    between atoms: O1_2  and  C2_3 
REMARK    2  A    between atoms: C2_3  and  C3_4 
REMARK    3  A    between atoms: N1_10  and  C8_11 
REMARK    4  A    between atoms: C8_11  and  N2_13 
REMARK    5  A    between atoms: N2_13  and  C9_15 
ROOT
HETATM    1  C8  UNL     1      40.912  14.515  84.579  1.00  0.00     0.170 C 
HETATM    2  S2  UNL     1      40.826  12.907  84.785  1.00  0.00    -0.041 SA
ENDROOT
BRANCH   1   3
HETATM    3  N1  UNL     1      39.694  15.225  84.565  1.00  0.00    -0.353 N 
HETATM    4  C7  UNL     1      38.434  14.558  84.925  1.00  0.00     0.172 C 
HETATM    5  C6  UNL     1      37.614  15.524  85.750  1.00  0.00     0.007 A 
HETATM    6  C5  UNL     1      37.488  16.804  85.284  1.00  0.00    -0.041 A 
HETATM    7  S1  UNL     1      36.729  15.542  87.197  1.00  0.00    -0.095 SA
HETATM    8  C4  UNL     1      36.764  17.656  86.028  1.00  0.00     0.025 A 
HETATM    9  C21 UNL     1      38.194  17.055  83.965  1.00  0.00     0.059 C 
HETATM   10  C3  UNL     1      36.216  17.169  87.187  1.00  0.00     0.007 A 
HETATM   11  C20 UNL     1      39.648  16.621  84.200  1.00  0.00     0.130 C 
BRANCH  10  12
HETATM   12  C2  UNL     1      35.366  17.919  88.184  1.00  0.00     0.213 C 
BRANCH  12  13
HETATM   13  O1  UNL     1      34.711  18.917  87.516  1.00  0.00    -0.391 OA
HETATM   14  C1  UNL     1      35.024  20.183  87.976  1.00  0.00     0.201 C 
ENDBRANCH  12  13
ENDBRANCH  10  12
ENDBRANCH   1   3
BRANCH   1  15
HETATM   15  N2  UNL     1      42.134  15.187  84.425  1.00  0.00    -0.358 N 
ATOM     16  H2  UNL     1      42.428  15.757  85.219  1.00  0.00     0.162 HD
BRANCH  15  17
HETATM   17  C9  UNL     1      43.030  15.179  83.294  1.00  0.00     0.033 C 
HETATM   18  C10 UNL     1      44.322  14.542  83.668  1.00  0.00     0.035 C 
HETATM   19  C11 UNL     1      45.237  14.314  82.461  1.00  0.00    -0.012 C 
HETATM   20  C12 UNL     1      46.005  15.548  82.114  1.00  0.00     0.005 C 
HETATM   21  C17 UNL     1      44.542  13.694  81.299  1.00  0.00     0.009 C 
HETATM   22  C13 UNL     1      45.333  16.585  81.341  1.00  0.00     0.005 C 
HETATM   23  C14 UNL     1      43.837  16.635  81.388  1.00  0.00    -0.012 C 
HETATM   24  C15 UNL     1      43.216  15.644  80.429  1.00  0.00     0.009 C 
HETATM   25  C19 UNL     1      43.282  16.554  82.786  1.00  0.00     0.035 C 
HETATM   26  C16 UNL     1      43.191  14.254  81.021  1.00  0.00    -0.012 C 
HETATM   27  C18 UNL     1      42.357  14.292  82.246  1.00  0.00     0.035 C 
ENDBRANCH  15  17
ENDBRANCH   1  15
TORSDOF 5
ENDMDL
