MODEL 1
REMARK VINA RESULT: -4.264396250      0.000      0.000
REMARK  5 active torsions:
REMARK  status: ('A' for Active; 'I' for Inactive)
REMARK    1  A    between atoms: C2_2  and  C3_3 
REMARK    2  A    between atoms: C3_3  and  C4_4 
REMARK    3  A    between atoms: N1_18  and  C17_20 
REMARK    4  A    between atoms: C17_20  and  C18_21 
REMARK    5  A    between atoms: C18_21  and  O3_22 
ROOT
HETATM    1  C4  UNL     1      39.911  15.178  85.029  1.00  0.00     0.030 C 
HETATM    2  C5  UNL     1      38.989  15.449  83.881  1.00  0.00     0.008 C 
HETATM    3  C6  UNL     1      39.088  14.321  82.908  1.00  0.00     0.004 C 
HETATM    4  C7  UNL     1      40.213  13.370  83.171  1.00  0.00     0.045 C 
HETATM    5  C8  UNL     1      41.492  14.005  83.598  1.00  0.00     0.140 C 
HETATM    6  O1  UNL     1      41.999  13.309  84.724  1.00  0.00    -0.225 OA
HETATM    7  O2  UNL     1      42.012  14.268  85.585  1.00  0.00    -0.225 OA
HETATM    8  C9  UNL     1      41.361  15.059  84.603  1.00  0.00     0.135 C 
HETATM    9  C10 UNL     1      42.084  16.327  84.414  1.00  0.00     0.049 C 
HETATM   10  C11 UNL     1      42.545  16.673  83.056  1.00  0.00    -0.015 C 
HETATM   11  C12 UNL     1      41.886  17.958  82.529  1.00  0.00     0.010 C 
HETATM   12  C13 UNL     1      42.333  15.627  82.006  1.00  0.00     0.019 C 
HETATM   13  C14 UNL     1      42.541  14.230  82.543  1.00  0.00     0.027 C 
HETATM   14  C15 UNL     1      43.901  14.024  83.126  1.00  0.00     0.250 C 
HETATM   15  N1  UNL     1      44.622  13.078  82.283  1.00  0.00    -0.063 N 
HETATM   16  C16 UNL     1      44.569  11.739  82.838  1.00  0.00     0.273 C 
HETATM   17  C19 UNL     1      43.987  13.243  81.032  1.00  0.00     0.195 C 
HETATM   18  C20 UNL     1      44.262  12.236  79.971  1.00  0.00     0.034 C 
HETATM   19  C21 UNL     1      42.995  11.641  79.399  1.00  0.00     0.002 C 
HETATM   20  C22 UNL     1      41.899  12.610  79.166  1.00  0.00     0.001 C 
HETATM   21  C23 UNL     1      41.838  13.745  80.167  1.00  0.00     0.007 C 
HETATM   22  C24 UNL     1      42.517  13.273  81.423  1.00  0.00     0.030 C 
ENDROOT
BRANCH  15  23
HETATM   23  C17 UNL     1      46.002  13.563  82.268  1.00  0.00     0.263 C 
BRANCH  23  24
HETATM   24  C18 UNL     1      46.091  15.018  82.650  1.00  0.00     0.192 C 
BRANCH  24  25
HETATM   25  O3  UNL     1      46.392  15.813  81.544  1.00  0.00    -0.399 OA
ATOM     26  H3  UNL     1      47.220  16.264  81.660  1.00  0.00     0.209 HD
ENDBRANCH  24  25
ENDBRANCH  23  24
ENDBRANCH  15  23
BRANCH   1  27
HETATM   27  C3  UNL     1      39.667  16.168  86.116  1.00  0.00     0.034 C 
BRANCH  27  28
HETATM   28  C2  UNL     1      38.337  16.789  86.103  1.00  0.00    -0.036 C 
HETATM   29  C1  UNL     1      37.347  16.435  86.914  1.00  0.00     0.007 C 
ENDBRANCH  27  28
ENDBRANCH   1  27
TORSDOF 5
ENDMDL
MODEL 2
REMARK VINA RESULT: -2.151688773      1.124      1.227
REMARK  5 active torsions:
REMARK  status: ('A' for Active; 'I' for Inactive)
REMARK    1  A    between atoms: C2_2  and  C3_3 
REMARK    2  A    between atoms: C3_3  and  C4_4 
REMARK    3  A    between atoms: N1_18  and  C17_20 
REMARK    4  A    between atoms: C17_20  and  C18_21 
REMARK    5  A    between atoms: C18_21  and  O3_22 
ROOT
HETATM    1  C4  UNL     1      38.882  13.869  85.324  1.00  0.00     0.030 C 
HETATM    2  C5  UNL     1      37.953  14.204  84.199  1.00  0.00     0.008 C 
HETATM    3  C6  UNL     1      38.318  13.375  83.012  1.00  0.00     0.004 C 
HETATM    4  C7  UNL     1      39.615  12.639  83.142  1.00  0.00     0.045 C 
HETATM    5  C8  UNL     1      40.715  13.405  83.792  1.00  0.00     0.140 C 
HETATM    6  O1  UNL     1      41.330  12.587  84.772  1.00  0.00    -0.225 OA
HETATM    7  O2  UNL     1      41.114  13.305  85.822  1.00  0.00    -0.225 OA
HETATM    8  C9  UNL     1      40.334  14.150  84.991  1.00  0.00     0.135 C 
HETATM    9  C10 UNL     1      40.771  15.547  85.140  1.00  0.00     0.049 C 
HETATM   10  C11 UNL     1      41.183  16.284  83.930  1.00  0.00    -0.015 C 
HETATM   11  C12 UNL     1      40.276  17.493  83.649  1.00  0.00     0.010 C 
HETATM   12  C13 UNL     1      41.229  15.486  82.663  1.00  0.00     0.019 C 
HETATM   13  C14 UNL     1      41.719  14.076  82.893  1.00  0.00     0.027 C 
HETATM   14  C15 UNL     1      43.075  14.023  83.517  1.00  0.00     0.250 C 
HETATM   15  N1  UNL     1      44.005  13.464  82.543  1.00  0.00    -0.063 N 
HETATM   16  C16 UNL     1      44.227  12.051  82.785  1.00  0.00     0.273 C 
HETATM   17  C19 UNL     1      43.382  13.780  81.315  1.00  0.00     0.195 C 
HETATM   18  C20 UNL     1      43.895  13.122  80.082  1.00  0.00     0.034 C 
HETATM   19  C21 UNL     1      42.801  12.429  79.301  1.00  0.00     0.002 C 
HETATM   20  C22 UNL     1      41.529  13.182  79.205  1.00  0.00     0.001 C 
HETATM   21  C23 UNL     1      41.199  14.019  80.424  1.00  0.00     0.007 C 
HETATM   22  C24 UNL     1      41.930  13.419  81.592  1.00  0.00     0.030 C 
ENDROOT
BRANCH  15  23
HETATM   23  C17 UNL     1      45.247  14.210  82.737  1.00  0.00     0.263 C 
BRANCH  23  24
HETATM   24  C18 UNL     1      45.187  15.578  82.107  1.00  0.00     0.192 C 
BRANCH  24  25
HETATM   25  O3  UNL     1      46.288  15.804  81.283  1.00  0.00    -0.399 OA
ATOM     26  H3  UNL     1      46.021  16.148  80.439  1.00  0.00     0.209 HD
ENDBRANCH  24  25
ENDBRANCH  23  24
ENDBRANCH  15  23
BRANCH   1  27
HETATM   27  C3  UNL     1      38.402  14.512  86.580  1.00  0.00     0.034 C 
BRANCH  27  28
HETATM   28  C2  UNL     1      37.328  15.497  86.404  1.00  0.00    -0.036 C 
HETATM   29  C1  UNL     1      36.714  16.110  87.409  1.00  0.00     0.007 C 
ENDBRANCH  27  28
ENDBRANCH   1  27
TORSDOF 5
ENDMDL
MODEL 3
REMARK VINA RESULT: -1.349587478      2.313      3.786
REMARK  5 active torsions:
REMARK  status: ('A' for Active; 'I' for Inactive)
REMARK    1  A    between atoms: C2_2  and  C3_3 
REMARK    2  A    between atoms: C3_3  and  C4_4 
REMARK    3  A    between atoms: N1_18  and  C17_20 
REMARK    4  A    between atoms: C17_20  and  C18_21 
REMARK    5  A    between atoms: C18_21  and  O3_22 
ROOT
HETATM    1  C4  UNL     1      38.577  14.990  85.287  1.00  0.00     0.030 C 
HETATM    2  C5  UNL     1      39.507  15.879  86.051  1.00  0.00     0.008 C 
HETATM    3  C6  UNL     1      40.332  16.658  85.080  1.00  0.00     0.004 C 
HETATM    4  C7  UNL     1      40.221  16.199  83.660  1.00  0.00     0.045 C 
HETATM    5  C8  UNL     1      40.178  14.721  83.474  1.00  0.00     0.140 C 
HETATM    6  O1  UNL     1      39.122  14.398  82.586  1.00  0.00    -0.225 OA
HETATM    7  O2  UNL     1      38.410  13.649  83.357  1.00  0.00    -0.225 OA
HETATM    8  C9  UNL     1      39.306  13.999  84.400  1.00  0.00     0.135 C 
HETATM    9  C10 UNL     1      39.807  12.786  85.064  1.00  0.00     0.049 C 
HETATM   10  C11 UNL     1      41.266  12.579  85.133  1.00  0.00    -0.015 C 
HETATM   11  C12 UNL     1      41.781  12.554  86.582  1.00  0.00     0.010 C 
HETATM   12  C13 UNL     1      42.105  13.584  84.404  1.00  0.00     0.019 C 
HETATM   13  C14 UNL     1      41.464  14.030  83.110  1.00  0.00     0.027 C 
HETATM   14  C15 UNL     1      41.187  12.899  82.175  1.00  0.00     0.250 C 
HETATM   15  N1  UNL     1      42.051  13.047  81.010  1.00  0.00    -0.063 N 
HETATM   16  C16 UNL     1      41.340  13.666  79.908  1.00  0.00     0.273 C 
HETATM   17  C19 UNL     1      43.135  13.790  81.529  1.00  0.00     0.195 C 
HETATM   18  C20 UNL     1      44.099  14.384  80.565  1.00  0.00     0.034 C 
HETATM   19  C21 UNL     1      44.290  15.869  80.781  1.00  0.00     0.002 C 
HETATM   20  C22 UNL     1      44.382  16.287  82.200  1.00  0.00     0.001 C 
HETATM   21  C23 UNL     1      43.539  15.468  83.154  1.00  0.00     0.007 C 
HETATM   22  C24 UNL     1      42.424  14.853  82.355  1.00  0.00     0.030 C 
ENDROOT
BRANCH  15  23
HETATM   23  C17 UNL     1      42.441  11.683  80.655  1.00  0.00     0.263 C 
BRANCH  23  24
HETATM   24  C18 UNL     1      43.002  11.604  79.258  1.00  0.00     0.192 C 
BRANCH  24  25
HETATM   25  O3  UNL     1      42.329  10.649  78.497  1.00  0.00    -0.399 OA
ATOM     26  H3  UNL     1      41.575  10.307  78.963  1.00  0.00     0.209 HD
ENDBRANCH  24  25
ENDBRANCH  23  24
ENDBRANCH  15  23
BRANCH   1  27
HETATM   27  C3  UNL     1      37.592  14.372  86.219  1.00  0.00     0.034 C 
BRANCH  27  28
HETATM   28  C2  UNL     1      37.258  15.183  87.397  1.00  0.00    -0.036 C 
HETATM   29  C1  UNL     1      36.052  15.222  87.951  1.00  0.00     0.007 C 
ENDBRANCH  27  28
ENDBRANCH   1  27
TORSDOF 5
ENDMDL
