MODEL 1
REMARK VINA RESULT: -7.858533467      0.000      0.000
REMARK  6 active torsions:
REMARK  status: ('A' for Active; 'I' for Inactive)
REMARK    1  A    between atoms: C10_10  and  C11_11 
REMARK    2  A    between atoms: C11_11  and  C12_12 
REMARK    3  A    between atoms: C16_16  and  O1_17 
REMARK    4  A    between atoms: C24_26  and  N1_27 
REMARK    5  A    between atoms: N1_27  and  N2_29 
REMARK    6  A    between atoms: N2_29  and  N3_30 
ROOT
HETATM    1  C1  UNL     1      43.371  15.370  80.532  1.00  0.00     0.018 C 
HETATM    2  C2  UNL     1      43.334  14.349  81.641  1.00  0.00    -0.017 C 
HETATM    3  C3  UNL     1      43.882  14.838  82.927  1.00  0.00     0.012 C 
HETATM    4  C4  UNL     1      42.824  14.899  84.042  1.00  0.00     0.006 C 
HETATM    5  C5  UNL     1      41.568  15.452  83.449  1.00  0.00    -0.002 C 
HETATM    6  C6  UNL     1      40.991  14.360  82.572  1.00  0.00    -0.005 C 
HETATM    7  C7  UNL     1      40.263  13.369  83.468  1.00  0.00     0.006 C 
HETATM    8  C8  UNL     1      39.060  14.182  83.983  1.00  0.00     0.006 C 
HETATM    9  C9  UNL     1      39.639  15.103  85.019  1.00  0.00     0.001 C 
HETATM   10  C10 UNL     1      38.651  15.810  85.857  1.00  0.00     0.019 C 
HETATM   11  C16 UNL     1      37.858  16.867  85.135  1.00  0.00     0.122 C 
HETATM   12  C17 UNL     1      38.450  17.341  83.862  1.00  0.00     0.033 C 
HETATM   13  C18 UNL     1      39.909  17.222  83.696  1.00  0.00     0.012 C 
HETATM   14  C19 UNL     1      40.595  16.072  84.368  1.00  0.00    -0.036 C 
HETATM   15  C20 UNL     1      41.407  16.690  85.523  1.00  0.00     0.016 C 
HETATM   16  C21 UNL     1      41.992  13.668  81.745  1.00  0.00     0.000 C 
HETATM   17  C22 UNL     1      42.283  12.249  82.128  1.00  0.00     0.008 C 
HETATM   18  C23 UNL     1      43.779  12.057  82.064  1.00  0.00     0.029 C 
HETATM   19  C24 UNL     1      44.203  13.180  81.154  1.00  0.00     0.123 C 
ENDROOT
BRANCH  19  20
HETATM   20  N1  UNL     1      45.596  13.482  81.216  1.00  0.00    -0.247 N 
ATOM     21  H1  UNL     1      46.063  13.975  80.453  1.00  0.00     0.197 HD
BRANCH  20  22
HETATM   22  N2  UNL     1      46.226  13.123  82.231  1.00  0.00    -0.248 NA
BRANCH  22  23
HETATM   23  N3  UNL     1      47.099  12.728  82.999  1.00  0.00    -0.261 N 
ATOM     24  H32 UNL     1      47.714  13.523  82.825  1.00  0.00     0.193 HD
ATOM     25  H31 UNL     1      47.637  12.184  83.673  1.00  0.00     0.193 HD
ENDBRANCH  22  23
ENDBRANCH  20  22
ENDBRANCH  19  20
BRANCH  10  26
HETATM   26  C11 UNL     1      37.753  15.007  86.713  1.00  0.00     0.012 C 
BRANCH  26  27
HETATM   27  C12 UNL     1      36.889  15.797  87.666  1.00  0.00    -0.014 C 
HETATM   28  C13 UNL     1      35.469  15.868  87.075  1.00  0.00     0.005 C 
HETATM   29  C14 UNL     1      34.934  15.732  88.486  1.00  0.00     0.001 C 
HETATM   30  C15 UNL     1      36.290  15.089  88.826  1.00  0.00     0.005 C 
ENDBRANCH  26  27
ENDBRANCH  10  26
BRANCH  11  31
HETATM   31  O1  UNL     1      37.629  17.981  85.978  1.00  0.00    -0.395 OA
ATOM     32  H1  UNL     1      37.046  18.604  85.560  1.00  0.00     0.210 HD
ENDBRANCH  11  31
TORSDOF 6
ENDMDL
MODEL 2
REMARK VINA RESULT: -7.777190918      4.522      7.749
REMARK  6 active torsions:
REMARK  status: ('A' for Active; 'I' for Inactive)
REMARK    1  A    between atoms: C10_10  and  C11_11 
REMARK    2  A    between atoms: C11_11  and  C12_12 
REMARK    3  A    between atoms: C16_16  and  O1_17 
REMARK    4  A    between atoms: C24_26  and  N1_27 
REMARK    5  A    between atoms: N1_27  and  N2_29 
REMARK    6  A    between atoms: N2_29  and  N3_30 
ROOT
HETATM    1  C1  UNL     1      39.316  16.697  86.925  1.00  0.00     0.018 C 
HETATM    2  C2  UNL     1      38.831  16.214  85.581  1.00  0.00    -0.017 C 
HETATM    3  C3  UNL     1      38.955  17.219  84.500  1.00  0.00     0.012 C 
HETATM    4  C4  UNL     1      39.938  16.791  83.397  1.00  0.00     0.006 C 
HETATM    5  C5  UNL     1      41.131  16.183  84.061  1.00  0.00    -0.002 C 
HETATM    6  C6  UNL     1      40.689  14.832  84.584  1.00  0.00    -0.005 C 
HETATM    7  C7  UNL     1      40.696  13.849  83.423  1.00  0.00     0.006 C 
HETATM    8  C8  UNL     1      42.193  13.708  83.093  1.00  0.00     0.006 C 
HETATM    9  C9  UNL     1      42.545  14.977  82.371  1.00  0.00     0.001 C 
HETATM   10  C10 UNL     1      43.865  14.982  81.712  1.00  0.00     0.019 C 
HETATM   11  C16 UNL     1      45.038  15.011  82.656  1.00  0.00     0.122 C 
HETATM   12  C17 UNL     1      44.728  15.456  84.035  1.00  0.00     0.033 C 
HETATM   13  C18 UNL     1      43.560  16.333  84.227  1.00  0.00     0.012 C 
HETATM   14  C19 UNL     1      42.395  16.156  83.301  1.00  0.00    -0.036 C 
HETATM   15  C20 UNL     1      42.393  17.400  82.393  1.00  0.00     0.016 C 
HETATM   16  C21 UNL     1      39.371  14.848  85.238  1.00  0.00     0.000 C 
HETATM   17  C22 UNL     1      38.270  14.148  84.500  1.00  0.00     0.008 C 
HETATM   18  C23 UNL     1      37.042  15.023  84.576  1.00  0.00     0.029 C 
HETATM   19  C24 UNL     1      37.343  15.886  85.773  1.00  0.00     0.123 C 
ENDROOT
BRANCH  19  20
HETATM   20  N1  UNL     1      36.538  17.062  85.857  1.00  0.00    -0.247 N 
ATOM     21  H1  UNL     1      36.525  17.746  85.100  1.00  0.00     0.197 HD
BRANCH  20  22
HETATM   22  N2  UNL     1      35.853  17.226  86.887  1.00  0.00    -0.248 NA
BRANCH  22  23
HETATM   23  N3  UNL     1      34.965  17.540  87.674  1.00  0.00    -0.261 N 
ATOM     24  H32 UNL     1      35.021  16.668  88.200  1.00  0.00     0.193 HD
ATOM     25  H31 UNL     1      34.225  18.041  88.168  1.00  0.00     0.193 HD
ENDBRANCH  22  23
ENDBRANCH  20  22
ENDBRANCH  19  20
BRANCH  10  26
HETATM   26  C11 UNL     1      44.115  14.005  80.631  1.00  0.00     0.012 C 
BRANCH  26  27
HETATM   27  C12 UNL     1      43.161  12.836  80.582  1.00  0.00    -0.014 C 
HETATM   28  C13 UNL     1      42.380  12.913  79.258  1.00  0.00     0.005 C 
HETATM   29  C14 UNL     1      42.455  11.402  79.189  1.00  0.00     0.001 C 
HETATM   30  C15 UNL     1      43.678  11.524  80.115  1.00  0.00     0.005 C 
ENDBRANCH  26  27
ENDBRANCH  10  26
BRANCH  11  31
HETATM   31  O1  UNL     1      46.078  15.819  82.135  1.00  0.00    -0.395 OA
ATOM     32  H1  UNL     1      46.915  15.374  82.205  1.00  0.00     0.210 HD
ENDBRANCH  11  31
TORSDOF 6
ENDMDL
MODEL 3
REMARK VINA RESULT: -7.701493297      4.549      7.952
REMARK  6 active torsions:
REMARK  status: ('A' for Active; 'I' for Inactive)
REMARK    1  A    between atoms: C10_10  and  C11_11 
REMARK    2  A    between atoms: C11_11  and  C12_12 
REMARK    3  A    between atoms: C16_16  and  O1_17 
REMARK    4  A    between atoms: C24_26  and  N1_27 
REMARK    5  A    between atoms: N1_27  and  N2_29 
REMARK    6  A    between atoms: N2_29  and  N3_30 
ROOT
HETATM    1  C1  UNL     1      37.131  14.731  83.674  1.00  0.00     0.018 C 
HETATM    2  C2  UNL     1      38.204  14.856  84.726  1.00  0.00    -0.017 C 
HETATM    3  C3  UNL     1      38.721  13.557  85.216  1.00  0.00     0.012 C 
HETATM    4  C4  UNL     1      40.206  13.341  84.881  1.00  0.00     0.006 C 
HETATM    5  C5  UNL     1      40.429  13.811  83.479  1.00  0.00    -0.002 C 
HETATM    6  C6  UNL     1      40.367  15.323  83.519  1.00  0.00    -0.005 C 
HETATM    7  C7  UNL     1      41.706  15.840  84.023  1.00  0.00     0.006 C 
HETATM    8  C8  UNL     1      42.672  15.483  82.878  1.00  0.00     0.006 C 
HETATM    9  C9  UNL     1      42.890  14.003  83.010  1.00  0.00     0.001 C 
HETATM   10  C10 UNL     1      43.985  13.452  82.190  1.00  0.00     0.019 C 
HETATM   11  C16 UNL     1      43.716  13.437  80.709  1.00  0.00     0.122 C 
HETATM   12  C17 UNL     1      42.289  13.558  80.326  1.00  0.00     0.033 C 
HETATM   13  C18 UNL     1      41.276  13.115  81.300  1.00  0.00     0.012 C 
HETATM   14  C19 UNL     1      41.596  13.270  82.757  1.00  0.00    -0.036 C 
HETATM   15  C20 UNL     1      41.822  11.840  83.286  1.00  0.00     0.016 C 
HETATM   16  C21 UNL     1      39.267  15.853  84.341  1.00  0.00     0.000 C 
HETATM   17  C22 UNL     1      39.675  16.529  85.615  1.00  0.00     0.008 C 
HETATM   18  C23 UNL     1      38.731  16.066  86.698  1.00  0.00     0.029 C 
HETATM   19  C24 UNL     1      37.544  15.593  85.902  1.00  0.00     0.123 C 
ENDROOT
BRANCH  19  20
HETATM   20  N1  UNL     1      36.653  14.751  86.633  1.00  0.00    -0.247 N 
ATOM     21  H1  UNL     1      36.527  13.770  86.379  1.00  0.00     0.197 HD
BRANCH  20  22
HETATM   22  N2  UNL     1      36.032  15.253  87.591  1.00  0.00    -0.248 NA
BRANCH  22  23
HETATM   23  N3  UNL     1      35.161  15.563  88.400  1.00  0.00    -0.261 N 
ATOM     24  H32 UNL     1      35.224  14.685  88.915  1.00  0.00     0.193 HD
ATOM     25  H31 UNL     1      34.434  16.061  88.913  1.00  0.00     0.193 HD
ENDBRANCH  22  23
ENDBRANCH  20  22
ENDBRANCH  19  20
BRANCH  10  26
HETATM   26  C11 UNL     1      45.362  13.928  82.444  1.00  0.00     0.012 C 
BRANCH  26  27
HETATM   27  C12 UNL     1      45.886  14.947  81.461  1.00  0.00    -0.014 C 
HETATM   28  C13 UNL     1      44.720  15.872  81.066  1.00  0.00     0.005 C 
HETATM   29  C14 UNL     1      45.706  17.022  81.055  1.00  0.00     0.001 C 
HETATM   30  C15 UNL     1      46.565  16.156  81.995  1.00  0.00     0.005 C 
ENDBRANCH  26  27
ENDBRANCH  10  26
BRANCH  11  31
HETATM   31  O1  UNL     1      44.253  12.269  80.116  1.00  0.00    -0.395 OA
ATOM     32  H1  UNL     1      43.605  11.844  79.566  1.00  0.00     0.210 HD
ENDBRANCH  11  31
TORSDOF 6
ENDMDL
MODEL 4
REMARK VINA RESULT: -7.208432989      4.871      8.131
REMARK  6 active torsions:
REMARK  status: ('A' for Active; 'I' for Inactive)
REMARK    1  A    between atoms: C10_10  and  C11_11 
REMARK    2  A    between atoms: C11_11  and  C12_12 
REMARK    3  A    between atoms: C16_16  and  O1_17 
REMARK    4  A    between atoms: C24_26  and  N1_27 
REMARK    5  A    between atoms: N1_27  and  N2_29 
REMARK    6  A    between atoms: N2_29  and  N3_30 
ROOT
HETATM    1  C1  UNL     1      38.549  17.936  87.668  1.00  0.00     0.018 C 
HETATM    2  C2  UNL     1      37.802  17.160  86.612  1.00  0.00    -0.017 C 
HETATM    3  C3  UNL     1      37.861  17.768  85.264  1.00  0.00     0.012 C 
HETATM    4  C4  UNL     1      38.598  16.885  84.242  1.00  0.00     0.006 C 
HETATM    5  C5  UNL     1      39.808  16.322  84.916  1.00  0.00    -0.002 C 
HETATM    6  C6  UNL     1      39.308  15.273  85.886  1.00  0.00    -0.005 C 
HETATM    7  C7  UNL     1      39.018  14.002  85.102  1.00  0.00     0.006 C 
HETATM    8  C8  UNL     1      40.417  13.538  84.656  1.00  0.00     0.006 C 
HETATM    9  C9  UNL     1      40.786  14.467  83.534  1.00  0.00     0.001 C 
HETATM   10  C10 UNL     1      41.974  14.071  82.754  1.00  0.00     0.019 C 
HETATM   11  C16 UNL     1      43.280  14.194  83.492  1.00  0.00     0.122 C 
HETATM   12  C17 UNL     1      43.249  15.070  84.688  1.00  0.00     0.033 C 
HETATM   13  C18 UNL     1      42.233  16.135  84.733  1.00  0.00     0.012 C 
HETATM   14  C19 UNL     1      40.920  15.876  84.057  1.00  0.00    -0.036 C 
HETATM   15  C20 UNL     1      40.910  16.781  82.810  1.00  0.00     0.016 C 
HETATM   16  C21 UNL     1      38.124  15.687  86.655  1.00  0.00     0.000 C 
HETATM   17  C22 UNL     1      36.847  14.980  86.312  1.00  0.00     0.008 C 
HETATM   18  C23 UNL     1      35.753  16.019  86.256  1.00  0.00     0.029 C 
HETATM   19  C24 UNL     1      36.338  17.139  87.075  1.00  0.00     0.123 C 
ENDROOT
BRANCH  19  20
HETATM   20  N1  UNL     1      35.694  18.397  86.881  1.00  0.00    -0.247 N 
ATOM     21  H1  UNL     1      35.682  18.847  85.965  1.00  0.00     0.197 HD
BRANCH  20  22
HETATM   22  N2  UNL     1      35.146  18.930  87.867  1.00  0.00    -0.248 NA
BRANCH  22  23
HETATM   23  N3  UNL     1      34.880  19.316  89.002  1.00  0.00    -0.261 N 
ATOM     24  H32 UNL     1      35.853  19.327  89.306  1.00  0.00     0.193 HD
ATOM     25  H31 UNL     1      34.390  19.629  89.841  1.00  0.00     0.193 HD
ENDBRANCH  22  23
ENDBRANCH  20  22
ENDBRANCH  19  20
BRANCH  10  26
HETATM   26  C11 UNL     1      41.935  12.791  82.014  1.00  0.00     0.012 C 
BRANCH  26  27
HETATM   27  C12 UNL     1      42.695  12.774  80.710  1.00  0.00    -0.014 C 
HETATM   28  C13 UNL     1      42.855  11.307  80.271  1.00  0.00     0.005 C 
HETATM   29  C14 UNL     1      42.650  11.770  78.842  1.00  0.00     0.001 C 
HETATM   30  C15 UNL     1      41.938  12.991  79.451  1.00  0.00     0.005 C 
ENDBRANCH  26  27
ENDBRANCH  10  26
BRANCH  11  31
HETATM   31  O1  UNL     1      44.305  14.640  82.624  1.00  0.00    -0.395 OA
ATOM     32  H1  UNL     1      45.161  14.486  83.008  1.00  0.00     0.210 HD
ENDBRANCH  11  31
TORSDOF 6
ENDMDL
MODEL 5
REMARK VINA RESULT: -6.736001384      4.398      7.808
REMARK  6 active torsions:
REMARK  status: ('A' for Active; 'I' for Inactive)
REMARK    1  A    between atoms: C10_10  and  C11_11 
REMARK    2  A    between atoms: C11_11  and  C12_12 
REMARK    3  A    between atoms: C16_16  and  O1_17 
REMARK    4  A    between atoms: C24_26  and  N1_27 
REMARK    5  A    between atoms: N1_27  and  N2_29 
REMARK    6  A    between atoms: N2_29  and  N3_30 
ROOT
HETATM    1  C1  UNL     1      37.615  14.311  83.792  1.00  0.00     0.018 C 
HETATM    2  C2  UNL     1      38.799  14.763  84.610  1.00  0.00    -0.017 C 
HETATM    3  C3  UNL     1      39.658  13.655  85.087  1.00  0.00     0.012 C 
HETATM    4  C4  UNL     1      41.076  13.701  84.492  1.00  0.00     0.006 C 
HETATM    5  C5  UNL     1      40.951  14.046  83.043  1.00  0.00    -0.002 C 
HETATM    6  C6  UNL     1      40.573  15.511  82.983  1.00  0.00    -0.005 C 
HETATM    7  C7  UNL     1      41.836  16.335  83.184  1.00  0.00     0.006 C 
HETATM    8  C8  UNL     1      42.647  16.051  81.906  1.00  0.00     0.006 C 
HETATM    9  C9  UNL     1      43.196  14.667  82.103  1.00  0.00     0.001 C 
HETATM   10  C10 UNL     1      44.229  14.255  81.133  1.00  0.00     0.019 C 
HETATM   11  C16 UNL     1      43.720  14.023  79.735  1.00  0.00     0.122 C 
HETATM   12  C17 UNL     1      42.257  13.816  79.622  1.00  0.00     0.033 C 
HETATM   13  C18 UNL     1      41.544  13.293  80.801  1.00  0.00     0.012 C 
HETATM   14  C19 UNL     1      42.066  13.669  82.155  1.00  0.00    -0.036 C 
HETATM   15  C20 UNL     1      42.680  12.380  82.734  1.00  0.00     0.016 C 
HETATM   16  C21 UNL     1      39.542  15.901  83.957  1.00  0.00     0.000 C 
HETATM   17  C22 UNL     1      40.006  16.782  85.078  1.00  0.00     0.008 C 
HETATM   18  C23 UNL     1      39.382  16.265  86.352  1.00  0.00     0.029 C 
HETATM   19  C24 UNL     1      38.206  15.481  85.832  1.00  0.00     0.123 C 
ENDROOT
BRANCH  19  20
HETATM   20  N1  UNL     1      37.654  14.566  86.779  1.00  0.00    -0.247 N 
ATOM     21  H1  UNL     1      37.898  13.575  86.758  1.00  0.00     0.197 HD
BRANCH  20  22
HETATM   22  N2  UNL     1      36.864  15.018  87.632  1.00  0.00    -0.248 NA
BRANCH  22  23
HETATM   23  N3  UNL     1      35.878  15.484  88.196  1.00  0.00    -0.261 N 
ATOM     24  H32 UNL     1      35.432  15.784  87.329  1.00  0.00     0.193 HD
ATOM     25  H31 UNL     1      35.200  15.779  88.899  1.00  0.00     0.193 HD
ENDBRANCH  22  23
ENDBRANCH  20  22
ENDBRANCH  19  20
BRANCH  10  26
HETATM   26  C11 UNL     1      45.493  15.020  81.085  1.00  0.00     0.012 C 
BRANCH  26  27
HETATM   27  C12 UNL     1      46.525  14.629  82.116  1.00  0.00    -0.014 C 
HETATM   28  C13 UNL     1      46.115  15.254  83.462  1.00  0.00     0.005 C 
HETATM   29  C14 UNL     1      46.610  13.990  84.136  1.00  0.00     0.001 C 
HETATM   30  C15 UNL     1      46.395  13.305  82.775  1.00  0.00     0.005 C 
ENDBRANCH  26  27
ENDBRANCH  10  26
BRANCH  11  31
HETATM   31  O1  UNL     1      44.387  12.926  79.138  1.00  0.00    -0.395 OA
ATOM     32  H1  UNL     1      44.280  12.943  78.194  1.00  0.00     0.210 HD
ENDBRANCH  11  31
TORSDOF 6
ENDMDL
