MODEL 1
REMARK VINA RESULT: -8.317791931      0.000      0.000
REMARK  7 active torsions:
REMARK  status: ('A' for Active; 'I' for Inactive)
REMARK    1  A    between atoms: O1_2  and  C2_3 
REMARK    2  A    between atoms: C2_3  and  N1_5 
REMARK    3  A    between atoms: C3_7  and  N2_8 
REMARK    4  A    between atoms: C3_7  and  C14_20 
REMARK    5  A    between atoms: N2_8  and  C4_10 
REMARK    6  A    between atoms: C7_13  and  C8_14 
REMARK    7  A    between atoms: C8_14  and  C9_15 
ROOT
HETATM    1  N1  UNL     1      41.734  15.886  83.839  1.00  0.00    -0.313 N 
ATOM      2  H1  UNL     1      41.178  16.682  84.151  1.00  0.00     0.170 HD
HETATM    3  C3  UNL     1      41.171  14.732  83.899  1.00  0.00     0.110 C 
ENDROOT
BRANCH   3   4
HETATM    4  N2  UNL     1      41.918  13.618  83.469  1.00  0.00    -0.371 N 
ATOM      5  H2  UNL     1      42.244  12.996  84.209  1.00  0.00     0.161 HD
BRANCH   4   6
HETATM    6  C4  UNL     1      42.280  13.242  82.151  1.00  0.00     0.083 C 
HETATM    7  C5  UNL     1      41.615  14.011  81.035  1.00  0.00     0.025 C 
HETATM    8  C6  UNL     1      41.696  13.247  79.723  1.00  0.00     0.006 C 
HETATM    9  C7  UNL     1      42.961  12.516  79.514  1.00  0.00    -0.014 C 
HETATM   10  C12 UNL     1      43.232  11.550  80.674  1.00  0.00     0.006 C 
HETATM   11  C13 UNL     1      42.235  11.796  81.802  1.00  0.00     0.025 C 
BRANCH   9  12
HETATM   12  C8  UNL     1      44.172  13.270  79.135  1.00  0.00     0.008 C 
BRANCH  12  13
HETATM   13  C9  UNL     1      44.834  14.114  80.176  1.00  0.00    -0.022 C 
HETATM   14  C10 UNL     1      45.793  13.330  81.055  1.00  0.00     0.009 C 
HETATM   15  C11 UNL     1      45.420  15.396  79.728  1.00  0.00     0.009 C 
ENDBRANCH  12  13
ENDBRANCH   9  12
ENDBRANCH   4   6
ENDBRANCH   3   4
BRANCH   3  16
HETATM   16  C14 UNL     1      39.820  14.650  84.437  1.00  0.00    -0.011 A 
HETATM   17  C15 UNL     1      38.815  15.522  84.608  1.00  0.00    -0.065 A 
HETATM   18  C16 UNL     1      38.569  16.950  84.348  1.00  0.00     0.040 C 
HETATM   19  C22 UNL     1      37.978  14.502  85.217  1.00  0.00     0.020 A 
HETATM   20  C17 UNL     1      37.622  17.552  85.353  1.00  0.00    -0.010 C 
HETATM   21  C18 UNL     1      38.066  17.292  86.777  1.00  0.00     0.009 C 
HETATM   22  C20 UNL     1      36.413  16.717  85.606  1.00  0.00     0.009 C 
HETATM   23  C19 UNL     1      37.052  16.168  86.837  1.00  0.00    -0.013 C 
HETATM   24  C21 UNL     1      37.704  14.827  86.668  1.00  0.00     0.014 C 
HETATM   25  C23 UNL     1      39.063  13.501  85.007  1.00  0.00     0.051 A 
ENDBRANCH   3  16
BRANCH   1  26
HETATM   26  C2  UNL     1      43.034  16.164  83.386  1.00  0.00     0.215 C 
HETATM   27  S1  UNL     1      43.235  17.324  82.256  1.00  0.00    -0.033 SA
BRANCH  26  28
HETATM   28  O1  UNL     1      44.169  15.512  83.841  1.00  0.00    -0.332 OA
HETATM   29  C1  UNL     1      45.421  15.897  83.280  1.00  0.00     0.212 C 
ENDBRANCH  26  28
ENDBRANCH   1  26
TORSDOF 7
ENDMDL
MODEL 2
REMARK VINA RESULT: -8.199195319      0.867      1.144
REMARK  7 active torsions:
REMARK  status: ('A' for Active; 'I' for Inactive)
REMARK    1  A    between atoms: O1_2  and  C2_3 
REMARK    2  A    between atoms: C2_3  and  N1_5 
REMARK    3  A    between atoms: C3_7  and  N2_8 
REMARK    4  A    between atoms: C3_7  and  C14_20 
REMARK    5  A    between atoms: N2_8  and  C4_10 
REMARK    6  A    between atoms: C7_13  and  C8_14 
REMARK    7  A    between atoms: C8_14  and  C9_15 
ROOT
HETATM    1  N1  UNL     1      41.761  16.255  83.717  1.00  0.00    -0.313 N 
ATOM      2  H1  UNL     1      41.064  16.985  83.861  1.00  0.00     0.170 HD
HETATM    3  C3  UNL     1      41.387  15.046  83.944  1.00  0.00     0.110 C 
ENDROOT
BRANCH   3   4
HETATM    4  N2  UNL     1      42.332  14.022  83.749  1.00  0.00    -0.371 N 
ATOM      5  H2  UNL     1      42.740  13.632  84.599  1.00  0.00     0.161 HD
BRANCH   4   6
HETATM    6  C4  UNL     1      42.796  13.456  82.534  1.00  0.00     0.083 C 
HETATM    7  C5  UNL     1      41.737  12.890  81.618  1.00  0.00     0.025 C 
HETATM    8  C6  UNL     1      42.346  11.920  80.617  1.00  0.00     0.006 C 
HETATM    9  C7  UNL     1      43.676  12.311  80.113  1.00  0.00    -0.014 C 
HETATM   10  C12 UNL     1      44.660  12.517  81.272  1.00  0.00     0.006 C 
HETATM   11  C13 UNL     1      43.914  12.478  82.602  1.00  0.00     0.025 C 
BRANCH   9  12
HETATM   12  C8  UNL     1      43.777  13.390  79.112  1.00  0.00     0.008 C 
BRANCH  12  13
HETATM   13  C9  UNL     1      43.573  14.799  79.567  1.00  0.00    -0.022 C 
HETATM   14  C10 UNL     1      44.864  15.595  79.638  1.00  0.00     0.009 C 
HETATM   15  C11 UNL     1      42.489  15.565  78.915  1.00  0.00     0.009 C 
ENDBRANCH  12  13
ENDBRANCH   9  12
ENDBRANCH   4   6
ENDBRANCH   3   4
BRANCH   3  16
HETATM   16  C14 UNL     1      40.028  14.824  84.420  1.00  0.00    -0.011 A 
HETATM   17  C15 UNL     1      38.944  15.596  84.584  1.00  0.00    -0.065 A 
HETATM   18  C16 UNL     1      38.583  17.009  84.375  1.00  0.00     0.040 C 
HETATM   19  C22 UNL     1      38.177  14.482  85.113  1.00  0.00     0.020 A 
HETATM   20  C17 UNL     1      37.548  17.480  85.363  1.00  0.00    -0.010 C 
HETATM   21  C18 UNL     1      37.957  17.194  86.792  1.00  0.00     0.009 C 
HETATM   22  C20 UNL     1      36.409  16.532  85.528  1.00  0.00     0.009 C 
HETATM   23  C19 UNL     1      37.045  15.984  86.761  1.00  0.00    -0.013 C 
HETATM   24  C21 UNL     1      37.818  14.715  86.563  1.00  0.00     0.014 C 
HETATM   25  C23 UNL     1      39.354  13.588  84.908  1.00  0.00     0.051 A 
ENDBRANCH   3  16
BRANCH   1  26
HETATM   26  C2  UNL     1      43.032  16.673  83.289  1.00  0.00     0.215 C 
HETATM   27  S1  UNL     1      43.129  17.731  82.050  1.00  0.00    -0.033 SA
BRANCH  26  28
HETATM   28  O1  UNL     1      44.221  16.244  83.857  1.00  0.00    -0.332 OA
HETATM   29  C1  UNL     1      45.307  15.963  82.979  1.00  0.00     0.212 C 
ENDBRANCH  26  28
ENDBRANCH   1  26
TORSDOF 7
ENDMDL
MODEL 3
REMARK VINA RESULT: -7.945368110      1.579      3.086
REMARK  7 active torsions:
REMARK  status: ('A' for Active; 'I' for Inactive)
REMARK    1  A    between atoms: O1_2  and  C2_3 
REMARK    2  A    between atoms: C2_3  and  N1_5 
REMARK    3  A    between atoms: C3_7  and  N2_8 
REMARK    4  A    between atoms: C3_7  and  C14_20 
REMARK    5  A    between atoms: N2_8  and  C4_10 
REMARK    6  A    between atoms: C7_13  and  C8_14 
REMARK    7  A    between atoms: C8_14  and  C9_15 
ROOT
HETATM    1  N1  UNL     1      40.782  13.301  82.930  1.00  0.00    -0.313 N 
ATOM      2  H1  UNL     1      39.928  12.800  82.688  1.00  0.00     0.170 HD
HETATM    3  C3  UNL     1      40.700  14.151  83.892  1.00  0.00     0.110 C 
ENDROOT
BRANCH   3   4
HETATM    4  N2  UNL     1      41.868  14.853  84.245  1.00  0.00    -0.371 N 
ATOM      5  H2  UNL     1      42.159  14.761  85.218  1.00  0.00     0.161 HD
BRANCH   4   6
HETATM    6  C4  UNL     1      42.696  15.670  83.434  1.00  0.00     0.083 C 
HETATM    7  C5  UNL     1      44.178  15.599  83.714  1.00  0.00     0.025 C 
HETATM    8  C6  UNL     1      44.897  16.814  83.149  1.00  0.00     0.006 C 
HETATM    9  C7  UNL     1      44.376  17.289  81.853  1.00  0.00    -0.014 C 
HETATM   10  C12 UNL     1      42.876  17.595  81.947  1.00  0.00     0.006 C 
HETATM   11  C13 UNL     1      42.326  17.103  83.282  1.00  0.00     0.025 C 
BRANCH   9  12
HETATM   12  C8  UNL     1      44.706  16.538  80.627  1.00  0.00     0.008 C 
BRANCH  12  13
HETATM   13  C9  UNL     1      45.441  15.244  80.766  1.00  0.00    -0.022 C 
HETATM   14  C10 UNL     1      45.351  14.372  79.526  1.00  0.00     0.009 C 
HETATM   15  C11 UNL     1      46.821  15.309  81.295  1.00  0.00     0.009 C 
ENDBRANCH  12  13
ENDBRANCH   9  12
ENDBRANCH   4   6
ENDBRANCH   3   4
BRANCH   3  16
HETATM   16  C14 UNL     1      39.402  14.353  84.523  1.00  0.00    -0.011 A 
HETATM   17  C15 UNL     1      38.580  15.401  84.682  1.00  0.00    -0.065 A 
HETATM   18  C16 UNL     1      38.565  16.827  84.315  1.00  0.00     0.040 C 
HETATM   19  C22 UNL     1      37.631  14.596  85.431  1.00  0.00     0.020 A 
HETATM   20  C17 UNL     1      37.820  17.662  85.323  1.00  0.00    -0.010 C 
HETATM   21  C18 UNL     1      38.325  17.434  86.732  1.00  0.00     0.009 C 
HETATM   22  C20 UNL     1      36.509  17.078  85.726  1.00  0.00     0.009 C 
HETATM   23  C19 UNL     1      37.140  16.517  86.957  1.00  0.00    -0.013 C 
HETATM   24  C21 UNL     1      37.534  15.073  86.863  1.00  0.00     0.014 C 
HETATM   25  C23 UNL     1      38.506  13.403  85.239  1.00  0.00     0.051 A 
ENDBRANCH   3  16
BRANCH   1  26
HETATM   26  C2  UNL     1      41.928  12.992  82.179  1.00  0.00     0.215 C 
HETATM   27  S1  UNL     1      41.893  13.238  80.566  1.00  0.00    -0.033 SA
BRANCH  26  28
HETATM   28  O1  UNL     1      43.099  12.489  82.723  1.00  0.00    -0.332 OA
HETATM   29  C1  UNL     1      44.135  12.108  81.822  1.00  0.00     0.212 C 
ENDBRANCH  26  28
ENDBRANCH   1  26
TORSDOF 7
ENDMDL
MODEL 4
REMARK VINA RESULT: -7.724104807      1.198      1.928
REMARK  7 active torsions:
REMARK  status: ('A' for Active; 'I' for Inactive)
REMARK    1  A    between atoms: O1_2  and  C2_3 
REMARK    2  A    between atoms: C2_3  and  N1_5 
REMARK    3  A    between atoms: C3_7  and  N2_8 
REMARK    4  A    between atoms: C3_7  and  C14_20 
REMARK    5  A    between atoms: N2_8  and  C4_10 
REMARK    6  A    between atoms: C7_13  and  C8_14 
REMARK    7  A    between atoms: C8_14  and  C9_15 
ROOT
HETATM    1  N1  UNL     1      41.727  16.309  83.602  1.00  0.00    -0.313 N 
ATOM      2  H1  UNL     1      40.986  17.005  83.680  1.00  0.00     0.170 HD
HETATM    3  C3  UNL     1      41.419  15.101  83.914  1.00  0.00     0.110 C 
ENDROOT
BRANCH   3   4
HETATM    4  N2  UNL     1      42.426  14.122  83.811  1.00  0.00    -0.371 N 
ATOM      5  H2  UNL     1      42.711  13.692  84.691  1.00  0.00     0.161 HD
BRANCH   4   6
HETATM    6  C4  UNL     1      43.098  13.652  82.654  1.00  0.00     0.083 C 
HETATM    7  C5  UNL     1      42.570  12.372  82.054  1.00  0.00     0.025 C 
HETATM    8  C6  UNL     1      43.609  11.726  81.150  1.00  0.00     0.006 C 
HETATM    9  C7  UNL     1      44.414  12.677  80.361  1.00  0.00    -0.014 C 
HETATM   10  C12 UNL     1      45.108  13.695  81.275  1.00  0.00     0.006 C 
HETATM   11  C13 UNL     1      44.582  13.561  82.700  1.00  0.00     0.025 C 
BRANCH   9  12
HETATM   12  C8  UNL     1      43.808  13.325  79.181  1.00  0.00     0.008 C 
BRANCH  12  13
HETATM   13  C9  UNL     1      42.636  14.228  79.394  1.00  0.00    -0.022 C 
HETATM   14  C10 UNL     1      42.755  15.544  78.646  1.00  0.00     0.009 C 
HETATM   15  C11 UNL     1      41.292  13.629  79.244  1.00  0.00     0.009 C 
ENDBRANCH  12  13
ENDBRANCH   9  12
ENDBRANCH   4   6
ENDBRANCH   3   4
BRANCH   3  16
HETATM   16  C14 UNL     1      40.065  14.834  84.383  1.00  0.00    -0.011 A 
HETATM   17  C15 UNL     1      38.964  15.577  84.566  1.00  0.00    -0.065 A 
HETATM   18  C16 UNL     1      38.570  16.985  84.394  1.00  0.00     0.040 C 
HETATM   19  C22 UNL     1      38.223  14.431  85.065  1.00  0.00     0.020 A 
HETATM   20  C17 UNL     1      37.524  17.406  85.393  1.00  0.00    -0.010 C 
HETATM   21  C18 UNL     1      37.939  17.092  86.814  1.00  0.00     0.009 C 
HETATM   22  C20 UNL     1      36.407  16.428  85.532  1.00  0.00     0.009 C 
HETATM   23  C19 UNL     1      37.056  15.863  86.751  1.00  0.00    -0.013 C 
HETATM   24  C21 UNL     1      37.859  14.617  86.520  1.00  0.00     0.014 C 
HETATM   25  C23 UNL     1      39.420  13.571  84.837  1.00  0.00     0.051 A 
ENDBRANCH   3  16
BRANCH   1  26
HETATM   26  C2  UNL     1      42.980  16.769  83.165  1.00  0.00     0.215 C 
HETATM   27  S1  UNL     1      44.165  16.973  84.270  1.00  0.00    -0.033 SA
BRANCH  26  28
HETATM   28  O1  UNL     1      43.281  17.064  81.845  1.00  0.00    -0.332 OA
HETATM   29  C1  UNL     1      44.654  17.213  81.498  1.00  0.00     0.212 C 
ENDBRANCH  26  28
ENDBRANCH   1  26
TORSDOF 7
ENDMDL
MODEL 5
REMARK VINA RESULT: -7.720321837      1.132      1.990
REMARK  7 active torsions:
REMARK  status: ('A' for Active; 'I' for Inactive)
REMARK    1  A    between atoms: O1_2  and  C2_3 
REMARK    2  A    between atoms: C2_3  and  N1_5 
REMARK    3  A    between atoms: C3_7  and  N2_8 
REMARK    4  A    between atoms: C3_7  and  C14_20 
REMARK    5  A    between atoms: N2_8  and  C4_10 
REMARK    6  A    between atoms: C7_13  and  C8_14 
REMARK    7  A    between atoms: C8_14  and  C9_15 
ROOT
HETATM    1  N1  UNL     1      41.820  16.518  83.671  1.00  0.00    -0.313 N 
ATOM      2  H1  UNL     1      41.042  17.174  83.729  1.00  0.00     0.170 HD
HETATM    3  C3  UNL     1      41.562  15.291  83.954  1.00  0.00     0.110 C 
ENDROOT
BRANCH   3   4
HETATM    4  N2  UNL     1      42.621  14.366  83.877  1.00  0.00    -0.371 N 
ATOM      5  H2  UNL     1      42.926  13.972  84.768  1.00  0.00     0.161 HD
BRANCH   4   6
HETATM    6  C4  UNL     1      43.322  13.907  82.734  1.00  0.00     0.083 C 
HETATM    7  C5  UNL     1      42.968  12.522  82.249  1.00  0.00     0.025 C 
HETATM    8  C6  UNL     1      44.064  11.961  81.357  1.00  0.00     0.006 C 
HETATM    9  C7  UNL     1      44.702  12.952  80.469  1.00  0.00    -0.014 C 
HETATM   10  C12 UNL     1      45.268  14.125  81.279  1.00  0.00     0.006 C 
HETATM   11  C13 UNL     1      44.805  14.030  82.729  1.00  0.00     0.025 C 
BRANCH   9  12
HETATM   12  C8  UNL     1      43.979  13.413  79.270  1.00  0.00     0.008 C 
BRANCH  12  13
HETATM   13  C9  UNL     1      42.713  14.185  79.460  1.00  0.00    -0.022 C 
HETATM   14  C10 UNL     1      42.683  15.483  78.672  1.00  0.00     0.009 C 
HETATM   15  C11 UNL     1      41.444  13.436  79.336  1.00  0.00     0.009 C 
ENDBRANCH  12  13
ENDBRANCH   9  12
ENDBRANCH   4   6
ENDBRANCH   3   4
BRANCH   3  16
HETATM   16  C14 UNL     1      40.208  14.949  84.368  1.00  0.00    -0.011 A 
HETATM   17  C15 UNL     1      39.068  15.636  84.537  1.00  0.00    -0.065 A 
HETATM   18  C16 UNL     1      38.616  17.030  84.395  1.00  0.00     0.040 C 
HETATM   19  C22 UNL     1      38.365  14.442  84.974  1.00  0.00     0.020 A 
HETATM   20  C17 UNL     1      37.520  17.371  85.370  1.00  0.00    -0.010 C 
HETATM   21  C18 UNL     1      37.903  17.030  86.795  1.00  0.00     0.009 C 
HETATM   22  C20 UNL     1      36.445  16.340  85.441  1.00  0.00     0.009 C 
HETATM   23  C19 UNL     1      37.078  15.765  86.663  1.00  0.00    -0.013 C 
HETATM   24  C21 UNL     1      37.945  14.565  86.421  1.00  0.00     0.014 C 
HETATM   25  C23 UNL     1      39.606  13.644  84.760  1.00  0.00     0.051 A 
ENDBRANCH   3  16
BRANCH   1  26
HETATM   26  C2  UNL     1      43.064  17.048  83.288  1.00  0.00     0.215 C 
HETATM   27  S1  UNL     1      43.233  17.620  81.769  1.00  0.00    -0.033 SA
BRANCH  26  28
HETATM   28  O1  UNL     1      44.167  17.118  84.123  1.00  0.00    -0.332 OA
HETATM   29  C1  UNL     1      43.941  17.459  85.488  1.00  0.00     0.212 C 
ENDBRANCH  26  28
ENDBRANCH   1  26
TORSDOF 7
ENDMDL
