MODEL 1
REMARK VINA RESULT: -4.524438964      0.000      0.000
REMARK  5 active torsions:
REMARK  status: ('A' for Active; 'I' for Inactive)
REMARK    1  A    between atoms: C7_9  and  C8_10 
REMARK    2  A    between atoms: C11_13  and  C12_14 
REMARK    3  A    between atoms: C12_14  and  N2_15 
REMARK    4  A    between atoms: N2_15  and  N3_17 
REMARK    5  A    between atoms: N3_17  and  N4_18 
ROOT
HETATM    1  C1  UNL     1      36.998  14.744  87.439  1.00  0.00     0.016 C 
HETATM    2  C2  UNL     1      37.212  15.643  86.516  1.00  0.00    -0.068 C 
HETATM    3  C3  UNL     1      36.968  15.315  85.090  1.00  0.00     0.153 C 
HETATM    4  N1  UNL     1      38.162  15.643  84.351  1.00  0.00    -0.389 N 
ATOM      5  H1  UNL     1      38.253  15.352  83.378  1.00  0.00     0.159 HD
HETATM    6  C4  UNL     1      39.209  16.369  84.975  1.00  0.00     0.008 C 
HETATM    7  C5  UNL     1      40.437  16.171  84.556  1.00  0.00    -0.056 C 
HETATM    8  C6  UNL     1      40.787  15.239  83.477  1.00  0.00     0.041 C 
HETATM    9  C7  UNL     1      42.102  14.526  83.767  1.00  0.00    -0.001 C 
HETATM   10  C15 UNL     1      43.227  15.378  84.170  1.00  0.00     0.006 C 
HETATM   11  C16 UNL     1      44.361  15.573  83.228  1.00  0.00     0.013 C 
HETATM   12  C17 UNL     1      44.219  16.947  82.621  1.00  0.00     0.079 C 
HETATM   13  C18 UNL     1      42.973  17.473  83.235  1.00  0.00     0.136 C 
HETATM   14  O1  UNL     1      42.229  18.284  82.753  1.00  0.00    -0.297 OA
HETATM   15  C19 UNL     1      42.849  16.795  84.545  1.00  0.00     0.024 C 
HETATM   16  C20 UNL     1      43.902  17.352  85.495  1.00  0.00     0.024 C 
HETATM   17  C21 UNL     1      41.530  16.931  85.198  1.00  0.00     0.053 C 
HETATM   18  C22 UNL     1      38.973  17.333  86.076  1.00  0.00     0.065 C 
HETATM   19  C23 UNL     1      37.703  17.014  86.835  1.00  0.00     0.017 C 
HETATM   20  C24 UNL     1      36.640  18.022  86.504  1.00  0.00     0.015 C 
ENDROOT
BRANCH   9  21
HETATM   21  C8  UNL     1      42.359  13.428  82.787  1.00  0.00    -0.010 C 
HETATM   22  C9  UNL     1      43.661  13.482  82.061  1.00  0.00     0.005 C 
HETATM   23  C10 UNL     1      43.988  12.054  81.599  1.00  0.00     0.007 C 
HETATM   24  C11 UNL     1      42.732  11.405  81.069  1.00  0.00     0.006 C 
HETATM   25  C13 UNL     1      41.789  12.468  80.566  1.00  0.00     0.007 C 
HETATM   26  C14 UNL     1      41.267  13.293  81.741  1.00  0.00     0.005 C 
BRANCH  24  27
HETATM   27  C12 UNL     1      43.104  10.508  79.887  1.00  0.00     0.160 C 
BRANCH  27  28
HETATM   28  N2  UNL     1      42.764  11.150  78.641  1.00  0.00    -0.252 N 
ATOM     29  H2  UNL     1      42.179  10.678  77.951  1.00  0.00     0.196 HD
BRANCH  28  30
HETATM   30  N3  UNL     1      43.199  12.281  78.432  1.00  0.00    -0.249 NA
BRANCH  30  31
HETATM   31  N4  UNL     1      43.666  13.410  78.308  1.00  0.00    -0.261 N 
ATOM     32  H42 UNL     1      44.495  12.816  78.305  1.00  0.00     0.193 HD
ATOM     33  H41 UNL     1      43.983  14.374  78.207  1.00  0.00     0.193 HD
ENDBRANCH  30  31
ENDBRANCH  28  30
ENDBRANCH  27  28
ENDBRANCH  24  27
ENDBRANCH   9  21
TORSDOF 5
ENDMDL
MODEL 2
REMARK VINA RESULT: -3.421220921      2.820      4.577
REMARK  5 active torsions:
REMARK  status: ('A' for Active; 'I' for Inactive)
REMARK    1  A    between atoms: C7_9  and  C8_10 
REMARK    2  A    between atoms: C11_13  and  C12_14 
REMARK    3  A    between atoms: C12_14  and  N2_15 
REMARK    4  A    between atoms: N2_15  and  N3_17 
REMARK    5  A    between atoms: N3_17  and  N4_18 
ROOT
HETATM    1  C1  UNL     1      35.662  18.566  86.214  1.00  0.00     0.016 C 
HETATM    2  C2  UNL     1      36.404  17.762  86.929  1.00  0.00    -0.068 C 
HETATM    3  C3  UNL     1      37.758  18.189  87.359  1.00  0.00     0.153 C 
HETATM    4  N1  UNL     1      38.690  17.163  86.964  1.00  0.00    -0.389 N 
ATOM      5  H1  UNL     1      39.693  17.333  87.034  1.00  0.00     0.159 HD
HETATM    6  C4  UNL     1      38.215  15.917  86.478  1.00  0.00     0.008 C 
HETATM    7  C5  UNL     1      38.962  15.258  85.624  1.00  0.00    -0.056 C 
HETATM    8  C6  UNL     1      40.263  15.738  85.142  1.00  0.00     0.041 C 
HETATM    9  C7  UNL     1      40.468  15.399  83.671  1.00  0.00    -0.001 C 
HETATM   10  C15 UNL     1      40.194  14.011  83.282  1.00  0.00     0.006 C 
HETATM   11  C16 UNL     1      41.331  13.126  82.911  1.00  0.00     0.013 C 
HETATM   12  C17 UNL     1      41.585  12.198  84.073  1.00  0.00     0.079 C 
HETATM   13  C18 UNL     1      40.582  12.621  85.084  1.00  0.00     0.136 C 
HETATM   14  O1  UNL     1      40.683  12.512  86.276  1.00  0.00    -0.297 OA
HETATM   15  C19 UNL     1      39.452  13.194  84.318  1.00  0.00     0.024 C 
HETATM   16  C20 UNL     1      38.705  12.067  83.616  1.00  0.00     0.024 C 
HETATM   17  C21 UNL     1      38.474  13.957  85.122  1.00  0.00     0.053 C 
HETATM   18  C22 UNL     1      36.915  15.336  86.893  1.00  0.00     0.065 C 
HETATM   19  C23 UNL     1      35.943  16.406  87.341  1.00  0.00     0.017 C 
HETATM   20  C24 UNL     1      35.780  16.359  88.834  1.00  0.00     0.015 C 
ENDROOT
BRANCH   9  21
HETATM   21  C8  UNL     1      41.685  16.065  83.118  1.00  0.00    -0.010 C 
HETATM   22  C9  UNL     1      42.508  15.256  82.173  1.00  0.00     0.005 C 
HETATM   23  C10 UNL     1      43.303  16.238  81.299  1.00  0.00     0.007 C 
HETATM   24  C11 UNL     1      43.834  17.354  82.167  1.00  0.00     0.006 C 
HETATM   25  C13 UNL     1      43.994  16.859  83.582  1.00  0.00     0.007 C 
HETATM   26  C14 UNL     1      42.621  16.588  84.194  1.00  0.00     0.005 C 
BRANCH  24  27
HETATM   27  C12 UNL     1      45.215  17.762  81.652  1.00  0.00     0.160 C 
BRANCH  27  28
HETATM   28  N2  UNL     1      45.841  16.662  80.961  1.00  0.00    -0.252 N 
ATOM     29  H2  UNL     1      45.906  16.653  79.942  1.00  0.00     0.196 HD
BRANCH  28  30
HETATM   30  N3  UNL     1      46.293  15.736  81.631  1.00  0.00    -0.249 NA
BRANCH  30  31
HETATM   31  N4  UNL     1      46.662  14.799  82.333  1.00  0.00    -0.261 N 
ATOM     32  H42 UNL     1      46.413  14.345  81.454  1.00  0.00     0.193 HD
ATOM     33  H41 UNL     1      46.981  14.070  82.971  1.00  0.00     0.193 HD
ENDBRANCH  30  31
ENDBRANCH  28  30
ENDBRANCH  27  28
ENDBRANCH  24  27
ENDBRANCH   9  21
TORSDOF 5
ENDMDL
MODEL 3
REMARK VINA RESULT: -2.832161081      4.969     11.044
REMARK  5 active torsions:
REMARK  status: ('A' for Active; 'I' for Inactive)
REMARK    1  A    between atoms: C7_9  and  C8_10 
REMARK    2  A    between atoms: C11_13  and  C12_14 
REMARK    3  A    between atoms: C12_14  and  N2_15 
REMARK    4  A    between atoms: N2_15  and  N3_17 
REMARK    5  A    between atoms: N3_17  and  N4_18 
ROOT
HETATM    1  C1  UNL     1      41.435  16.264  85.239  1.00  0.00     0.016 C 
HETATM    2  C2  UNL     1      40.259  16.016  84.725  1.00  0.00    -0.068 C 
HETATM    3  C3  UNL     1      39.524  17.086  84.006  1.00  0.00     0.153 C 
HETATM    4  N1  UNL     1      38.205  17.177  84.580  1.00  0.00    -0.389 N 
ATOM      5  H1  UNL     1      37.593  17.953  84.328  1.00  0.00     0.159 HD
HETATM    6  C4  UNL     1      37.756  16.190  85.496  1.00  0.00     0.008 C 
HETATM    7  C5  UNL     1      36.881  16.542  86.409  1.00  0.00    -0.056 C 
HETATM    8  C6  UNL     1      36.341  17.901  86.536  1.00  0.00     0.041 C 
HETATM    9  C7  UNL     1      36.154  18.287  87.998  1.00  0.00    -0.001 C 
HETATM   10  C15 UNL     1      35.451  17.314  88.841  1.00  0.00     0.006 C 
HETATM   11  C16 UNL     1      34.079  17.630  89.321  1.00  0.00     0.013 C 
HETATM   12  C17 UNL     1      33.109  16.826  88.491  1.00  0.00     0.079 C 
HETATM   13  C18 UNL     1      33.985  16.094  87.541  1.00  0.00     0.136 C 
HETATM   14  O1  UNL     1      33.682  15.712  86.443  1.00  0.00    -0.297 OA
HETATM   15  C19 UNL     1      35.288  15.940  88.227  1.00  0.00     0.024 C 
HETATM   16  C20 UNL     1      35.144  14.913  89.344  1.00  0.00     0.024 C 
HETATM   17  C21 UNL     1      36.406  15.514  87.359  1.00  0.00     0.053 C 
HETATM   18  C22 UNL     1      38.236  14.787  85.463  1.00  0.00     0.065 C 
HETATM   19  C23 UNL     1      39.606  14.681  84.831  1.00  0.00     0.017 C 
HETATM   20  C24 UNL     1      39.496  14.062  83.466  1.00  0.00     0.015 C 
ENDROOT
BRANCH   9  21
HETATM   21  C8  UNL     1      35.810  19.733  88.144  1.00  0.00    -0.010 C 
HETATM   22  C9  UNL     1      35.380  20.176  89.502  1.00  0.00     0.005 C 
HETATM   23  C10 UNL     1      35.648  21.685  89.600  1.00  0.00     0.007 C 
HETATM   24  C11 UNL     1      35.234  22.346  88.307  1.00  0.00     0.006 C 
HETATM   25  C13 UNL     1      34.160  21.523  87.642  1.00  0.00     0.007 C 
HETATM   26  C14 UNL     1      34.747  20.197  87.163  1.00  0.00     0.005 C 
BRANCH  24  27
HETATM   27  C12 UNL     1      34.645  23.721  88.625  1.00  0.00     0.160 C 
BRANCH  27  28
HETATM   28  N2  UNL     1      34.165  23.762  89.985  1.00  0.00    -0.252 N 
ATOM     29  H2  UNL     1      34.749  23.436  90.756  1.00  0.00     0.196 HD
BRANCH  28  30
HETATM   30  N3  UNL     1      33.035  24.201  90.190  1.00  0.00    -0.249 NA
BRANCH  30  31
HETATM   31  N4  UNL     1      31.875  24.564  90.359  1.00  0.00    -0.261 N 
ATOM     32  H42 UNL     1      32.153  25.068  89.517  1.00  0.00     0.193 HD
ATOM     33  H41 UNL     1      30.909  24.822  90.560  1.00  0.00     0.193 HD
ENDBRANCH  30  31
ENDBRANCH  28  30
ENDBRANCH  27  28
ENDBRANCH  24  27
ENDBRANCH   9  21
TORSDOF 5
ENDMDL
MODEL 4
REMARK VINA RESULT: -2.776534466      2.166      7.543
REMARK  5 active torsions:
REMARK  status: ('A' for Active; 'I' for Inactive)
REMARK    1  A    between atoms: C7_9  and  C8_10 
REMARK    2  A    between atoms: C11_13  and  C12_14 
REMARK    3  A    between atoms: C12_14  and  N2_15 
REMARK    4  A    between atoms: N2_15  and  N3_17 
REMARK    5  A    between atoms: N3_17  and  N4_18 
ROOT
HETATM    1  C1  UNL     1      42.012  11.612  78.660  1.00  0.00     0.016 C 
HETATM    2  C2  UNL     1      42.880  11.697  79.633  1.00  0.00    -0.068 C 
HETATM    3  C3  UNL     1      42.582  11.078  80.948  1.00  0.00     0.153 C 
HETATM    4  N1  UNL     1      42.767  12.086  81.962  1.00  0.00    -0.389 N 
ATOM      5  H1  UNL     1      42.468  11.904  82.919  1.00  0.00     0.159 HD
HETATM    6  C4  UNL     1      43.365  13.329  81.630  1.00  0.00     0.008 C 
HETATM    7  C5  UNL     1      43.024  14.388  82.328  1.00  0.00    -0.056 C 
HETATM    8  C6  UNL     1      42.057  14.357  83.432  1.00  0.00     0.041 C 
HETATM    9  C7  UNL     1      41.194  15.613  83.447  1.00  0.00    -0.001 C 
HETATM   10  C15 UNL     1      41.908  16.891  83.351  1.00  0.00     0.006 C 
HETATM   11  C16 UNL     1      41.968  17.777  84.544  1.00  0.00     0.013 C 
HETATM   12  C17 UNL     1      43.349  17.650  85.139  1.00  0.00     0.079 C 
HETATM   13  C18 UNL     1      44.018  16.658  84.258  1.00  0.00     0.136 C 
HETATM   14  O1  UNL     1      44.910  15.917  84.570  1.00  0.00    -0.297 OA
HETATM   15  C19 UNL     1      43.359  16.780  82.937  1.00  0.00     0.024 C 
HETATM   16  C20 UNL     1      43.789  18.089  82.286  1.00  0.00     0.024 C 
HETATM   17  C21 UNL     1      43.650  15.683  81.990  1.00  0.00     0.053 C 
HETATM   18  C22 UNL     1      44.351  13.479  80.533  1.00  0.00     0.065 C 
HETATM   19  C23 UNL     1      44.183  12.404  79.482  1.00  0.00     0.017 C 
HETATM   20  C24 UNL     1      45.309  11.414  79.575  1.00  0.00     0.015 C 
ENDROOT
BRANCH   9  21
HETATM   21  C8  UNL     1      40.073  15.497  84.427  1.00  0.00    -0.010 C 
HETATM   22  C9  UNL     1      39.233  14.268  84.327  1.00  0.00     0.005 C 
HETATM   23  C10 UNL     1      38.578  14.046  85.698  1.00  0.00     0.007 C 
HETATM   24  C11 UNL     1      38.102  15.373  86.240  1.00  0.00     0.006 C 
HETATM   25  C13 UNL     1      37.823  16.314  85.095  1.00  0.00     0.007 C 
HETATM   26  C14 UNL     1      39.131  16.688  84.402  1.00  0.00     0.005 C 
BRANCH  24  27
HETATM   27  C12 UNL     1      36.793  15.153  86.999  1.00  0.00     0.160 C 
BRANCH  27  28
HETATM   28  N2  UNL     1      35.862  16.218  86.718  1.00  0.00    -0.252 N 
ATOM     29  H2  UNL     1      35.779  16.607  85.779  1.00  0.00     0.196 HD
BRANCH  28  30
HETATM   30  N3  UNL     1      35.171  16.645  87.642  1.00  0.00    -0.249 NA
BRANCH  30  31
HETATM   31  N4  UNL     1      34.468  17.145  88.515  1.00  0.00    -0.261 N 
ATOM     32  H42 UNL     1      33.793  16.888  87.794  1.00  0.00     0.193 HD
ATOM     33  H41 UNL     1      33.945  17.572  89.279  1.00  0.00     0.193 HD
ENDBRANCH  30  31
ENDBRANCH  28  30
ENDBRANCH  27  28
ENDBRANCH  24  27
ENDBRANCH   9  21
TORSDOF 5
ENDMDL
MODEL 5
REMARK VINA RESULT: -1.105133628      3.018      8.249
REMARK  5 active torsions:
REMARK  status: ('A' for Active; 'I' for Inactive)
REMARK    1  A    between atoms: C7_9  and  C8_10 
REMARK    2  A    between atoms: C11_13  and  C12_14 
REMARK    3  A    between atoms: C12_14  and  N2_15 
REMARK    4  A    between atoms: N2_15  and  N3_17 
REMARK    5  A    between atoms: N3_17  and  N4_18 
ROOT
HETATM    1  C1  UNL     1      46.047  17.353  82.909  1.00  0.00     0.016 C 
HETATM    2  C2  UNL     1      45.231  16.679  82.143  1.00  0.00    -0.068 C 
HETATM    3  C3  UNL     1      44.063  17.356  81.527  1.00  0.00     0.153 C 
HETATM    4  N1  UNL     1      42.888  16.585  81.848  1.00  0.00    -0.389 N 
ATOM      5  H1  UNL     1      41.962  16.962  81.645  1.00  0.00     0.159 HD
HETATM    6  C4  UNL     1      43.017  15.304  82.444  1.00  0.00     0.008 C 
HETATM    7  C5  UNL     1      42.050  14.883  83.227  1.00  0.00    -0.056 C 
HETATM    8  C6  UNL     1      40.843  15.665  83.520  1.00  0.00     0.041 C 
HETATM    9  C7  UNL     1      40.404  15.483  84.967  1.00  0.00    -0.001 C 
HETATM   10  C15 UNL     1      40.316  14.100  85.449  1.00  0.00     0.006 C 
HETATM   11  C16 UNL     1      38.977  13.509  85.714  1.00  0.00     0.013 C 
HETATM   12  C17 UNL     1      38.655  12.578  84.571  1.00  0.00     0.079 C 
HETATM   13  C18 UNL     1      39.835  12.702  83.677  1.00  0.00     0.136 C 
HETATM   14  O1  UNL     1      39.847  12.533  82.487  1.00  0.00    -0.297 OA
HETATM   15  C19 UNL     1      40.970  13.071  84.552  1.00  0.00     0.024 C 
HETATM   16  C20 UNL     1      41.364  11.862  85.391  1.00  0.00     0.024 C 
HETATM   17  C21 UNL     1      42.177  13.546  83.844  1.00  0.00     0.053 C 
HETATM   18  C22 UNL     1      44.193  14.429  82.222  1.00  0.00     0.065 C 
HETATM   19  C23 UNL     1      45.422  15.230  81.852  1.00  0.00     0.017 C 
HETATM   20  C24 UNL     1      45.738  15.043  80.396  1.00  0.00     0.015 C 
ENDROOT
BRANCH   9  21
HETATM   21  C8  UNL     1      39.311  16.433  85.333  1.00  0.00    -0.010 C 
HETATM   22  C9  UNL     1      38.131  15.845  86.033  1.00  0.00     0.005 C 
HETATM   23  C10 UNL     1      37.453  16.977  86.819  1.00  0.00     0.007 C 
HETATM   24  C11 UNL     1      37.415  18.220  85.964  1.00  0.00     0.006 C 
HETATM   25  C13 UNL     1      37.428  17.830  84.507  1.00  0.00     0.007 C 
HETATM   26  C14 UNL     1      38.781  17.221  84.147  1.00  0.00     0.005 C 
BRANCH  24  27
HETATM   27  C12 UNL     1      36.108  18.967  86.239  1.00  0.00     0.160 C 
BRANCH  27  28
HETATM   28  N2  UNL     1      35.957  19.212  87.652  1.00  0.00    -0.252 N 
ATOM     29  H2  UNL     1      36.567  19.870  88.138  1.00  0.00     0.196 HD
BRANCH  28  30
HETATM   30  N3  UNL     1      35.071  18.608  88.255  1.00  0.00    -0.249 NA
BRANCH  30  31
HETATM   31  N4  UNL     1      34.253  17.960  88.900  1.00  0.00    -0.261 N 
ATOM     32  H42 UNL     1      33.894  18.912  88.964  1.00  0.00     0.193 HD
ATOM     33  H41 UNL     1      33.613  17.360  89.421  1.00  0.00     0.193 HD
ENDBRANCH  30  31
ENDBRANCH  28  30
ENDBRANCH  27  28
ENDBRANCH  24  27
ENDBRANCH   9  21
TORSDOF 5
ENDMDL
