MODEL 1
REMARK VINA RESULT: -8.770788342      0.000      0.000
REMARK  4 active torsions:
REMARK  status: ('A' for Active; 'I' for Inactive)
REMARK    1  A    between atoms: C2_2  and  C3_3 
REMARK    2  A    between atoms: C10_10  and  N1_11 
REMARK    3  A    between atoms: N1_11  and  C11_14 
REMARK    4  A    between atoms: N2_17  and  C14_18 
ROOT
HETATM    1  C3  UNL     1      42.877  13.207  80.384  1.00  0.00    -0.044 C 
HETATM    2  C4  UNL     1      41.635  13.087  79.475  1.00  0.00     0.015 C 
HETATM    3  C5  UNL     1      42.986  11.952  81.163  1.00  0.00     0.009 C 
HETATM    4  C6  UNL     1      41.962  11.965  82.273  1.00  0.00     0.002 C 
HETATM    5  C7  UNL     1      42.398  13.096  83.212  1.00  0.00     0.010 C 
HETATM    6  C8  UNL     1      42.292  14.412  82.539  1.00  0.00    -0.030 C 
HETATM    7  C9  UNL     1      40.819  14.858  82.657  1.00  0.00     0.043 C 
HETATM    8  C10 UNL     1      40.666  15.183  84.096  1.00  0.00     0.188 C 
HETATM    9  C20 UNL     1      42.086  15.412  84.619  1.00  0.00     0.043 C 
HETATM   10  C21 UNL     1      42.938  15.502  83.365  1.00  0.00    -0.031 C 
HETATM   11  C22 UNL     1      44.378  15.364  83.639  1.00  0.00     0.010 C 
HETATM   12  C23 UNL     1      45.124  16.470  82.944  1.00  0.00     0.001 C 
HETATM   13  C24 UNL     1      44.111  17.370  82.326  1.00  0.00     0.001 C 
HETATM   14  C25 UNL     1      42.753  16.847  82.738  1.00  0.00     0.010 C 
HETATM   15  C26 UNL     1      42.821  14.483  81.164  1.00  0.00     0.019 C 
ENDROOT
BRANCH   8  16
HETATM   16  N1  UNL     1      39.950  16.381  84.430  1.00  0.00    -0.067 N 
ATOM     17  H12 UNL     1      40.582  17.127  84.721  1.00  0.00     0.278 HD
ATOM     18  H11 UNL     1      39.554  16.826  83.601  1.00  0.00     0.278 HD
BRANCH  16  19
HETATM   19  C11 UNL     1      38.941  16.126  85.426  1.00  0.00     0.189 C 
HETATM   20  C12 UNL     1      37.810  15.230  85.001  1.00  0.00     0.063 C 
HETATM   21  C13 UNL     1      36.907  15.088  86.224  1.00  0.00     0.275 C 
HETATM   22  N2  UNL     1      36.278  16.330  86.485  1.00  0.00     0.097 N 
HETATM   23  C18 UNL     1      37.092  17.508  86.412  1.00  0.00     0.275 C 
HETATM   24  C19 UNL     1      38.545  17.311  86.230  1.00  0.00     0.063 C 
BRANCH  22  25
HETATM   25  C14 UNL     1      35.432  16.318  87.661  1.00  0.00     0.149 C 
HETATM   26  C15 UNL     1      36.030  15.404  88.692  1.00  0.00     0.048 C 
HETATM   27  C16 UNL     1      35.374  17.696  88.246  1.00  0.00     0.048 C 
HETATM   28  C17 UNL     1      34.021  15.864  87.367  1.00  0.00     0.048 C 
ENDBRANCH  22  25
ENDBRANCH  16  19
ENDBRANCH   8  16
BRANCH   1  29
HETATM   29  C2  UNL     1      44.045  13.249  79.429  1.00  0.00     0.004 C 
HETATM   30  C1  UNL     1      45.245  13.975  79.986  1.00  0.00     0.006 C 
ENDBRANCH   1  29
TORSDOF 4
ENDMDL
MODEL 2
REMARK VINA RESULT: -7.590259573      1.374      3.480
REMARK  4 active torsions:
REMARK  status: ('A' for Active; 'I' for Inactive)
REMARK    1  A    between atoms: C2_2  and  C3_3 
REMARK    2  A    between atoms: C10_10  and  N1_11 
REMARK    3  A    between atoms: N1_11  and  C11_14 
REMARK    4  A    between atoms: N2_17  and  C14_18 
ROOT
HETATM    1  C3  UNL     1      45.500  15.363  81.204  1.00  0.00    -0.044 C 
HETATM    2  C4  UNL     1      46.409  15.467  82.448  1.00  0.00     0.015 C 
HETATM    3  C5  UNL     1      44.993  16.721  80.903  1.00  0.00     0.009 C 
HETATM    4  C6  UNL     1      43.899  17.073  81.883  1.00  0.00     0.002 C 
HETATM    5  C7  UNL     1      42.752  16.105  81.573  1.00  0.00     0.010 C 
HETATM    6  C8  UNL     1      43.143  14.708  81.876  1.00  0.00    -0.030 C 
HETATM    7  C9  UNL     1      42.929  14.503  83.391  1.00  0.00     0.043 C 
HETATM    8  C10 UNL     1      41.453  14.499  83.539  1.00  0.00     0.188 C 
HETATM    9  C20 UNL     1      40.901  14.185  82.146  1.00  0.00     0.043 C 
HETATM   10  C21 UNL     1      42.114  13.729  81.355  1.00  0.00    -0.031 C 
HETATM   11  C22 UNL     1      41.880  13.719  79.902  1.00  0.00     0.010 C 
HETATM   12  C23 UNL     1      42.339  12.403  79.334  1.00  0.00     0.001 C 
HETATM   13  C24 UNL     1      42.756  11.546  80.478  1.00  0.00     0.001 C 
HETATM   14  C25 UNL     1      42.453  12.324  81.739  1.00  0.00     0.010 C 
HETATM   15  C26 UNL     1      44.476  14.290  81.406  1.00  0.00     0.019 C 
ENDROOT
BRANCH   8  16
HETATM   16  N1  UNL     1      40.879  13.502  84.398  1.00  0.00    -0.067 N 
ATOM     17  H12 UNL     1      40.499  12.721  83.864  1.00  0.00     0.278 HD
ATOM     18  H11 UNL     1      41.596  13.000  84.922  1.00  0.00     0.278 HD
BRANCH  16  19
HETATM   19  C11 UNL     1      39.889  14.075  85.273  1.00  0.00     0.189 C 
HETATM   20  C12 UNL     1      38.481  13.581  85.085  1.00  0.00     0.063 C 
HETATM   21  C13 UNL     1      37.641  14.302  86.137  1.00  0.00     0.275 C 
HETATM   22  N2  UNL     1      37.565  15.678  85.810  1.00  0.00     0.097 N 
HETATM   23  C18 UNL     1      38.776  16.322  85.392  1.00  0.00     0.275 C 
HETATM   24  C19 UNL     1      40.024  15.539  85.494  1.00  0.00     0.063 C 
BRANCH  22  25
HETATM   25  C14 UNL     1      36.828  16.466  86.776  1.00  0.00     0.149 C 
HETATM   26  C15 UNL     1      35.357  16.328  86.510  1.00  0.00     0.048 C 
HETATM   27  C16 UNL     1      37.097  15.943  88.154  1.00  0.00     0.048 C 
HETATM   28  C17 UNL     1      37.193  17.932  86.741  1.00  0.00     0.048 C 
ENDBRANCH  22  25
ENDBRANCH  16  19
ENDBRANCH   8  16
BRANCH   1  29
HETATM   29  C2  UNL     1      46.431  14.969  80.084  1.00  0.00     0.004 C 
HETATM   30  C1  UNL     1      45.736  14.246  78.956  1.00  0.00     0.006 C 
ENDBRANCH   1  29
TORSDOF 4
ENDMDL
MODEL 3
REMARK VINA RESULT: -6.708587991      1.204      3.446
REMARK  4 active torsions:
REMARK  status: ('A' for Active; 'I' for Inactive)
REMARK    1  A    between atoms: C2_2  and  C3_3 
REMARK    2  A    between atoms: C10_10  and  N1_11 
REMARK    3  A    between atoms: N1_11  and  C11_14 
REMARK    4  A    between atoms: N2_17  and  C14_18 
ROOT
HETATM    1  C3  UNL     1      44.965  15.722  82.887  1.00  0.00    -0.044 C 
HETATM    2  C4  UNL     1      45.592  16.225  84.205  1.00  0.00     0.015 C 
HETATM    3  C5  UNL     1      44.604  16.909  82.079  1.00  0.00     0.009 C 
HETATM    4  C6  UNL     1      43.346  17.529  82.639  1.00  0.00     0.002 C 
HETATM    5  C7  UNL     1      42.243  16.491  82.399  1.00  0.00     0.010 C 
HETATM    6  C8  UNL     1      42.488  15.266  83.195  1.00  0.00    -0.030 C 
HETATM    7  C9  UNL     1      41.947  15.538  84.615  1.00  0.00     0.043 C 
HETATM    8  C10 UNL     1      40.475  15.554  84.431  1.00  0.00     0.188 C 
HETATM    9  C20 UNL     1      40.217  14.811  83.117  1.00  0.00     0.043 C 
HETATM   10  C21 UNL     1      41.546  14.154  82.790  1.00  0.00    -0.031 C 
HETATM   11  C22 UNL     1      41.627  13.687  81.396  1.00  0.00     0.010 C 
HETATM   12  C23 UNL     1      42.128  12.269  81.375  1.00  0.00     0.001 C 
HETATM   13  C24 UNL     1      42.247  11.818  82.790  1.00  0.00     0.001 C 
HETATM   14  C25 UNL     1      41.723  12.945  83.652  1.00  0.00     0.010 C 
HETATM   15  C26 UNL     1      43.868  14.746  83.181  1.00  0.00     0.019 C 
ENDROOT
BRANCH   8  16
HETATM   16  N1  UNL     1      39.680  14.864  85.408  1.00  0.00    -0.067 N 
ATOM     17  H12 UNL     1      39.492  13.902  85.126  1.00  0.00     0.278 HD
ATOM     18  H11 UNL     1      40.210  14.677  86.259  1.00  0.00     0.278 HD
BRANCH  16  19
HETATM   19  C11 UNL     1      38.463  15.579  85.690  1.00  0.00     0.189 C 
HETATM   20  C12 UNL     1      38.608  17.059  85.918  1.00  0.00     0.063 C 
HETATM   21  C13 UNL     1      37.194  17.585  86.158  1.00  0.00     0.275 C 
HETATM   22  N2  UNL     1      36.719  17.094  87.398  1.00  0.00     0.097 N 
HETATM   23  C18 UNL     1      36.955  15.711  87.692  1.00  0.00     0.275 C 
HETATM   24  C19 UNL     1      37.529  14.883  86.612  1.00  0.00     0.063 C 
BRANCH  22  25
HETATM   25  C14 UNL     1      35.360  17.497  87.701  1.00  0.00     0.149 C 
HETATM   26  C15 UNL     1      35.151  18.913  87.249  1.00  0.00     0.048 C 
HETATM   27  C16 UNL     1      34.403  16.627  86.945  1.00  0.00     0.048 C 
HETATM   28  C17 UNL     1      35.032  17.401  89.173  1.00  0.00     0.048 C 
ENDBRANCH  22  25
ENDBRANCH  16  19
ENDBRANCH   8  16
BRANCH   1  29
HETATM   29  C2  UNL     1      46.092  15.015  82.174  1.00  0.00     0.004 C 
HETATM   30  C1  UNL     1      45.935  13.514  82.149  1.00  0.00     0.006 C 
ENDBRANCH   1  29
TORSDOF 4
ENDMDL
MODEL 4
REMARK VINA RESULT: -6.289885812      1.431      2.078
REMARK  4 active torsions:
REMARK  status: ('A' for Active; 'I' for Inactive)
REMARK    1  A    between atoms: C2_2  and  C3_3 
REMARK    2  A    between atoms: C10_10  and  N1_11 
REMARK    3  A    between atoms: N1_11  and  C11_14 
REMARK    4  A    between atoms: N2_17  and  C14_18 
ROOT
HETATM    1  C3  UNL     1      45.012  14.086  80.856  1.00  0.00    -0.044 C 
HETATM    2  C4  UNL     1      44.560  13.528  79.489  1.00  0.00     0.015 C 
HETATM    3  C5  UNL     1      45.537  12.953  81.653  1.00  0.00     0.009 C 
HETATM    4  C6  UNL     1      44.381  12.135  82.178  1.00  0.00     0.002 C 
HETATM    5  C7  UNL     1      43.649  13.055  83.162  1.00  0.00     0.010 C 
HETATM    6  C8  UNL     1      43.049  14.212  82.459  1.00  0.00    -0.030 C 
HETATM    7  C9  UNL     1      41.701  13.733  81.879  1.00  0.00     0.043 C 
HETATM    8  C10 UNL     1      40.844  13.563  83.078  1.00  0.00     0.188 C 
HETATM    9  C20 UNL     1      41.505  14.400  84.176  1.00  0.00     0.043 C 
HETATM   10  C21 UNL     1      42.534  15.241  83.441  1.00  0.00    -0.031 C 
HETATM   11  C22 UNL     1      43.522  15.854  84.343  1.00  0.00     0.010 C 
HETATM   12  C23 UNL     1      43.655  17.316  84.015  1.00  0.00     0.001 C 
HETATM   13  C24 UNL     1      42.643  17.630  82.968  1.00  0.00     0.001 C 
HETATM   14  C25 UNL     1      41.842  16.367  82.742  1.00  0.00     0.010 C 
HETATM   15  C26 UNL     1      43.909  14.890  81.471  1.00  0.00     0.019 C 
ENDROOT
BRANCH   8  16
HETATM   16  N1  UNL     1      39.496  14.050  83.001  1.00  0.00    -0.067 N 
ATOM     17  H12 UNL     1      39.385  14.726  82.245  1.00  0.00     0.278 HD
ATOM     18  H11 UNL     1      38.856  13.331  82.663  1.00  0.00     0.278 HD
BRANCH  16  19
HETATM   19  C11 UNL     1      39.065  14.593  84.263  1.00  0.00     0.189 C 
HETATM   20  C12 UNL     1      38.274  13.663  85.142  1.00  0.00     0.063 C 
HETATM   21  C13 UNL     1      37.970  14.450  86.415  1.00  0.00     0.275 C 
HETATM   22  N2  UNL     1      37.058  15.491  86.113  1.00  0.00     0.097 N 
HETATM   23  C18 UNL     1      37.300  16.252  84.922  1.00  0.00     0.275 C 
HETATM   24  C19 UNL     1      38.562  15.990  84.202  1.00  0.00     0.063 C 
BRANCH  22  25
HETATM   25  C14 UNL     1      36.740  16.333  87.249  1.00  0.00     0.149 C 
HETATM   26  C15 UNL     1      35.255  16.549  87.305  1.00  0.00     0.048 C 
HETATM   27  C16 UNL     1      37.153  15.642  88.512  1.00  0.00     0.048 C 
HETATM   28  C17 UNL     1      37.426  17.679  87.193  1.00  0.00     0.048 C 
ENDBRANCH  22  25
ENDBRANCH  16  19
ENDBRANCH   8  16
BRANCH   1  29
HETATM   29  C2  UNL     1      46.176  14.990  80.533  1.00  0.00     0.004 C 
HETATM   30  C1  UNL     1      46.549  15.913  81.667  1.00  0.00     0.006 C 
ENDBRANCH   1  29
TORSDOF 4
ENDMDL
MODEL 5
REMARK VINA RESULT: -6.278814337      1.024      1.357
REMARK  4 active torsions:
REMARK  status: ('A' for Active; 'I' for Inactive)
REMARK    1  A    between atoms: C2_2  and  C3_3 
REMARK    2  A    between atoms: C10_10  and  N1_11 
REMARK    3  A    between atoms: N1_11  and  C11_14 
REMARK    4  A    between atoms: N2_17  and  C14_18 
ROOT
HETATM    1  C3  UNL     1      42.650  13.077  81.457  1.00  0.00    -0.044 C 
HETATM    2  C4  UNL     1      41.620  12.825  80.334  1.00  0.00     0.015 C 
HETATM    3  C5  UNL     1      42.533  11.967  82.431  1.00  0.00     0.009 C 
HETATM    4  C6  UNL     1      41.303  12.177  83.280  1.00  0.00     0.002 C 
HETATM    5  C7  UNL     1      41.587  13.443  84.098  1.00  0.00     0.010 C 
HETATM    6  C8  UNL     1      41.687  14.630  83.217  1.00  0.00    -0.030 C 
HETATM    7  C9  UNL     1      40.244  15.108  82.946  1.00  0.00     0.043 C 
HETATM    8  C10 UNL     1      39.810  15.669  84.249  1.00  0.00     0.188 C 
HETATM    9  C20 UNL     1      41.100  15.963  85.019  1.00  0.00     0.043 C 
HETATM   10  C21 UNL     1      42.198  15.833  83.978  1.00  0.00    -0.031 C 
HETATM   11  C22 UNL     1      43.540  15.724  84.572  1.00  0.00     0.010 C 
HETATM   12  C23 UNL     1      44.467  16.690  83.885  1.00  0.00     0.001 C 
HETATM   13  C24 UNL     1      43.649  17.488  82.930  1.00  0.00     0.001 C 
HETATM   14  C25 UNL     1      42.212  17.058  83.121  1.00  0.00     0.010 C 
HETATM   15  C26 UNL     1      42.493  14.466  81.993  1.00  0.00     0.019 C 
ENDROOT
BRANCH   8  16
HETATM   16  N1  UNL     1      39.099  16.915  84.228  1.00  0.00    -0.067 N 
ATOM     17  H12 UNL     1      39.690  17.689  84.529  1.00  0.00     0.278 HD
ATOM     18  H11 UNL     1      38.911  17.224  83.274  1.00  0.00     0.278 HD
BRANCH  16  19
HETATM   19  C11 UNL     1      37.890  16.839  85.007  1.00  0.00     0.189 C 
HETATM   20  C12 UNL     1      37.482  18.103  85.712  1.00  0.00     0.063 C 
HETATM   21  C13 UNL     1      36.173  17.778  86.428  1.00  0.00     0.275 C 
HETATM   22  N2  UNL     1      36.432  16.868  87.482  1.00  0.00     0.097 N 
HETATM   23  C18 UNL     1      37.308  15.769  87.201  1.00  0.00     0.275 C 
HETATM   24  C19 UNL     1      37.736  15.591  85.799  1.00  0.00     0.063 C 
BRANCH  22  25
HETATM   25  C14 UNL     1      35.242  16.454  88.198  1.00  0.00     0.149 C 
HETATM   26  C15 UNL     1      35.530  15.184  88.946  1.00  0.00     0.048 C 
HETATM   27  C16 UNL     1      34.873  17.504  89.200  1.00  0.00     0.048 C 
HETATM   28  C17 UNL     1      34.058  16.224  87.288  1.00  0.00     0.048 C 
ENDBRANCH  22  25
ENDBRANCH  16  19
ENDBRANCH   8  16
BRANCH   1  29
HETATM   29  C2  UNL     1      43.992  12.946  80.779  1.00  0.00     0.004 C 
HETATM   30  C1  UNL     1      45.119  13.575  81.560  1.00  0.00     0.006 C 
ENDBRANCH   1  29
TORSDOF 4
ENDMDL
