MODEL 1
REMARK VINA RESULT: -3.575073985      0.000      0.000
REMARK  4 active torsions:
REMARK  status: ('A' for Active; 'I' for Inactive)
REMARK    1  A    between atoms: C2_2  and  C3_3 
REMARK    2  A    between atoms: C3_3  and  C4_4 
REMARK    3  A    between atoms: C4_4  and  C5_5 
REMARK    4  A    between atoms: C17_18  and  O1_19 
ROOT
HETATM    1  C5  UNL     1      43.969  13.931  82.585  1.00  0.00    -0.013 C 
HETATM    2  C6  UNL     1      44.125  14.739  81.503  1.00  0.00     0.026 C 
HETATM    3  C7  UNL     1      44.694  14.678  80.240  1.00  0.00     0.063 C 
HETATM    4  C8  UNL     1      44.287  16.008  79.576  1.00  0.00     0.051 C 
HETATM    5  C9  UNL     1      43.203  16.688  80.400  1.00  0.00     0.070 C 
HETATM    6  N1  UNL     1      43.542  16.159  81.575  1.00  0.00    -0.333 N 
HETATM    7  C10 UNL     1      43.284  16.568  82.904  1.00  0.00     0.012 C 
HETATM    8  C11 UNL     1      41.926  16.664  82.684  1.00  0.00    -0.001 C 
HETATM    9  C12 UNL     1      41.004  16.998  83.780  1.00  0.00     0.035 C 
HETATM   10  C13 UNL     1      41.300  15.768  84.773  1.00  0.00     0.006 C 
HETATM   11  C14 UNL     1      39.938  15.473  85.293  1.00  0.00    -0.005 C 
HETATM   12  C15 UNL     1      39.361  16.583  86.143  1.00  0.00     0.008 C 
HETATM   13  C16 UNL     1      37.857  16.643  85.974  1.00  0.00     0.032 C 
HETATM   14  C17 UNL     1      37.192  15.313  85.866  1.00  0.00     0.118 C 
HETATM   15  C18 UNL     1      37.824  14.350  84.899  1.00  0.00     0.036 C 
HETATM   16  C19 UNL     1      38.952  15.134  84.199  1.00  0.00    -0.008 C 
HETATM   17  C20 UNL     1      39.547  14.423  83.051  1.00  0.00     0.006 C 
HETATM   18  C21 UNL     1      40.977  14.094  83.027  1.00  0.00     0.014 C 
HETATM   19  C22 UNL     1      41.889  14.549  84.099  1.00  0.00    -0.015 C 
HETATM   20  C23 UNL     1      41.566  13.453  85.228  1.00  0.00     0.020 C 
HETATM   21  C24 UNL     1      43.324  14.306  83.912  1.00  0.00    -0.059 C 
HETATM   22  C25 UNL     1      44.215  15.288  84.696  1.00  0.00     0.042 C 
HETATM   23  C26 UNL     1      44.149  16.680  84.083  1.00  0.00     0.061 C 
ENDROOT
BRANCH   1  24
HETATM   24  C4  UNL     1      44.577  12.629  82.354  1.00  0.00    -0.009 C 
BRANCH  24  25
HETATM   25  C3  UNL     1      43.845  11.485  81.821  1.00  0.00     0.054 C 
BRANCH  25  26
HETATM   26  C2  UNL     1      42.763  11.813  80.889  1.00  0.00    -0.033 C 
HETATM   27  C1  UNL     1      42.730  11.529  79.608  1.00  0.00     0.007 C 
ENDBRANCH  25  26
ENDBRANCH  24  25
ENDBRANCH   1  24
BRANCH  14  28
HETATM   28  O1  UNL     1      37.081  14.757  87.164  1.00  0.00    -0.396 OA
ATOM     29  H1  UNL     1      37.151  13.812  87.095  1.00  0.00     0.210 HD
ENDBRANCH  14  28
TORSDOF 4
ENDMDL
MODEL 2
REMARK VINA RESULT: -2.779944330      1.360      2.154
REMARK  4 active torsions:
REMARK  status: ('A' for Active; 'I' for Inactive)
REMARK    1  A    between atoms: C2_2  and  C3_3 
REMARK    2  A    between atoms: C3_3  and  C4_4 
REMARK    3  A    between atoms: C4_4  and  C5_5 
REMARK    4  A    between atoms: C17_18  and  O1_19 
ROOT
HETATM    1  C5  UNL     1      41.625  13.681  82.608  1.00  0.00    -0.013 C 
HETATM    2  C6  UNL     1      42.371  14.738  82.193  1.00  0.00     0.026 C 
HETATM    3  C7  UNL     1      43.100  15.115  81.075  1.00  0.00     0.063 C 
HETATM    4  C8  UNL     1      43.519  16.570  81.367  1.00  0.00     0.051 C 
HETATM    5  C9  UNL     1      42.734  17.106  82.556  1.00  0.00     0.070 C 
HETATM    6  N1  UNL     1      42.523  15.931  83.149  1.00  0.00    -0.333 N 
HETATM    7  C10 UNL     1      42.210  15.593  84.486  1.00  0.00     0.012 C 
HETATM    8  C11 UNL     1      41.140  16.461  84.529  1.00  0.00    -0.001 C 
HETATM    9  C12 UNL     1      40.272  16.536  85.714  1.00  0.00     0.035 C 
HETATM   10  C13 UNL     1      39.734  15.021  85.757  1.00  0.00     0.006 C 
HETATM   11  C14 UNL     1      38.318  15.221  86.165  1.00  0.00    -0.005 C 
HETATM   12  C15 UNL     1      38.164  15.773  87.565  1.00  0.00     0.008 C 
HETATM   13  C16 UNL     1      36.940  16.661  87.644  1.00  0.00     0.032 C 
HETATM   14  C17 UNL     1      35.769  16.176  86.861  1.00  0.00     0.118 C 
HETATM   15  C18 UNL     1      36.065  15.758  85.446  1.00  0.00     0.036 C 
HETATM   16  C19 UNL     1      37.549  16.100  85.207  1.00  0.00    -0.008 C 
HETATM   17  C20 UNL     1      37.970  15.969  83.799  1.00  0.00     0.006 C 
HETATM   18  C21 UNL     1      39.045  15.046  83.417  1.00  0.00     0.014 C 
HETATM   19  C22 UNL     1      39.810  14.293  84.433  1.00  0.00    -0.015 C 
HETATM   20  C23 UNL     1      38.777  13.102  84.738  1.00  0.00     0.020 C 
HETATM   21  C24 UNL     1      40.965  13.515  83.969  1.00  0.00    -0.059 C 
HETATM   22  C25 UNL     1      42.021  13.280  85.066  1.00  0.00     0.042 C 
HETATM   23  C26 UNL     1      42.750  14.576  85.395  1.00  0.00     0.061 C 
ENDROOT
BRANCH   1  24
HETATM   24  C4  UNL     1      41.583  12.642  81.590  1.00  0.00    -0.009 C 
BRANCH  24  25
HETATM   25  C3  UNL     1      42.663  11.686  81.375  1.00  0.00     0.054 C 
BRANCH  25  26
HETATM   26  C2  UNL     1      42.977  11.398  79.973  1.00  0.00    -0.033 C 
HETATM   27  C1  UNL     1      42.566  12.081  78.931  1.00  0.00     0.007 C 
ENDBRANCH  25  26
ENDBRANCH  24  25
ENDBRANCH   1  24
BRANCH  14  28
HETATM   28  O1  UNL     1      35.134  15.141  87.590  1.00  0.00    -0.396 OA
ATOM     29  H1  UNL     1      35.497  14.308  87.313  1.00  0.00     0.210 HD
ENDBRANCH  14  28
TORSDOF 4
ENDMDL
MODEL 3
REMARK VINA RESULT: -2.306119315      1.594      2.798
REMARK  4 active torsions:
REMARK  status: ('A' for Active; 'I' for Inactive)
REMARK    1  A    between atoms: C2_2  and  C3_3 
REMARK    2  A    between atoms: C3_3  and  C4_4 
REMARK    3  A    between atoms: C4_4  and  C5_5 
REMARK    4  A    between atoms: C17_18  and  O1_19 
ROOT
HETATM    1  C5  UNL     1      41.360  14.133  82.437  1.00  0.00    -0.013 C 
HETATM    2  C6  UNL     1      42.456  14.929  82.542  1.00  0.00     0.026 C 
HETATM    3  C7  UNL     1      43.487  15.383  81.733  1.00  0.00     0.063 C 
HETATM    4  C8  UNL     1      44.243  16.397  82.615  1.00  0.00     0.051 C 
HETATM    5  C9  UNL     1      43.414  16.732  83.847  1.00  0.00     0.070 C 
HETATM    6  N1  UNL     1      42.744  15.582  83.903  1.00  0.00    -0.333 N 
HETATM    7  C10 UNL     1      42.063  14.938  84.963  1.00  0.00     0.012 C 
HETATM    8  C11 UNL     1      41.314  16.058  85.255  1.00  0.00    -0.001 C 
HETATM    9  C12 UNL     1      40.273  16.023  86.293  1.00  0.00     0.035 C 
HETATM   10  C13 UNL     1      39.316  14.883  85.684  1.00  0.00     0.006 C 
HETATM   11  C14 UNL     1      37.968  15.420  86.014  1.00  0.00    -0.005 C 
HETATM   12  C15 UNL     1      37.685  15.472  87.499  1.00  0.00     0.008 C 
HETATM   13  C16 UNL     1      36.791  16.652  87.820  1.00  0.00     0.032 C 
HETATM   14  C17 UNL     1      35.727  16.916  86.811  1.00  0.00     0.118 C 
HETATM   15  C18 UNL     1      36.185  16.936  85.377  1.00  0.00     0.036 C 
HETATM   16  C19 UNL     1      37.719  16.787  85.422  1.00  0.00    -0.008 C 
HETATM   17  C20 UNL     1      38.376  17.009  84.121  1.00  0.00     0.006 C 
HETATM   18  C21 UNL     1      39.187  15.957  83.497  1.00  0.00     0.014 C 
HETATM   19  C22 UNL     1      39.458  14.680  84.192  1.00  0.00    -0.015 C 
HETATM   20  C23 UNL     1      38.078  13.907  83.908  1.00  0.00     0.020 C 
HETATM   21  C24 UNL     1      40.403  13.754  83.558  1.00  0.00    -0.059 C 
HETATM   22  C25 UNL     1      41.080  12.796  84.557  1.00  0.00     0.042 C 
HETATM   23  C26 UNL     1      42.069  13.549  85.436  1.00  0.00     0.061 C 
ENDROOT
BRANCH   1  24
HETATM   24  C4  UNL     1      41.235  13.596  81.090  1.00  0.00    -0.009 C 
BRANCH  24  25
HETATM   25  C3  UNL     1      42.022  12.470  80.599  1.00  0.00     0.054 C 
BRANCH  25  26
HETATM   26  C2  UNL     1      42.582  12.636  79.255  1.00  0.00    -0.033 C 
HETATM   27  C1  UNL     1      43.696  13.258  78.951  1.00  0.00     0.007 C 
ENDBRANCH  25  26
ENDBRANCH  24  25
ENDBRANCH   1  24
BRANCH  14  28
HETATM   28  O1  UNL     1      34.674  15.991  87.011  1.00  0.00    -0.396 OA
ATOM     29  H1  UNL     1      33.959  16.216  86.428  1.00  0.00     0.210 HD
ENDBRANCH  14  28
TORSDOF 4
ENDMDL
MODEL 4
REMARK VINA RESULT: -1.780583812      2.753      6.815
REMARK  4 active torsions:
REMARK  status: ('A' for Active; 'I' for Inactive)
REMARK    1  A    between atoms: C2_2  and  C3_3 
REMARK    2  A    between atoms: C3_3  and  C4_4 
REMARK    3  A    between atoms: C4_4  and  C5_5 
REMARK    4  A    between atoms: C17_18  and  O1_19 
ROOT
HETATM    1  C5  UNL     1      39.563  15.525  85.335  1.00  0.00    -0.013 C 
HETATM    2  C6  UNL     1      38.519  15.043  84.611  1.00  0.00     0.026 C 
HETATM    3  C7  UNL     1      37.154  15.258  84.495  1.00  0.00     0.063 C 
HETATM    4  C8  UNL     1      36.731  14.378  83.302  1.00  0.00     0.051 C 
HETATM    5  C9  UNL     1      37.964  13.898  82.550  1.00  0.00     0.070 C 
HETATM    6  N1  UNL     1      38.805  13.938  83.582  1.00  0.00    -0.333 N 
HETATM    7  C10 UNL     1      40.039  13.288  83.820  1.00  0.00     0.012 C 
HETATM    8  C11 UNL     1      40.574  13.715  82.623  1.00  0.00    -0.001 C 
HETATM    9  C12 UNL     1      41.970  13.419  82.270  1.00  0.00     0.035 C 
HETATM   10  C13 UNL     1      42.723  14.154  83.485  1.00  0.00     0.006 C 
HETATM   11  C14 UNL     1      43.908  14.731  82.794  1.00  0.00    -0.005 C 
HETATM   12  C15 UNL     1      44.865  13.688  82.262  1.00  0.00     0.008 C 
HETATM   13  C16 UNL     1      45.524  14.183  80.991  1.00  0.00     0.032 C 
HETATM   14  C17 UNL     1      45.869  15.632  80.995  1.00  0.00     0.118 C 
HETATM   15  C18 UNL     1      44.774  16.557  81.453  1.00  0.00     0.036 C 
HETATM   16  C19 UNL     1      43.533  15.668  81.669  1.00  0.00    -0.008 C 
HETATM   17  C20 UNL     1      42.291  16.427  81.906  1.00  0.00     0.006 C 
HETATM   18  C21 UNL     1      41.526  16.253  83.146  1.00  0.00     0.014 C 
HETATM   19  C22 UNL     1      41.914  15.243  84.154  1.00  0.00    -0.015 C 
HETATM   20  C23 UNL     1      43.105  16.027  84.895  1.00  0.00     0.020 C 
HETATM   21  C24 UNL     1      41.004  15.035  85.286  1.00  0.00    -0.059 C 
HETATM   22  C25 UNL     1      41.129  13.636  85.920  1.00  0.00     0.042 C 
HETATM   23  C26 UNL     1      40.564  12.573  84.988  1.00  0.00     0.061 C 
ENDROOT
BRANCH   1  24
HETATM   24  C4  UNL     1      39.123  16.559  86.259  1.00  0.00    -0.009 C 
BRANCH  24  25
HETATM   25  C3  UNL     1      38.054  17.504  85.955  1.00  0.00     0.054 C 
BRANCH  25  26
HETATM   26  C2  UNL     1      37.119  17.767  87.052  1.00  0.00    -0.033 C 
HETATM   27  C1  UNL     1      36.098  17.019  87.396  1.00  0.00     0.007 C 
ENDBRANCH  25  26
ENDBRANCH  24  25
ENDBRANCH   1  24
BRANCH  14  28
HETATM   28  O1  UNL     1      47.055  15.813  81.747  1.00  0.00    -0.396 OA
ATOM     29  H1  UNL     1      46.998  15.285  82.534  1.00  0.00     0.210 HD
ENDBRANCH  14  28
TORSDOF 4
ENDMDL
MODEL 5
REMARK VINA RESULT: -1.633536238      0.918      1.532
REMARK  4 active torsions:
REMARK  status: ('A' for Active; 'I' for Inactive)
REMARK    1  A    between atoms: C2_2  and  C3_3 
REMARK    2  A    between atoms: C3_3  and  C4_4 
REMARK    3  A    between atoms: C4_4  and  C5_5 
REMARK    4  A    between atoms: C17_18  and  O1_19 
ROOT
HETATM    1  C5  UNL     1      43.575  14.026  82.666  1.00  0.00    -0.013 C 
HETATM    2  C6  UNL     1      43.679  14.802  81.555  1.00  0.00     0.026 C 
HETATM    3  C7  UNL     1      44.200  14.708  80.273  1.00  0.00     0.063 C 
HETATM    4  C8  UNL     1      43.749  16.012  79.584  1.00  0.00     0.051 C 
HETATM    5  C9  UNL     1      42.689  16.704  80.429  1.00  0.00     0.070 C 
HETATM    6  N1  UNL     1      43.079  16.215  81.605  1.00  0.00    -0.333 N 
HETATM    7  C10 UNL     1      42.866  16.663  82.930  1.00  0.00     0.012 C 
HETATM    8  C11 UNL     1      41.500  16.735  82.760  1.00  0.00    -0.001 C 
HETATM    9  C12 UNL     1      40.616  17.091  83.879  1.00  0.00     0.035 C 
HETATM   10  C13 UNL     1      40.966  15.897  84.898  1.00  0.00     0.006 C 
HETATM   11  C14 UNL     1      39.629  15.601  85.479  1.00  0.00    -0.005 C 
HETATM   12  C15 UNL     1      39.069  16.730  86.315  1.00  0.00     0.008 C 
HETATM   13  C16 UNL     1      37.559  16.764  86.203  1.00  0.00     0.032 C 
HETATM   14  C17 UNL     1      36.910  15.424  86.162  1.00  0.00     0.118 C 
HETATM   15  C18 UNL     1      37.518  14.439  85.202  1.00  0.00     0.036 C 
HETATM   16  C19 UNL     1      38.608  15.215  84.435  1.00  0.00    -0.008 C 
HETATM   17  C20 UNL     1      39.168  14.476  83.288  1.00  0.00     0.006 C 
HETATM   18  C21 UNL     1      40.600  14.165  83.219  1.00  0.00     0.014 C 
HETATM   19  C22 UNL     1      41.546  14.665  84.239  1.00  0.00    -0.015 C 
HETATM   20  C23 UNL     1      41.282  13.601  85.414  1.00  0.00     0.020 C 
HETATM   21  C24 UNL     1      42.976  14.434  84.005  1.00  0.00    -0.059 C 
HETATM   22  C25 UNL     1      43.883  15.452  84.724  1.00  0.00     0.042 C 
HETATM   23  C26 UNL     1      43.774  16.823  84.071  1.00  0.00     0.061 C 
ENDROOT
BRANCH   1  24
HETATM   24  C4  UNL     1      44.192  12.726  82.453  1.00  0.00    -0.009 C 
BRANCH  24  25
HETATM   25  C3  UNL     1      45.635  12.524  82.390  1.00  0.00     0.054 C 
BRANCH  25  26
HETATM   26  C2  UNL     1      46.441  13.542  83.069  1.00  0.00    -0.033 C 
HETATM   27  C1  UNL     1      46.754  14.725  82.596  1.00  0.00     0.007 C 
ENDBRANCH  25  26
ENDBRANCH  24  25
ENDBRANCH   1  24
BRANCH  14  28
HETATM   28  O1  UNL     1      36.856  14.907  87.479  1.00  0.00    -0.396 OA
ATOM     29  H1  UNL     1      36.112  15.292  87.926  1.00  0.00     0.210 HD
ENDBRANCH  14  28
TORSDOF 4
ENDMDL
