MODEL 1
REMARK VINA RESULT: -9.543235004      0.000      0.000
REMARK  4 active torsions:
REMARK  status: ('A' for Active; 'I' for Inactive)
REMARK    1  A    between atoms: C4_4  and  N1_5 
REMARK    2  A    between atoms: N2_8  and  C7_9 
REMARK    3  A    between atoms: C7_9  and  C8_10 
REMARK    4  A    between atoms: N3_13  and  C11_14 
ROOT
HETATM    1  C8  UNL     1      39.126  14.089  84.613  1.00  0.00     0.006 C 
HETATM    2  C9  UNL     1      39.755  14.951  85.678  1.00  0.00     0.026 C 
HETATM    3  C10 UNL     1      38.834  15.634  86.610  1.00  0.00     0.117 C 
HETATM    4  N3  UNL     1      37.689  16.174  85.978  1.00  0.00    -0.408 N 
HETATM    5  C18 UNL     1      37.119  15.441  84.904  1.00  0.00     0.117 C 
HETATM    6  C19 UNL     1      37.622  14.035  84.919  1.00  0.00     0.026 C 
ENDROOT
BRANCH   1   7
HETATM    7  C7  UNL     1      39.711  12.717  84.573  1.00  0.00     0.126 C 
BRANCH   7   8
HETATM    8  N2  UNL     1      41.083  12.621  84.254  1.00  0.00    -0.390 N 
HETATM    9  C6  UNL     1      41.897  13.616  84.917  1.00  0.00     0.141 C 
HETATM   10  C5  UNL     1      41.945  14.883  84.093  1.00  0.00     0.143 C 
HETATM   11  N1  UNL     1      42.623  14.507  82.857  1.00  0.00    -0.375 N 
HETATM   12  C21 UNL     1      41.950  13.479  82.087  1.00  0.00     0.167 C 
HETATM   13  C20 UNL     1      41.470  12.329  82.937  1.00  0.00     0.078 C 
BRANCH  11  14
HETATM   14  C4  UNL     1      43.844  15.087  82.465  1.00  0.00     0.030 A 
HETATM   15  C3  UNL     1      43.989  15.918  81.359  1.00  0.00     0.029 A 
HETATM   16  C2  UNL     1      45.191  16.450  81.005  1.00  0.00     0.002 A 
HETATM   17  C1  UNL     1      46.338  16.181  81.744  1.00  0.00     0.000 A 
HETATM   18  C23 UNL     1      46.216  15.352  82.849  1.00  0.00     0.002 A 
HETATM   19  C22 UNL     1      44.989  14.820  83.196  1.00  0.00     0.029 A 
ENDBRANCH  11  14
ENDBRANCH   7   8
ENDBRANCH   1   7
BRANCH   4  20
HETATM   20  C11 UNL     1      36.672  16.706  86.825  1.00  0.00     0.079 C 
HETATM   21  C12 UNL     1      36.329  15.857  88.019  1.00  0.00     0.025 C 
HETATM   22  C13 UNL     1      34.900  15.841  88.411  1.00  0.00     0.002 C 
HETATM   23  C14 UNL     1      34.091  17.014  87.939  1.00  0.00     0.000 C 
HETATM   24  C15 UNL     1      34.658  18.342  88.315  1.00  0.00     0.000 C 
HETATM   25  C16 UNL     1      35.664  18.891  87.344  1.00  0.00     0.002 C 
HETATM   26  C17 UNL     1      36.955  18.114  87.303  1.00  0.00     0.025 C 
ENDBRANCH   4  20
TORSDOF 4
ENDMDL
MODEL 2
REMARK VINA RESULT: -9.274321328      1.147      8.916
REMARK  4 active torsions:
REMARK  status: ('A' for Active; 'I' for Inactive)
REMARK    1  A    between atoms: C4_4  and  N1_5 
REMARK    2  A    between atoms: N2_8  and  C7_9 
REMARK    3  A    between atoms: C7_9  and  C8_10 
REMARK    4  A    between atoms: N3_13  and  C11_14 
ROOT
HETATM    1  C8  UNL     1      40.809  13.195  84.749  1.00  0.00     0.006 C 
HETATM    2  C9  UNL     1      41.590  14.390  85.233  1.00  0.00     0.026 C 
HETATM    3  C10 UNL     1      42.532  15.002  84.273  1.00  0.00     0.117 C 
HETATM    4  N3  UNL     1      43.262  14.056  83.518  1.00  0.00    -0.408 N 
HETATM    5  C18 UNL     1      42.593  12.868  83.121  1.00  0.00     0.117 C 
HETATM    6  C19 UNL     1      41.115  13.043  83.251  1.00  0.00     0.026 C 
ENDROOT
BRANCH   1   7
HETATM    7  C7  UNL     1      39.342  13.343  84.979  1.00  0.00     0.126 C 
BRANCH   7   8
HETATM    8  N2  UNL     1      38.814  14.649  84.884  1.00  0.00    -0.390 N 
HETATM    9  C6  UNL     1      39.151  15.487  86.014  1.00  0.00     0.141 C 
HETATM   10  C5  UNL     1      38.128  15.313  87.114  1.00  0.00     0.143 C 
HETATM   11  N1  UNL     1      36.876  15.808  86.552  1.00  0.00    -0.375 N 
HETATM   12  C21 UNL     1      36.417  15.094  85.376  1.00  0.00     0.167 C 
HETATM   13  C20 UNL     1      37.519  14.839  84.379  1.00  0.00     0.078 C 
BRANCH  11  14
HETATM   14  C4  UNL     1      36.190  16.907  87.102  1.00  0.00     0.030 A 
HETATM   15  C3  UNL     1      36.590  18.230  86.944  1.00  0.00     0.029 A 
HETATM   16  C2  UNL     1      35.906  19.265  87.503  1.00  0.00     0.002 A 
HETATM   17  C1  UNL     1      34.764  19.041  88.266  1.00  0.00     0.000 A 
HETATM   18  C23 UNL     1      34.350  17.729  88.438  1.00  0.00     0.002 A 
HETATM   19  C22 UNL     1      35.054  16.688  87.863  1.00  0.00     0.029 A 
ENDBRANCH  11  14
ENDBRANCH   7   8
ENDBRANCH   1   7
BRANCH   4  20
HETATM   20  C11 UNL     1      44.072  14.559  82.458  1.00  0.00     0.079 C 
HETATM   21  C12 UNL     1      45.032  15.648  82.852  1.00  0.00     0.025 C 
HETATM   22  C13 UNL     1      45.247  16.716  81.846  1.00  0.00     0.002 C 
HETATM   23  C14 UNL     1      44.920  16.340  80.431  1.00  0.00     0.000 C 
HETATM   24  C15 UNL     1      45.607  15.107  79.948  1.00  0.00     0.000 C 
HETATM   25  C16 UNL     1      44.883  13.827  80.251  1.00  0.00     0.002 C 
HETATM   26  C17 UNL     1      44.842  13.486  81.719  1.00  0.00     0.025 C 
ENDBRANCH   4  20
TORSDOF 4
ENDMDL
MODEL 3
REMARK VINA RESULT: -9.253724752      1.319      8.963
REMARK  4 active torsions:
REMARK  status: ('A' for Active; 'I' for Inactive)
REMARK    1  A    between atoms: C4_4  and  N1_5 
REMARK    2  A    between atoms: N2_8  and  C7_9 
REMARK    3  A    between atoms: C7_9  and  C8_10 
REMARK    4  A    between atoms: N3_13  and  C11_14 
ROOT
HETATM    1  C8  UNL     1      40.856  13.280  84.908  1.00  0.00     0.006 C 
HETATM    2  C9  UNL     1      41.632  14.568  85.012  1.00  0.00     0.026 C 
HETATM    3  C10 UNL     1      42.395  14.983  83.817  1.00  0.00     0.117 C 
HETATM    4  N3  UNL     1      43.061  13.914  83.173  1.00  0.00    -0.408 N 
HETATM    5  C18 UNL     1      42.407  12.654  83.135  1.00  0.00     0.117 C 
HETATM    6  C19 UNL     1      40.955  12.820  83.445  1.00  0.00     0.026 C 
ENDROOT
BRANCH   1   7
HETATM    7  C7  UNL     1      39.430  13.440  85.318  1.00  0.00     0.126 C 
BRANCH   7   8
HETATM    8  N2  UNL     1      38.865  14.724  85.159  1.00  0.00    -0.390 N 
HETATM    9  C6  UNL     1      39.146  15.616  86.263  1.00  0.00     0.141 C 
HETATM   10  C5  UNL     1      38.100  15.451  87.343  1.00  0.00     0.143 C 
HETATM   11  N1  UNL     1      36.849  15.885  86.730  1.00  0.00    -0.375 N 
HETATM   12  C21 UNL     1      36.443  15.112  85.572  1.00  0.00     0.167 C 
HETATM   13  C20 UNL     1      37.579  14.854  84.614  1.00  0.00     0.078 C 
BRANCH  11  14
HETATM   14  C4  UNL     1      36.114  16.982  87.219  1.00  0.00     0.030 A 
HETATM   15  C3  UNL     1      34.933  16.863  87.945  1.00  0.00     0.029 A 
HETATM   16  C2  UNL     1      34.245  17.950  88.390  1.00  0.00     0.002 A 
HETATM   17  C1  UNL     1      34.699  19.239  88.135  1.00  0.00     0.000 A 
HETATM   18  C23 UNL     1      35.874  19.379  87.412  1.00  0.00     0.002 A 
HETATM   19  C22 UNL     1      36.562  18.267  86.967  1.00  0.00     0.029 A 
ENDBRANCH  11  14
ENDBRANCH   7   8
ENDBRANCH   1   7
BRANCH   4  20
HETATM   20  C11 UNL     1      43.685  14.199  81.923  1.00  0.00     0.079 C 
HETATM   21  C12 UNL     1      42.821  13.970  80.713  1.00  0.00     0.025 C 
HETATM   22  C13 UNL     1      43.513  13.437  79.516  1.00  0.00     0.002 C 
HETATM   23  C14 UNL     1      44.995  13.673  79.472  1.00  0.00     0.000 C 
HETATM   24  C15 UNL     1      45.395  15.101  79.638  1.00  0.00     0.000 C 
HETATM   25  C16 UNL     1      45.561  15.543  81.064  1.00  0.00     0.002 C 
HETATM   26  C17 UNL     1      44.269  15.592  81.839  1.00  0.00     0.025 C 
ENDBRANCH   4  20
TORSDOF 4
ENDMDL
MODEL 4
REMARK VINA RESULT: -9.008900214      1.309      9.140
REMARK  4 active torsions:
REMARK  status: ('A' for Active; 'I' for Inactive)
REMARK    1  A    between atoms: C4_4  and  N1_5 
REMARK    2  A    between atoms: N2_8  and  C7_9 
REMARK    3  A    between atoms: C7_9  and  C8_10 
REMARK    4  A    between atoms: N3_13  and  C11_14 
ROOT
HETATM    1  C8  UNL     1      40.758  13.469  84.548  1.00  0.00     0.006 C 
HETATM    2  C9  UNL     1      41.762  14.473  85.056  1.00  0.00     0.026 C 
HETATM    3  C10 UNL     1      42.793  14.924  84.099  1.00  0.00     0.117 C 
HETATM    4  N3  UNL     1      43.317  13.881  83.300  1.00  0.00    -0.408 N 
HETATM    5  C18 UNL     1      42.425  12.860  82.877  1.00  0.00     0.117 C 
HETATM    6  C19 UNL     1      41.011  13.314  83.041  1.00  0.00     0.026 C 
ENDROOT
BRANCH   1   7
HETATM    7  C7  UNL     1      39.350  13.890  84.810  1.00  0.00     0.126 C 
BRANCH   7   8
HETATM    8  N2  UNL     1      39.139  14.742  85.915  1.00  0.00    -0.390 N 
HETATM    9  C6  UNL     1      37.936  14.432  86.658  1.00  0.00     0.141 C 
HETATM   10  C5  UNL     1      36.753  15.159  86.059  1.00  0.00     0.143 C 
HETATM   11  N1  UNL     1      37.040  16.577  86.252  1.00  0.00    -0.375 N 
HETATM   12  C21 UNL     1      38.249  17.043  85.600  1.00  0.00     0.167 C 
HETATM   13  C20 UNL     1      39.418  16.112  85.799  1.00  0.00     0.078 C 
BRANCH  11  14
HETATM   14  C4  UNL     1      36.215  17.410  87.031  1.00  0.00     0.030 A 
HETATM   15  C3  UNL     1      36.207  18.798  86.938  1.00  0.00     0.029 A 
HETATM   16  C2  UNL     1      35.402  19.570  87.719  1.00  0.00     0.002 A 
HETATM   17  C1  UNL     1      34.545  18.996  88.652  1.00  0.00     0.000 A 
HETATM   18  C23 UNL     1      34.540  17.614  88.762  1.00  0.00     0.002 A 
HETATM   19  C22 UNL     1      35.362  16.844  87.962  1.00  0.00     0.029 A 
ENDBRANCH  11  14
ENDBRANCH   7   8
ENDBRANCH   1   7
BRANCH   4  20
HETATM   20  C11 UNL     1      44.196  14.256  82.242  1.00  0.00     0.079 C 
HETATM   21  C12 UNL     1      45.521  14.817  82.682  1.00  0.00     0.025 C 
HETATM   22  C13 UNL     1      46.070  15.910  81.847  1.00  0.00     0.002 C 
HETATM   23  C14 UNL     1      45.545  15.971  80.442  1.00  0.00     0.000 C 
HETATM   24  C15 UNL     1      45.679  14.696  79.680  1.00  0.00     0.000 C 
HETATM   25  C16 UNL     1      44.538  13.736  79.859  1.00  0.00     0.002 C 
HETATM   26  C17 UNL     1      44.453  13.147  81.245  1.00  0.00     0.025 C 
ENDBRANCH   4  20
TORSDOF 4
ENDMDL
MODEL 5
REMARK VINA RESULT: -8.720717571      1.819      9.353
REMARK  4 active torsions:
REMARK  status: ('A' for Active; 'I' for Inactive)
REMARK    1  A    between atoms: C4_4  and  N1_5 
REMARK    2  A    between atoms: N2_8  and  C7_9 
REMARK    3  A    between atoms: C7_9  and  C8_10 
REMARK    4  A    between atoms: N3_13  and  C11_14 
ROOT
HETATM    1  C8  UNL     1      41.610  14.895  85.003  1.00  0.00     0.006 C 
HETATM    2  C9  UNL     1      42.921  15.395  84.451  1.00  0.00     0.026 C 
HETATM    3  C10 UNL     1      43.300  14.917  83.105  1.00  0.00     0.117 C 
HETATM    4  N3  UNL     1      43.027  13.545  82.895  1.00  0.00    -0.408 N 
HETATM    5  C18 UNL     1      41.849  13.008  83.479  1.00  0.00     0.117 C 
HETATM    6  C19 UNL     1      40.923  14.112  83.874  1.00  0.00     0.026 C 
ENDROOT
BRANCH   1   7
HETATM    7  C7  UNL     1      40.737  16.005  85.487  1.00  0.00     0.126 C 
BRANCH   7   8
HETATM    8  N2  UNL     1      39.344  15.821  85.350  1.00  0.00    -0.390 N 
HETATM    9  C6  UNL     1      38.597  17.060  85.356  1.00  0.00     0.141 C 
HETATM   10  C5  UNL     1      38.257  17.456  86.775  1.00  0.00     0.143 C 
HETATM   11  N1  UNL     1      37.371  16.403  87.261  1.00  0.00    -0.375 N 
HETATM   12  C21 UNL     1      37.960  15.078  87.278  1.00  0.00     0.167 C 
HETATM   13  C20 UNL     1      38.716  14.756  86.014  1.00  0.00     0.078 C 
BRANCH  11  14
HETATM   14  C4  UNL     1      36.045  16.661  87.657  1.00  0.00     0.030 A 
HETATM   15  C3  UNL     1      35.515  17.939  87.805  1.00  0.00     0.029 A 
HETATM   16  C2  UNL     1      34.230  18.148  88.202  1.00  0.00     0.002 A 
HETATM   17  C1  UNL     1      33.384  17.080  88.481  1.00  0.00     0.000 A 
HETATM   18  C23 UNL     1      33.894  15.798  88.342  1.00  0.00     0.002 A 
HETATM   19  C22 UNL     1      35.200  15.602  87.937  1.00  0.00     0.029 A 
ENDBRANCH  11  14
ENDBRANCH   7   8
ENDBRANCH   1   7
BRANCH   4  20
HETATM   20  C11 UNL     1      43.212  13.043  81.573  1.00  0.00     0.079 C 
HETATM   21  C12 UNL     1      44.608  13.179  81.029  1.00  0.00     0.025 C 
HETATM   22  C13 UNL     1      44.711  13.485  79.583  1.00  0.00     0.002 C 
HETATM   23  C14 UNL     1      43.509  13.120  78.762  1.00  0.00     0.000 C 
HETATM   24  C15 UNL     1      43.077  11.699  78.903  1.00  0.00     0.000 C 
HETATM   25  C16 UNL     1      42.136  11.440  80.044  1.00  0.00     0.002 C 
HETATM   26  C17 UNL     1      42.770  11.606  81.403  1.00  0.00     0.025 C 
ENDBRANCH   4  20
TORSDOF 4
ENDMDL
