MODEL 1
REMARK VINA RESULT: -8.634080785      0.000      0.000
REMARK  4 active torsions:
REMARK  status: ('A' for Active; 'I' for Inactive)
REMARK    1  A    between atoms: O1_2  and  C2_3 
REMARK    2  A    between atoms: C2_3  and  C3_4 
REMARK    3  A    between atoms: N1_20  and  C18_21 
REMARK    4  A    between atoms: C18_21  and  C19_22 
ROOT
HETATM    1  C3  UNL     1      42.340  13.953  80.612  1.00  0.00     0.154 C 
HETATM    2  O2  UNL     1      43.492  14.415  80.072  1.00  0.00    -0.373 OA
HETATM    3  C4  UNL     1      44.345  15.070  80.920  1.00  0.00     0.156 C 
HETATM    4  C5  UNL     1      45.416  14.034  81.308  1.00  0.00     0.037 C 
HETATM    5  C6  UNL     1      44.775  12.681  81.337  1.00  0.00     0.004 C 
HETATM    6  C7  UNL     1      43.627  12.549  82.273  1.00  0.00     0.012 C 
HETATM    7  C8  UNL     1      42.494  13.491  82.065  1.00  0.00     0.051 C 
HETATM    8  C9  UNL     1      42.811  14.757  82.798  1.00  0.00    -0.034 A 
HETATM    9  C10 UNL     1      42.218  15.110  83.967  1.00  0.00    -0.016 A 
HETATM   10  C11 UNL     1      42.570  16.303  84.553  1.00  0.00    -0.047 A 
HETATM   11  C12 UNL     1      43.510  17.090  83.929  1.00  0.00     0.015 A 
HETATM   12  C13 UNL     1      44.127  16.753  82.743  1.00  0.00    -0.052 A 
HETATM   13  C14 UNL     1      45.136  17.645  82.116  1.00  0.00     0.049 C 
HETATM   14  C15 UNL     1      43.754  15.551  82.178  1.00  0.00    -0.016 A 
HETATM   15  C16 UNL     1      41.917  16.673  85.825  1.00  0.00     0.069 C 
HETATM   16  C17 UNL     1      40.505  16.193  85.931  1.00  0.00     0.277 C 
HETATM   17  N1  UNL     1      40.131  15.194  85.010  1.00  0.00     0.093 N 
HETATM   18  C23 UNL     1      41.227  14.289  84.648  1.00  0.00     0.312 C 
ENDROOT
BRANCH  17  19
HETATM   19  C18 UNL     1      38.989  14.407  85.277  1.00  0.00     0.277 C 
BRANCH  19  20
HETATM   20  C19 UNL     1      37.692  15.092  85.483  1.00  0.00     0.014 C 
HETATM   21  C20 UNL     1      37.677  16.593  85.602  1.00  0.00     0.006 C 
HETATM   22  C21 UNL     1      36.701  16.453  86.767  1.00  0.00     0.001 C 
HETATM   23  C22 UNL     1      37.311  15.066  86.974  1.00  0.00     0.006 C 
ENDBRANCH  19  20
ENDBRANCH  17  19
BRANCH   1  24
HETATM   24  C2  UNL     1      41.670  12.868  79.842  1.00  0.00     0.199 C 
BRANCH  24  25
HETATM   25  O1  UNL     1      42.566  12.215  78.978  1.00  0.00    -0.393 OA
HETATM   26  C1  UNL     1      42.434  10.848  79.201  1.00  0.00     0.201 C 
ENDBRANCH  24  25
ENDBRANCH   1  24
TORSDOF 4
ENDMDL
MODEL 2
REMARK VINA RESULT: -7.170979297      0.994      1.226
REMARK  4 active torsions:
REMARK  status: ('A' for Active; 'I' for Inactive)
REMARK    1  A    between atoms: O1_2  and  C2_3 
REMARK    2  A    between atoms: C2_3  and  C3_4 
REMARK    3  A    between atoms: N1_20  and  C18_21 
REMARK    4  A    between atoms: C18_21  and  C19_22 
ROOT
HETATM    1  C3  UNL     1      43.649  13.644  80.906  1.00  0.00     0.154 C 
HETATM    2  O2  UNL     1      44.665  14.390  80.415  1.00  0.00    -0.373 OA
HETATM    3  C4  UNL     1      45.123  15.402  81.216  1.00  0.00     0.156 C 
HETATM    4  C5  UNL     1      46.393  14.850  81.890  1.00  0.00     0.037 C 
HETATM    5  C6  UNL     1      46.216  13.377  82.092  1.00  0.00     0.004 C 
HETATM    6  C7  UNL     1      45.038  12.991  82.913  1.00  0.00     0.012 C 
HETATM    7  C8  UNL     1      43.712  13.459  82.426  1.00  0.00     0.051 C 
HETATM    8  C9  UNL     1      43.494  14.844  82.952  1.00  0.00    -0.034 A 
HETATM    9  C10 UNL     1      42.645  15.128  83.972  1.00  0.00    -0.016 A 
HETATM   10  C11 UNL     1      42.506  16.437  84.370  1.00  0.00    -0.047 A 
HETATM   11  C12 UNL     1      43.234  17.405  83.717  1.00  0.00     0.015 A 
HETATM   12  C13 UNL     1      44.103  17.141  82.679  1.00  0.00    -0.052 A 
HETATM   13  C14 UNL     1      44.863  18.228  82.011  1.00  0.00     0.049 C 
HETATM   14  C15 UNL     1      44.222  15.819  82.301  1.00  0.00    -0.016 A 
HETATM   15  C16 UNL     1      41.579  16.732  85.481  1.00  0.00     0.069 C 
HETATM   16  C17 UNL     1      40.394  15.822  85.525  1.00  0.00     0.277 C 
HETATM   17  N1  UNL     1      40.503  14.641  84.763  1.00  0.00     0.093 N 
HETATM   18  C23 UNL     1      41.872  14.120  84.681  1.00  0.00     0.312 C 
ENDROOT
BRANCH  17  19
HETATM   19  C18 UNL     1      39.642  13.559  85.046  1.00  0.00     0.277 C 
BRANCH  19  20
HETATM   20  C19 UNL     1      38.232  13.850  85.393  1.00  0.00     0.014 C 
HETATM   21  C20 UNL     1      37.444  14.778  84.504  1.00  0.00     0.006 C 
HETATM   22  C21 UNL     1      36.892  15.448  85.759  1.00  0.00     0.001 C 
HETATM   23  C22 UNL     1      38.167  14.965  86.451  1.00  0.00     0.006 C 
ENDBRANCH  19  20
ENDBRANCH  17  19
BRANCH   1  24
HETATM   24  C2  UNL     1      43.485  12.304  80.276  1.00  0.00     0.199 C 
BRANCH  24  25
HETATM   25  O1  UNL     1      42.360  12.258  79.436  1.00  0.00    -0.393 OA
HETATM   26  C1  UNL     1      41.652  13.441  79.628  1.00  0.00     0.201 C 
ENDBRANCH  24  25
ENDBRANCH   1  24
TORSDOF 4
ENDMDL
MODEL 3
REMARK VINA RESULT: -6.032137650      1.100      1.489
REMARK  4 active torsions:
REMARK  status: ('A' for Active; 'I' for Inactive)
REMARK    1  A    between atoms: O1_2  and  C2_3 
REMARK    2  A    between atoms: C2_3  and  C3_4 
REMARK    3  A    between atoms: N1_20  and  C18_21 
REMARK    4  A    between atoms: C18_21  and  C19_22 
ROOT
HETATM    1  C3  UNL     1      42.471  14.293  80.540  1.00  0.00     0.154 C 
HETATM    2  O2  UNL     1      43.746  14.347  80.089  1.00  0.00    -0.373 OA
HETATM    3  C4  UNL     1      44.719  14.557  81.030  1.00  0.00     0.156 C 
HETATM    4  C5  UNL     1      45.311  13.168  81.328  1.00  0.00     0.037 C 
HETATM    5  C6  UNL     1      44.222  12.150  81.184  1.00  0.00     0.004 C 
HETATM    6  C7  UNL     1      43.043  12.362  82.065  1.00  0.00     0.012 C 
HETATM    7  C8  UNL     1      42.346  13.670  81.934  1.00  0.00     0.051 C 
HETATM    8  C9  UNL     1      43.051  14.654  82.816  1.00  0.00    -0.034 A 
HETATM    9  C10 UNL     1      42.548  15.087  83.999  1.00  0.00    -0.016 A 
HETATM   10  C11 UNL     1      43.269  16.005  84.728  1.00  0.00    -0.047 A 
HETATM   11  C12 UNL     1      44.471  16.446  84.225  1.00  0.00     0.015 A 
HETATM   12  C13 UNL     1      45.003  16.020  83.026  1.00  0.00    -0.052 A 
HETATM   13  C14 UNL     1      46.308  16.532  82.534  1.00  0.00     0.049 C 
HETATM   14  C15 UNL     1      44.259  15.099  82.317  1.00  0.00    -0.016 A 
HETATM   15  C16 UNL     1      42.709  16.467  86.014  1.00  0.00     0.069 C 
HETATM   16  C17 UNL     1      41.216  16.533  86.024  1.00  0.00     0.277 C 
HETATM   17  N1  UNL     1      40.568  15.835  84.985  1.00  0.00     0.093 N 
HETATM   18  C23 UNL     1      41.283  14.628  84.553  1.00  0.00     0.312 C 
ENDROOT
BRANCH  17  19
HETATM   19  C18 UNL     1      39.203  15.503  85.127  1.00  0.00     0.277 C 
BRANCH  19  20
HETATM   20  C19 UNL     1      38.474  16.006  86.314  1.00  0.00     0.014 C 
HETATM   21  C20 UNL     1      37.208  15.308  86.737  1.00  0.00     0.006 C 
HETATM   22  C21 UNL     1      36.570  16.677  86.952  1.00  0.00     0.001 C 
HETATM   23  C22 UNL     1      37.574  17.191  85.920  1.00  0.00     0.006 C 
ENDBRANCH  19  20
ENDBRANCH  17  19
BRANCH   1  24
HETATM   24  C2  UNL     1      41.507  13.610  79.632  1.00  0.00     0.199 C 
BRANCH  24  25
HETATM   25  O1  UNL     1      40.721  14.532  78.919  1.00  0.00    -0.393 OA
HETATM   26  C1  UNL     1      41.486  15.682  78.749  1.00  0.00     0.201 C 
ENDBRANCH  24  25
ENDBRANCH   1  24
TORSDOF 4
ENDMDL
MODEL 4
REMARK VINA RESULT: -5.901236904      1.146      1.832
REMARK  4 active torsions:
REMARK  status: ('A' for Active; 'I' for Inactive)
REMARK    1  A    between atoms: O1_2  and  C2_3 
REMARK    2  A    between atoms: C2_3  and  C3_4 
REMARK    3  A    between atoms: N1_20  and  C18_21 
REMARK    4  A    between atoms: C18_21  and  C19_22 
ROOT
HETATM    1  C3  UNL     1      42.462  14.155  80.505  1.00  0.00     0.154 C 
HETATM    2  O2  UNL     1      43.561  14.636  79.880  1.00  0.00    -0.373 OA
HETATM    3  C4  UNL     1      44.455  15.322  80.659  1.00  0.00     0.156 C 
HETATM    4  C5  UNL     1      45.576  14.317  80.981  1.00  0.00     0.037 C 
HETATM    5  C6  UNL     1      44.972  12.950  81.070  1.00  0.00     0.004 C 
HETATM    6  C7  UNL     1      43.896  12.802  82.086  1.00  0.00     0.012 C 
HETATM    7  C8  UNL     1      42.728  13.714  81.948  1.00  0.00     0.051 C 
HETATM    8  C9  UNL     1      43.065  14.997  82.644  1.00  0.00    -0.034 A 
HETATM    9  C10 UNL     1      42.547  15.349  83.848  1.00  0.00    -0.016 A 
HETATM   10  C11 UNL     1      42.910  16.558  84.395  1.00  0.00    -0.047 A 
HETATM   11  C12 UNL     1      43.784  17.359  83.698  1.00  0.00     0.015 A 
HETATM   12  C13 UNL     1      44.325  17.023  82.474  1.00  0.00    -0.052 A 
HETATM   13  C14 UNL     1      45.265  17.930  81.768  1.00  0.00     0.049 C 
HETATM   14  C15 UNL     1      43.943  15.805  81.950  1.00  0.00    -0.016 A 
HETATM   15  C16 UNL     1      42.338  16.928  85.705  1.00  0.00     0.069 C 
HETATM   16  C17 UNL     1      40.950  16.416  85.916  1.00  0.00     0.277 C 
HETATM   17  N1  UNL     1      40.537  15.396  85.034  1.00  0.00     0.093 N 
HETATM   18  C23 UNL     1      41.627  14.513  84.605  1.00  0.00     0.312 C 
ENDROOT
BRANCH  17  19
HETATM   19  C18 UNL     1      39.436  14.586  85.389  1.00  0.00     0.277 C 
BRANCH  19  20
HETATM   20  C19 UNL     1      39.624  13.117  85.425  1.00  0.00     0.014 C 
HETATM   21  C20 UNL     1      40.273  12.441  84.246  1.00  0.00     0.006 C 
HETATM   22  C21 UNL     1      39.212  11.348  84.338  1.00  0.00     0.001 C 
HETATM   23  C22 UNL     1      38.327  12.407  84.996  1.00  0.00     0.006 C 
ENDBRANCH  19  20
ENDBRANCH  17  19
BRANCH   1  24
HETATM   24  C2  UNL     1      41.767  13.044  79.796  1.00  0.00     0.199 C 
BRANCH  24  25
HETATM   25  O1  UNL     1      42.655  12.297  79.003  1.00  0.00    -0.393 OA
HETATM   26  C1  UNL     1      42.442  10.954  79.299  1.00  0.00     0.201 C 
ENDBRANCH  24  25
ENDBRANCH   1  24
TORSDOF 4
ENDMDL
MODEL 5
REMARK VINA RESULT: -4.719406693      1.812      4.005
REMARK  4 active torsions:
REMARK  status: ('A' for Active; 'I' for Inactive)
REMARK    1  A    between atoms: O1_2  and  C2_3 
REMARK    2  A    between atoms: C2_3  and  C3_4 
REMARK    3  A    between atoms: N1_20  and  C18_21 
REMARK    4  A    between atoms: C18_21  and  C19_22 
ROOT
HETATM    1  C3  UNL     1      44.561  15.394  83.399  1.00  0.00     0.154 C 
HETATM    2  O2  UNL     1      45.281  14.683  82.501  1.00  0.00    -0.373 OA
HETATM    3  C4  UNL     1      44.604  13.720  81.800  1.00  0.00     0.156 C 
HETATM    4  C5  UNL     1      44.285  14.354  80.434  1.00  0.00     0.037 C 
HETATM    5  C6  UNL     1      44.070  15.822  80.634  1.00  0.00     0.004 C 
HETATM    6  C7  UNL     1      42.984  16.175  81.586  1.00  0.00     0.012 C 
HETATM    7  C8  UNL     1      43.110  15.629  82.965  1.00  0.00     0.051 C 
HETATM    8  C9  UNL     1      42.522  14.252  82.967  1.00  0.00    -0.034 A 
HETATM    9  C10 UNL     1      41.315  13.959  83.514  1.00  0.00    -0.016 A 
HETATM   10  C11 UNL     1      40.872  12.657  83.476  1.00  0.00    -0.047 A 
HETATM   11  C12 UNL     1      41.671  11.707  82.885  1.00  0.00     0.015 A 
HETATM   12  C13 UNL     1      42.900  11.980  82.322  1.00  0.00    -0.052 A 
HETATM   13  C14 UNL     1      43.719  10.911  81.697  1.00  0.00     0.049 C 
HETATM   14  C15 UNL     1      43.320  13.294  82.374  1.00  0.00    -0.016 A 
HETATM   15  C16 UNL     1      39.557  12.353  84.075  1.00  0.00     0.069 C 
HETATM   16  C17 UNL     1      39.230  13.205  85.259  1.00  0.00     0.277 C 
HETATM   17  N1  UNL     1      40.016  14.365  85.410  1.00  0.00     0.093 N 
HETATM   18  C23 UNL     1      40.451  14.950  84.137  1.00  0.00     0.312 C 
ENDROOT
BRANCH  17  19
HETATM   19  C18 UNL     1      39.543  15.413  86.230  1.00  0.00     0.277 C 
BRANCH  19  20
HETATM   20  C19 UNL     1      38.136  15.850  86.075  1.00  0.00     0.014 C 
HETATM   21  C20 UNL     1      37.798  17.299  86.308  1.00  0.00     0.006 C 
HETATM   22  C21 UNL     1      36.569  16.847  87.091  1.00  0.00     0.001 C 
HETATM   23  C22 UNL     1      37.346  15.559  87.363  1.00  0.00     0.006 C 
ENDBRANCH  19  20
ENDBRANCH  17  19
BRANCH   1  24
HETATM   24  C2  UNL     1      45.152  16.705  83.790  1.00  0.00     0.199 C 
BRANCH  24  25
HETATM   25  O1  UNL     1      44.165  17.621  84.193  1.00  0.00    -0.393 OA
HETATM   26  C1  UNL     1      43.654  17.171  85.406  1.00  0.00     0.201 C 
ENDBRANCH  24  25
ENDBRANCH   1  24
TORSDOF 4
ENDMDL
