MODEL 1
REMARK VINA RESULT: -4.009752263      0.000      0.000
REMARK  4 active torsions:
REMARK  status: ('A' for Active; 'I' for Inactive)
REMARK    1  A    between atoms: C2_2  and  N1_3 
REMARK    2  A    between atoms: C3_4  and  C4_5 
REMARK    3  A    between atoms: C4_5  and  C5_6 
REMARK    4  A    between atoms: C13_15  and  N2_16 
ROOT
HETATM    1  N1  UNL     1      39.446  15.592  86.141  1.00  0.00     0.098 N 
HETATM    2  C3  UNL     1      38.212  15.066  85.716  1.00  0.00     0.230 C 
HETATM    3  C7  UNL     1      38.241  13.914  84.776  1.00  0.00     0.036 C 
HETATM    4  C8  UNL     1      39.437  13.835  83.856  1.00  0.00     0.009 C 
HETATM    5  C9  UNL     1      40.657  13.986  84.757  1.00  0.00     0.023 C 
HETATM    6  C10 UNL     1      41.923  13.495  84.279  1.00  0.00    -0.002 C 
HETATM    7  C11 UNL     1      41.767  12.233  83.415  1.00  0.00     0.007 C 
HETATM    8  C12 UNL     1      43.225  11.995  83.096  1.00  0.00     0.026 C 
HETATM    9  C13 UNL     1      43.647  13.351  82.588  1.00  0.00     0.083 C 
HETATM   10  C18 UNL     1      42.884  14.291  83.498  1.00  0.00     0.012 C 
HETATM   11  C19 UNL     1      42.413  15.501  82.802  1.00  0.00     0.007 C 
HETATM   12  C20 UNL     1      42.476  16.773  83.609  1.00  0.00     0.001 C 
HETATM   13  C21 UNL     1      42.753  16.641  85.057  1.00  0.00     0.002 C 
HETATM   14  C22 UNL     1      41.856  15.781  85.864  1.00  0.00     0.036 C 
HETATM   15  C23 UNL     1      40.576  15.405  85.220  1.00  0.00     0.228 C 
ENDROOT
BRANCH   9  16
HETATM   16  N2  UNL     1      43.663  13.556  81.242  1.00  0.00    -0.408 N 
HETATM   17  C14 UNL     1      42.715  13.372  80.285  1.00  0.00     0.117 C 
HETATM   18  C15 UNL     1      43.390  13.337  78.906  1.00  0.00     0.021 C 
HETATM   19  C16 UNL     1      44.840  13.487  79.208  1.00  0.00     0.021 C 
HETATM   20  C17 UNL     1      44.867  14.051  80.604  1.00  0.00     0.117 C 
ENDBRANCH   9  16
BRANCH   1  21
HETATM   21  C2  UNL     1      39.334  17.061  86.184  1.00  0.00     0.269 C 
HETATM   22  C1  UNL     1      38.313  17.629  85.275  1.00  0.00     0.037 C 
ENDBRANCH   1  21
BRANCH   2  23
HETATM   23  C4  UNL     1      37.417  14.558  86.916  1.00  0.00     0.113 C 
BRANCH  23  24
HETATM   24  C5  UNL     1      36.370  15.538  87.337  1.00  0.00     0.125 C 
HETATM   25  C6  UNL     1      35.921  15.544  88.774  1.00  0.00     0.091 C 
HETATM   26  O1  UNL     1      35.835  16.348  86.605  1.00  0.00    -0.298 OA
ENDBRANCH  23  24
ENDBRANCH   2  23
TORSDOF 4
ENDMDL
MODEL 2
REMARK VINA RESULT: -2.475280123      2.624      7.417
REMARK  4 active torsions:
REMARK  status: ('A' for Active; 'I' for Inactive)
REMARK    1  A    between atoms: C2_2  and  N1_3 
REMARK    2  A    between atoms: C3_4  and  C4_5 
REMARK    3  A    between atoms: C4_5  and  C5_6 
REMARK    4  A    between atoms: C13_15  and  N2_16 
ROOT
HETATM    1  N1  UNL     1      43.138  12.776  81.757  1.00  0.00     0.098 N 
HETATM    2  C3  UNL     1      43.369  13.690  80.712  1.00  0.00     0.230 C 
HETATM    3  C7  UNL     1      43.166  15.135  81.001  1.00  0.00     0.036 C 
HETATM    4  C8  UNL     1      42.140  15.464  82.061  1.00  0.00     0.009 C 
HETATM    5  C9  UNL     1      42.494  14.591  83.259  1.00  0.00     0.023 C 
HETATM    6  C10 UNL     1      42.023  14.992  84.559  1.00  0.00    -0.002 C 
HETATM    7  C11 UNL     1      41.985  16.521  84.715  1.00  0.00     0.007 C 
HETATM    8  C12 UNL     1      41.467  16.591  86.134  1.00  0.00     0.026 C 
HETATM    9  C13 UNL     1      40.258  15.694  86.057  1.00  0.00     0.083 C 
HETATM   10  C18 UNL     1      40.730  14.588  85.137  1.00  0.00     0.012 C 
HETATM   11  C19 UNL     1      39.667  14.096  84.242  1.00  0.00     0.007 C 
HETATM   12  C20 UNL     1      39.677  12.610  83.989  1.00  0.00     0.001 C 
HETATM   13  C21 UNL     1      40.867  11.855  84.441  1.00  0.00     0.002 C 
HETATM   14  C22 UNL     1      42.196  12.284  83.946  1.00  0.00     0.036 C 
HETATM   15  C23 UNL     1      42.183  13.207  82.788  1.00  0.00     0.228 C 
ENDROOT
BRANCH   9  16
HETATM   16  N2  UNL     1      39.039  16.274  85.868  1.00  0.00    -0.408 N 
HETATM   17  C14 UNL     1      38.648  17.340  85.122  1.00  0.00     0.117 C 
HETATM   18  C15 UNL     1      37.275  17.822  85.611  1.00  0.00     0.021 C 
HETATM   19  C16 UNL     1      36.957  16.918  86.750  1.00  0.00     0.021 C 
HETATM   20  C17 UNL     1      37.876  15.741  86.551  1.00  0.00     0.117 C 
ENDBRANCH   9  16
BRANCH   1  21
HETATM   21  C2  UNL     1      42.463  11.593  81.198  1.00  0.00     0.269 C 
HETATM   22  C1  UNL     1      42.358  11.581  79.721  1.00  0.00     0.037 C 
ENDBRANCH   1  21
BRANCH   2  23
HETATM   23  C4  UNL     1      44.819  13.595  80.244  1.00  0.00     0.113 C 
BRANCH  23  24
HETATM   24  C5  UNL     1      45.725  14.435  81.084  1.00  0.00     0.125 C 
HETATM   25  C6  UNL     1      46.166  13.906  82.423  1.00  0.00     0.091 C 
HETATM   26  O1  UNL     1      46.147  15.533  80.777  1.00  0.00    -0.298 OA
ENDBRANCH  23  24
ENDBRANCH   2  23
TORSDOF 4
ENDMDL
MODEL 3
REMARK VINA RESULT: -1.479770237      2.672      7.593
REMARK  4 active torsions:
REMARK  status: ('A' for Active; 'I' for Inactive)
REMARK    1  A    between atoms: C2_2  and  N1_3 
REMARK    2  A    between atoms: C3_4  and  C4_5 
REMARK    3  A    between atoms: C4_5  and  C5_6 
REMARK    4  A    between atoms: C13_15  and  N2_16 
ROOT
HETATM    1  N1  UNL     1      42.373  13.596  83.359  1.00  0.00     0.098 N 
HETATM    2  C3  UNL     1      43.083  14.596  82.671  1.00  0.00     0.230 C 
HETATM    3  C7  UNL     1      42.965  15.993  83.168  1.00  0.00     0.036 C 
HETATM    4  C8  UNL     1      41.666  16.346  83.857  1.00  0.00     0.009 C 
HETATM    5  C9  UNL     1      41.442  15.252  84.894  1.00  0.00     0.023 C 
HETATM    6  C10 UNL     1      40.575  15.535  86.007  1.00  0.00    -0.002 C 
HETATM    7  C11 UNL     1      40.667  17.002  86.457  1.00  0.00     0.007 C 
HETATM    8  C12 UNL     1      39.674  16.954  87.594  1.00  0.00     0.026 C 
HETATM    9  C13 UNL     1      38.480  16.323  86.923  1.00  0.00     0.083 C 
HETATM   10  C18 UNL     1      39.122  15.299  86.012  1.00  0.00     0.012 C 
HETATM   11  C19 UNL     1      38.415  15.157  84.726  1.00  0.00     0.007 C 
HETATM   12  C20 UNL     1      38.337  13.751  84.187  1.00  0.00     0.001 C 
HETATM   13  C21 UNL     1      39.174  12.726  84.851  1.00  0.00     0.002 C 
HETATM   14  C22 UNL     1      40.633  12.966  84.941  1.00  0.00     0.036 C 
HETATM   15  C23 UNL     1      41.163  14.039  84.068  1.00  0.00     0.228 C 
ENDROOT
BRANCH   9  16
HETATM   16  N2  UNL     1      37.498  17.144  86.455  1.00  0.00    -0.408 N 
HETATM   17  C14 UNL     1      37.444  17.970  85.378  1.00  0.00     0.117 C 
HETATM   18  C15 UNL     1      36.296  18.972  85.568  1.00  0.00     0.021 C 
HETATM   19  C16 UNL     1      35.734  18.632  86.903  1.00  0.00     0.021 C 
HETATM   20  C17 UNL     1      36.239  17.238  87.169  1.00  0.00     0.117 C 
ENDBRANCH   9  16
BRANCH   1  21
HETATM   21  C2  UNL     1      41.814  12.658  82.369  1.00  0.00     0.269 C 
HETATM   22  C1  UNL     1      41.666  13.216  81.006  1.00  0.00     0.037 C 
ENDBRANCH   1  21
BRANCH   2  23
HETATM   23  C4  UNL     1      44.580  14.301  82.717  1.00  0.00     0.113 C 
BRANCH  23  24
HETATM   24  C5  UNL     1      45.262  14.711  81.452  1.00  0.00     0.125 C 
HETATM   25  C6  UNL     1      45.089  13.853  80.227  1.00  0.00     0.091 C 
HETATM   26  O1  UNL     1      45.959  15.699  81.320  1.00  0.00    -0.298 OA
ENDBRANCH  23  24
ENDBRANCH   2  23
TORSDOF 4
ENDMDL
MODEL 4
REMARK VINA RESULT: -1.281117832      2.772      7.765
REMARK  4 active torsions:
REMARK  status: ('A' for Active; 'I' for Inactive)
REMARK    1  A    between atoms: C2_2  and  N1_3 
REMARK    2  A    between atoms: C3_4  and  C4_5 
REMARK    3  A    between atoms: C4_5  and  C5_6 
REMARK    4  A    between atoms: C13_15  and  N2_16 
ROOT
HETATM    1  N1  UNL     1      41.870  14.081  83.588  1.00  0.00     0.098 N 
HETATM    2  C3  UNL     1      42.608  15.189  83.132  1.00  0.00     0.230 C 
HETATM    3  C7  UNL     1      42.443  16.475  83.861  1.00  0.00     0.036 C 
HETATM    4  C8  UNL     1      41.102  16.699  84.521  1.00  0.00     0.009 C 
HETATM    5  C9  UNL     1      40.829  15.437  85.331  1.00  0.00     0.023 C 
HETATM    6  C10 UNL     1      39.893  15.516  86.422  1.00  0.00    -0.002 C 
HETATM    7  C11 UNL     1      39.940  16.880  87.130  1.00  0.00     0.007 C 
HETATM    8  C12 UNL     1      38.880  16.629  88.177  1.00  0.00     0.026 C 
HETATM    9  C13 UNL     1      37.737  16.126  87.333  1.00  0.00     0.083 C 
HETATM   10  C18 UNL     1      38.445  15.281  86.295  1.00  0.00     0.012 C 
HETATM   11  C19 UNL     1      37.819  15.369  84.964  1.00  0.00     0.007 C 
HETATM   12  C20 UNL     1      37.791  14.081  84.180  1.00  0.00     0.001 C 
HETATM   13  C21 UNL     1      38.599  12.956  84.702  1.00  0.00     0.002 C 
HETATM   14  C22 UNL     1      40.046  13.178  84.922  1.00  0.00     0.036 C 
HETATM   15  C23 UNL     1      40.614  14.390  84.287  1.00  0.00     0.228 C 
ENDROOT
BRANCH   9  16
HETATM   16  N2  UNL     1      36.775  17.016  86.959  1.00  0.00    -0.408 N 
HETATM   17  C14 UNL     1      36.846  18.210  86.314  1.00  0.00     0.117 C 
HETATM   18  C15 UNL     1      35.539  18.983  86.540  1.00  0.00     0.021 C 
HETATM   19  C16 UNL     1      34.738  18.093  87.424  1.00  0.00     0.021 C 
HETATM   20  C17 UNL     1      35.385  16.742  87.266  1.00  0.00     0.117 C 
ENDBRANCH   9  16
BRANCH   1  21
HETATM   21  C2  UNL     1      41.384  13.334  82.414  1.00  0.00     0.269 C 
HETATM   22  C1  UNL     1      42.230  12.185  82.019  1.00  0.00     0.037 C 
ENDBRANCH   1  21
BRANCH   2  23
HETATM   23  C4  UNL     1      44.104  14.893  83.217  1.00  0.00     0.113 C 
BRANCH  23  24
HETATM   24  C5  UNL     1      44.753  14.950  81.873  1.00  0.00     0.125 C 
HETATM   25  C6  UNL     1      44.897  16.287  81.195  1.00  0.00     0.091 C 
HETATM   26  O1  UNL     1      45.187  13.991  81.263  1.00  0.00    -0.298 OA
ENDBRANCH  23  24
ENDBRANCH   2  23
TORSDOF 4
ENDMDL
MODEL 5
REMARK VINA RESULT: -1.258534631      2.606      7.412
REMARK  4 active torsions:
REMARK  status: ('A' for Active; 'I' for Inactive)
REMARK    1  A    between atoms: C2_2  and  N1_3 
REMARK    2  A    between atoms: C3_4  and  C4_5 
REMARK    3  A    between atoms: C4_5  and  C5_6 
REMARK    4  A    between atoms: C13_15  and  N2_16 
ROOT
HETATM    1  N1  UNL     1      43.666  13.753  81.776  1.00  0.00     0.098 N 
HETATM    2  C3  UNL     1      43.915  14.859  80.943  1.00  0.00     0.230 C 
HETATM    3  C7  UNL     1      43.549  16.206  81.455  1.00  0.00     0.036 C 
HETATM    4  C8  UNL     1      42.393  16.257  82.427  1.00  0.00     0.009 C 
HETATM    5  C9  UNL     1      42.703  15.205  83.487  1.00  0.00     0.023 C 
HETATM    6  C10 UNL     1      42.065  15.323  84.772  1.00  0.00    -0.002 C 
HETATM    7  C11 UNL     1      41.868  16.789  85.190  1.00  0.00     0.007 C 
HETATM    8  C12 UNL     1      41.203  16.557  86.527  1.00  0.00     0.026 C 
HETATM    9  C13 UNL     1      40.098  15.603  86.151  1.00  0.00     0.083 C 
HETATM   10  C18 UNL     1      40.765  14.724  85.114  1.00  0.00     0.012 C 
HETATM   11  C19 UNL     1      39.850  14.329  84.028  1.00  0.00     0.007 C 
HETATM   12  C20 UNL     1      40.025  12.921  83.520  1.00  0.00     0.001 C 
HETATM   13  C21 UNL     1      41.229  12.186  83.970  1.00  0.00     0.002 C 
HETATM   14  C22 UNL     1      42.555  12.795  83.718  1.00  0.00     0.036 C 
HETATM   15  C23 UNL     1      42.574  13.914  82.747  1.00  0.00     0.228 C 
ENDROOT
BRANCH   9  16
HETATM   16  N2  UNL     1      38.856  16.116  85.925  1.00  0.00    -0.408 N 
HETATM   17  C14 UNL     1      38.437  17.367  85.599  1.00  0.00     0.117 C 
HETATM   18  C15 UNL     1      36.936  17.490  85.896  1.00  0.00     0.021 C 
HETATM   19  C16 UNL     1      36.568  16.164  86.465  1.00  0.00     0.021 C 
HETATM   20  C17 UNL     1      37.693  15.257  86.037  1.00  0.00     0.117 C 
ENDBRANCH   9  16
BRANCH   1  21
HETATM   21  C2  UNL     1      43.166  12.647  80.942  1.00  0.00     0.269 C 
HETATM   22  C1  UNL     1      41.998  12.988  80.098  1.00  0.00     0.037 C 
ENDBRANCH   1  21
BRANCH   2  23
HETATM   23  C4  UNL     1      45.408  14.960  80.639  1.00  0.00     0.113 C 
BRANCH  23  24
HETATM   24  C5  UNL     1      46.231  14.851  81.882  1.00  0.00     0.125 C 
HETATM   25  C6  UNL     1      46.819  16.107  82.471  1.00  0.00     0.091 C 
HETATM   26  O1  UNL     1      46.474  13.817  82.473  1.00  0.00    -0.298 OA
ENDBRANCH  23  24
ENDBRANCH   2  23
TORSDOF 4
ENDMDL
