MODEL 1
REMARK VINA RESULT: -7.436625961      0.000      0.000
REMARK  5 active torsions:
REMARK  status: ('A' for Active; 'I' for Inactive)
REMARK    1  A    between atoms: C3_3  and  C4_4 
REMARK    2  A    between atoms: C4_4  and  C5_5 
REMARK    3  A    between atoms: C5_5  and  N1_6 
REMARK    4  A    between atoms: C7_8  and  O1_9 
REMARK    5  A    between atoms: C8_11  and  O2_12 
ROOT
HETATM    1  C1  UNL     1      43.203  17.447  85.472  1.00  0.00     0.015 C 
HETATM    2  C2  UNL     1      43.257  16.474  84.581  1.00  0.00    -0.076 C 
HETATM    3  C3  UNL     1      42.378  15.318  84.682  1.00  0.00     0.044 C 
HETATM    4  C10 UNL     1      42.107  14.764  83.366  1.00  0.00    -0.070 C 
HETATM    5  C11 UNL     1      40.929  14.156  83.103  1.00  0.00    -0.022 C 
HETATM    6  C12 UNL     1      40.773  13.629  81.718  1.00  0.00     0.033 C 
HETATM    7  C13 UNL     1      41.963  12.778  81.331  1.00  0.00     0.005 C 
HETATM    8  C14 UNL     1      41.871  12.564  79.834  1.00  0.00     0.084 C 
HETATM    9  C15 UNL     1      42.979  11.663  79.466  1.00  0.00     0.127 C 
HETATM   10  O3  UNL     1      42.802  10.761  78.696  1.00  0.00    -0.298 OA
HETATM   11  C16 UNL     1      44.297  11.900  80.069  1.00  0.00     0.079 C 
HETATM   12  C17 UNL     1      44.367  13.227  80.798  1.00  0.00     0.017 C 
HETATM   13  C18 UNL     1      43.264  13.368  81.786  1.00  0.00    -0.032 C 
HETATM   14  C19 UNL     1      43.681  12.599  83.050  1.00  0.00     0.016 C 
HETATM   15  C20 UNL     1      43.041  14.794  82.236  1.00  0.00     0.028 C 
HETATM   16  C21 UNL     1      44.267  15.596  82.442  1.00  0.00     0.003 C 
HETATM   17  C22 UNL     1      44.606  16.380  81.192  1.00  0.00     0.006 C 
HETATM   18  C23 UNL     1      44.984  17.750  81.637  1.00  0.00     0.001 C 
HETATM   19  C24 UNL     1      44.123  17.963  82.865  1.00  0.00     0.009 C 
HETATM   20  C25 UNL     1      44.245  16.585  83.520  1.00  0.00     0.019 C 
ENDROOT
BRANCH   3  21
HETATM   21  C4  UNL     1      41.145  15.506  85.521  1.00  0.00     0.033 C 
BRANCH  21  22
HETATM   22  C5  UNL     1      39.958  16.059  84.834  1.00  0.00     0.129 C 
BRANCH  22  23
HETATM   23  N1  UNL     1      38.844  15.944  85.792  1.00  0.00    -0.361 N 
HETATM   24  C6  UNL     1      38.124  17.004  86.185  1.00  0.00     0.130 A 
HETATM   25  C7  UNL     1      37.156  16.608  87.077  1.00  0.00     0.115 A 
HETATM   26  C8  UNL     1      37.327  15.251  87.203  1.00  0.00     0.115 A 
HETATM   27  C9  UNL     1      38.377  14.868  86.398  1.00  0.00     0.130 A 
BRANCH  25  28
HETATM   28  O1  UNL     1      36.201  17.356  87.729  1.00  0.00    -0.357 OA
ATOM     29  H1  UNL     1      36.300  18.132  88.268  1.00  0.00     0.218 HD
ENDBRANCH  25  28
BRANCH  26  30
HETATM   30  O2  UNL     1      36.557  14.429  88.012  1.00  0.00    -0.357 OA
ATOM     31  H2  UNL     1      35.909  13.810  87.697  1.00  0.00     0.218 HD
ENDBRANCH  26  30
ENDBRANCH  22  23
ENDBRANCH  21  22
ENDBRANCH   3  21
TORSDOF 5
ENDMDL
MODEL 2
REMARK VINA RESULT: -7.251865675      0.053      1.029
REMARK  5 active torsions:
REMARK  status: ('A' for Active; 'I' for Inactive)
REMARK    1  A    between atoms: C3_3  and  C4_4 
REMARK    2  A    between atoms: C4_4  and  C5_5 
REMARK    3  A    between atoms: C5_5  and  N1_6 
REMARK    4  A    between atoms: C7_8  and  O1_9 
REMARK    5  A    between atoms: C8_11  and  O2_12 
ROOT
HETATM    1  C1  UNL     1      43.157  17.434  85.478  1.00  0.00     0.015 C 
HETATM    2  C2  UNL     1      43.218  16.460  84.590  1.00  0.00    -0.076 C 
HETATM    3  C3  UNL     1      42.328  15.312  84.676  1.00  0.00     0.044 C 
HETATM    4  C10 UNL     1      42.076  14.758  83.356  1.00  0.00    -0.070 C 
HETATM    5  C11 UNL     1      40.898  14.160  83.072  1.00  0.00    -0.022 C 
HETATM    6  C12 UNL     1      40.763  13.633  81.685  1.00  0.00     0.033 C 
HETATM    7  C13 UNL     1      41.953  12.771  81.320  1.00  0.00     0.005 C 
HETATM    8  C14 UNL     1      41.885  12.556  79.822  1.00  0.00     0.084 C 
HETATM    9  C15 UNL     1      42.992  11.645  79.476  1.00  0.00     0.127 C 
HETATM   10  O3  UNL     1      42.821  10.744  78.704  1.00  0.00    -0.298 OA
HETATM   11  C16 UNL     1      44.301  11.872  80.102  1.00  0.00     0.079 C 
HETATM   12  C17 UNL     1      44.369  13.199  80.831  1.00  0.00     0.017 C 
HETATM   13  C18 UNL     1      43.250  13.350  81.798  1.00  0.00    -0.032 C 
HETATM   14  C19 UNL     1      43.637  12.580  83.070  1.00  0.00     0.016 C 
HETATM   15  C20 UNL     1      43.031  14.779  82.243  1.00  0.00     0.028 C 
HETATM   16  C21 UNL     1      44.260  15.570  82.471  1.00  0.00     0.003 C 
HETATM   17  C22 UNL     1      44.628  16.350  81.226  1.00  0.00     0.006 C 
HETATM   18  C23 UNL     1      45.009  17.718  81.676  1.00  0.00     0.001 C 
HETATM   19  C24 UNL     1      44.128  17.939  82.888  1.00  0.00     0.009 C 
HETATM   20  C25 UNL     1      44.226  16.561  83.547  1.00  0.00     0.019 C 
ENDROOT
BRANCH   3  21
HETATM   21  C4  UNL     1      41.081  15.510  85.492  1.00  0.00     0.033 C 
BRANCH  21  22
HETATM   22  C5  UNL     1      39.896  16.024  84.771  1.00  0.00     0.129 C 
BRANCH  22  23
HETATM   23  N1  UNL     1      38.799  16.039  85.754  1.00  0.00    -0.361 N 
HETATM   24  C6  UNL     1      38.366  14.925  86.363  1.00  0.00     0.130 A 
HETATM   25  C7  UNL     1      37.340  15.230  87.224  1.00  0.00     0.115 A 
HETATM   26  C8  UNL     1      37.174  16.588  87.107  1.00  0.00     0.115 A 
HETATM   27  C9  UNL     1      38.088  17.062  86.192  1.00  0.00     0.130 A 
BRANCH  25  28
HETATM   28  O1  UNL     1      36.606  14.405  88.048  1.00  0.00    -0.357 OA
ATOM     29  H1  UNL     1      35.940  14.623  88.689  1.00  0.00     0.218 HD
ENDBRANCH  25  28
BRANCH  26  30
HETATM   30  O2  UNL     1      36.235  17.333  87.804  1.00  0.00    -0.357 OA
ATOM     31  H2  UNL     1      35.394  17.006  88.101  1.00  0.00     0.218 HD
ENDBRANCH  26  30
ENDBRANCH  22  23
ENDBRANCH  21  22
ENDBRANCH   3  21
TORSDOF 5
ENDMDL
MODEL 3
REMARK VINA RESULT: -6.937189404      2.369      4.485
REMARK  5 active torsions:
REMARK  status: ('A' for Active; 'I' for Inactive)
REMARK    1  A    between atoms: C3_3  and  C4_4 
REMARK    2  A    between atoms: C4_4  and  C5_5 
REMARK    3  A    between atoms: C5_5  and  N1_6 
REMARK    4  A    between atoms: C7_8  and  O1_9 
REMARK    5  A    between atoms: C8_11  and  O2_12 
ROOT
HETATM    1  C1  UNL     1      37.861  14.262  85.492  1.00  0.00     0.015 C 
HETATM    2  C2  UNL     1      39.001  14.606  84.922  1.00  0.00    -0.076 C 
HETATM    3  C3  UNL     1      39.588  15.918  85.155  1.00  0.00     0.044 C 
HETATM    4  C10 UNL     1      41.036  15.859  85.039  1.00  0.00    -0.070 C 
HETATM    5  C11 UNL     1      41.820  16.684  85.767  1.00  0.00    -0.022 C 
HETATM    6  C12 UNL     1      43.287  16.527  85.559  1.00  0.00     0.033 C 
HETATM    7  C13 UNL     1      43.625  16.561  84.083  1.00  0.00     0.005 C 
HETATM    8  C14 UNL     1      45.055  16.078  83.959  1.00  0.00     0.084 C 
HETATM    9  C15 UNL     1      45.417  16.192  82.533  1.00  0.00     0.127 C 
HETATM   10  O3  UNL     1      46.487  16.626  82.208  1.00  0.00    -0.298 OA
HETATM   11  C16 UNL     1      44.434  15.764  81.530  1.00  0.00     0.079 C 
HETATM   12  C17 UNL     1      43.270  15.016  82.147  1.00  0.00     0.017 C 
HETATM   13  C18 UNL     1      42.644  15.791  83.251  1.00  0.00    -0.032 C 
HETATM   14  C19 UNL     1      41.701  16.821  82.611  1.00  0.00     0.016 C 
HETATM   15  C20 UNL     1      41.769  14.949  84.153  1.00  0.00     0.028 C 
HETATM   16  C21 UNL     1      40.949  13.925  83.469  1.00  0.00     0.003 C 
HETATM   17  C22 UNL     1      41.667  12.592  83.455  1.00  0.00     0.006 C 
HETATM   18  C23 UNL     1      40.654  11.557  83.802  1.00  0.00     0.001 C 
HETATM   19  C24 UNL     1      39.722  12.290  84.745  1.00  0.00     0.009 C 
HETATM   20  C25 UNL     1      39.628  13.642  84.032  1.00  0.00     0.019 C 
ENDROOT
BRANCH   3  21
HETATM   21  C4  UNL     1      39.112  16.638  86.386  1.00  0.00     0.033 C 
BRANCH  21  22
HETATM   22  C5  UNL     1      38.068  17.666  86.186  1.00  0.00     0.129 C 
BRANCH  22  23
HETATM   23  N1  UNL     1      36.914  17.233  86.994  1.00  0.00    -0.361 N 
HETATM   24  C6  UNL     1      35.933  18.074  87.352  1.00  0.00     0.130 A 
HETATM   25  C7  UNL     1      34.992  17.406  88.097  1.00  0.00     0.115 A 
HETATM   26  C8  UNL     1      35.452  16.115  88.172  1.00  0.00     0.115 A 
HETATM   27  C9  UNL     1      36.642  16.036  87.482  1.00  0.00     0.130 A 
BRANCH  25  28
HETATM   28  O1  UNL     1      33.827  17.872  88.666  1.00  0.00    -0.357 OA
ATOM     29  H1  UNL     1      32.924  17.725  88.409  1.00  0.00     0.218 HD
ENDBRANCH  25  28
BRANCH  26  30
HETATM   30  O2  UNL     1      34.809  15.083  88.837  1.00  0.00    -0.357 OA
ATOM     31  H2  UNL     1      35.228  14.282  89.131  1.00  0.00     0.218 HD
ENDBRANCH  26  30
ENDBRANCH  22  23
ENDBRANCH  21  22
ENDBRANCH   3  21
TORSDOF 5
ENDMDL
MODEL 4
REMARK VINA RESULT: -6.864137865      2.426      4.685
REMARK  5 active torsions:
REMARK  status: ('A' for Active; 'I' for Inactive)
REMARK    1  A    between atoms: C3_3  and  C4_4 
REMARK    2  A    between atoms: C4_4  and  C5_5 
REMARK    3  A    between atoms: C5_5  and  N1_6 
REMARK    4  A    between atoms: C7_8  and  O1_9 
REMARK    5  A    between atoms: C8_11  and  O2_12 
ROOT
HETATM    1  C1  UNL     1      37.653  14.377  85.559  1.00  0.00     0.015 C 
HETATM    2  C2  UNL     1      38.810  14.685  85.005  1.00  0.00    -0.076 C 
HETATM    3  C3  UNL     1      39.414  15.993  85.213  1.00  0.00     0.044 C 
HETATM    4  C10 UNL     1      40.863  15.907  85.129  1.00  0.00    -0.070 C 
HETATM    5  C11 UNL     1      41.646  16.739  85.851  1.00  0.00    -0.022 C 
HETATM    6  C12 UNL     1      43.114  16.551  85.679  1.00  0.00     0.033 C 
HETATM    7  C13 UNL     1      43.484  16.536  84.211  1.00  0.00     0.005 C 
HETATM    8  C14 UNL     1      44.908  16.027  84.131  1.00  0.00     0.084 C 
HETATM    9  C15 UNL     1      45.302  16.093  82.711  1.00  0.00     0.127 C 
HETATM   10  O3  UNL     1      46.386  16.499  82.397  1.00  0.00    -0.298 OA
HETATM   11  C16 UNL     1      44.333  15.652  81.700  1.00  0.00     0.079 C 
HETATM   12  C17 UNL     1      43.143  14.942  82.313  1.00  0.00     0.017 C 
HETATM   13  C18 UNL     1      42.508  15.759  83.380  1.00  0.00    -0.032 C 
HETATM   14  C19 UNL     1      41.597  16.786  82.690  1.00  0.00     0.016 C 
HETATM   15  C20 UNL     1      41.599  14.959  84.286  1.00  0.00     0.028 C 
HETATM   16  C21 UNL     1      40.776  13.929  83.615  1.00  0.00     0.003 C 
HETATM   17  C22 UNL     1      41.471  12.585  83.655  1.00  0.00     0.006 C 
HETATM   18  C23 UNL     1      40.433  11.577  84.009  1.00  0.00     0.001 C 
HETATM   19  C24 UNL     1      39.494  12.353  84.910  1.00  0.00     0.009 C 
HETATM   20  C25 UNL     1      39.439  13.685  84.157  1.00  0.00     0.019 C 
ENDROOT
BRANCH   3  21
HETATM   21  C4  UNL     1      38.926  16.756  86.412  1.00  0.00     0.033 C 
BRANCH  21  22
HETATM   22  C5  UNL     1      37.909  17.800  86.159  1.00  0.00     0.129 C 
BRANCH  22  23
HETATM   23  N1  UNL     1      36.748  17.446  86.994  1.00  0.00    -0.361 N 
HETATM   24  C6  UNL     1      36.536  16.198  87.436  1.00  0.00     0.130 A 
HETATM   25  C7  UNL     1      35.387  16.156  88.188  1.00  0.00     0.115 A 
HETATM   26  C8  UNL     1      34.913  17.444  88.180  1.00  0.00     0.115 A 
HETATM   27  C9  UNL     1      35.773  18.220  87.435  1.00  0.00     0.130 A 
BRANCH  25  28
HETATM   28  O1  UNL     1      34.794  15.091  88.831  1.00  0.00    -0.357 OA
ATOM     29  H1  UNL     1      34.052  15.077  89.424  1.00  0.00     0.218 HD
ENDBRANCH  25  28
BRANCH  26  30
HETATM   30  O2  UNL     1      33.759  17.866  88.822  1.00  0.00    -0.357 OA
ATOM     31  H2  UNL     1      33.633  18.728  89.202  1.00  0.00     0.218 HD
ENDBRANCH  26  30
ENDBRANCH  22  23
ENDBRANCH  21  22
ENDBRANCH   3  21
TORSDOF 5
ENDMDL
MODEL 5
REMARK VINA RESULT: -6.762462436      2.563      4.901
REMARK  5 active torsions:
REMARK  status: ('A' for Active; 'I' for Inactive)
REMARK    1  A    between atoms: C3_3  and  C4_4 
REMARK    2  A    between atoms: C4_4  and  C5_5 
REMARK    3  A    between atoms: C5_5  and  N1_6 
REMARK    4  A    between atoms: C7_8  and  O1_9 
REMARK    5  A    between atoms: C8_11  and  O2_12 
ROOT
HETATM    1  C1  UNL     1      37.113  14.868  85.227  1.00  0.00     0.015 C 
HETATM    2  C2  UNL     1      38.360  14.966  84.806  1.00  0.00    -0.076 C 
HETATM    3  C3  UNL     1      39.088  16.222  84.911  1.00  0.00     0.044 C 
HETATM    4  C10 UNL     1      40.514  15.977  85.049  1.00  0.00    -0.070 C 
HETATM    5  C11 UNL     1      41.295  16.828  85.750  1.00  0.00    -0.022 C 
HETATM    6  C12 UNL     1      42.739  16.467  85.818  1.00  0.00     0.033 C 
HETATM    7  C13 UNL     1      43.287  16.184  84.435  1.00  0.00     0.005 C 
HETATM    8  C14 UNL     1      44.637  15.526  84.634  1.00  0.00     0.084 C 
HETATM    9  C15 UNL     1      45.212  15.329  83.290  1.00  0.00     0.127 C 
HETATM   10  O3  UNL     1      46.369  15.568  83.081  1.00  0.00    -0.298 OA
HETATM   11  C16 UNL     1      44.332  14.836  82.223  1.00  0.00     0.079 C 
HETATM   12  C17 UNL     1      42.997  14.355  82.753  1.00  0.00     0.017 C 
HETATM   13  C18 UNL     1      42.336  15.390  83.592  1.00  0.00    -0.032 C 
HETATM   14  C19 UNL     1      41.652  16.383  82.640  1.00  0.00     0.016 C 
HETATM   15  C20 UNL     1      41.229  14.839  84.463  1.00  0.00     0.028 C 
HETATM   16  C21 UNL     1      40.378  13.805  83.833  1.00  0.00     0.003 C 
HETATM   17  C22 UNL     1      40.894  12.420  84.162  1.00  0.00     0.006 C 
HETATM   18  C23 UNL     1      39.703  11.591  84.503  1.00  0.00     0.001 C 
HETATM   19  C24 UNL     1      38.760  12.591  85.141  1.00  0.00     0.009 C 
HETATM   20  C25 UNL     1      38.964  13.786  84.207  1.00  0.00     0.019 C 
ENDROOT
BRANCH   3  21
HETATM   21  C4  UNL     1      38.548  17.210  85.907  1.00  0.00     0.033 C 
BRANCH  21  22
HETATM   22  C5  UNL     1      38.017  16.651  87.168  1.00  0.00     0.129 C 
BRANCH  22  23
HETATM   23  N1  UNL     1      36.768  17.383  87.442  1.00  0.00    -0.361 N 
HETATM   24  C6  UNL     1      35.747  16.834  88.115  1.00  0.00     0.130 A 
HETATM   25  C7  UNL     1      34.717  17.737  88.224  1.00  0.00     0.115 A 
HETATM   26  C8  UNL     1      35.167  18.863  87.580  1.00  0.00     0.115 A 
HETATM   27  C9  UNL     1      36.437  18.617  87.107  1.00  0.00     0.130 A 
BRANCH  25  28
HETATM   28  O1  UNL     1      33.487  17.602  88.830  1.00  0.00    -0.357 OA
ATOM     29  H1  UNL     1      33.252  17.152  89.633  1.00  0.00     0.218 HD
ENDBRANCH  25  28
BRANCH  26  30
HETATM   30  O2  UNL     1      34.444  20.039  87.444  1.00  0.00    -0.357 OA
ATOM     31  H2  UNL     1      34.457  20.598  86.676  1.00  0.00     0.218 HD
ENDBRANCH  26  30
ENDBRANCH  22  23
ENDBRANCH  21  22
ENDBRANCH   3  21
TORSDOF 5
ENDMDL
