MODEL 1
REMARK VINA RESULT: -10.618590634      0.000      0.000
REMARK  5 active torsions:
REMARK  status: ('A' for Active; 'I' for Inactive)
REMARK    1  A    between atoms: C5_6  and  C6_7 
REMARK    2  A    between atoms: C9_10  and  C10_11 
REMARK    3  A    between atoms: C10_11  and  O2_12 
REMARK    4  A    between atoms: C10_11  and  C11_14 
REMARK    5  A    between atoms: C25_28  and  O3_29 
ROOT
HETATM    1  C6  UNL     1      38.353  15.694  86.086  1.00  0.00    -0.008 C 
HETATM    2  C7  UNL     1      38.308  14.200  86.123  1.00  0.00     0.005 C 
HETATM    3  C8  UNL     1      38.709  13.701  84.728  1.00  0.00     0.007 C 
HETATM    4  C9  UNL     1      39.891  14.475  84.201  1.00  0.00     0.015 C 
HETATM    5  C22 UNL     1      40.636  15.023  85.402  1.00  0.00     0.007 C 
HETATM    6  C23 UNL     1      39.778  16.148  85.997  1.00  0.00     0.005 C 
ENDROOT
BRANCH   4   7
HETATM    7  C10 UNL     1      40.790  13.544  83.425  1.00  0.00     0.126 C 
BRANCH   7   8
HETATM    8  O2  UNL     1      40.606  12.226  83.842  1.00  0.00    -0.395 OA
ATOM      9  H2  UNL     1      41.386  11.903  84.277  1.00  0.00     0.210 HD
ENDBRANCH   7   8
BRANCH   7  10
HETATM   10  C11 UNL     1      42.218  13.962  83.416  1.00  0.00     0.015 C 
HETATM   11  C12 UNL     1      43.156  12.981  82.798  1.00  0.00     0.007 C 
HETATM   12  C13 UNL     1      42.997  12.783  81.330  1.00  0.00     0.000 C 
HETATM   13  C14 UNL     1      44.355  12.823  80.616  1.00  0.00     0.000 C 
HETATM   14  C15 UNL     1      44.365  13.912  79.565  1.00  0.00     0.000 C 
HETATM   15  C16 UNL     1      45.532  14.836  79.681  1.00  0.00     0.000 C 
HETATM   16  C17 UNL     1      45.511  15.670  80.931  1.00  0.00     0.000 C 
HETATM   17  C18 UNL     1      44.390  16.654  80.950  1.00  0.00     0.000 C 
HETATM   18  C19 UNL     1      44.006  17.127  82.317  1.00  0.00     0.000 C 
HETATM   19  C20 UNL     1      43.582  16.035  83.238  1.00  0.00     0.000 C 
HETATM   20  C21 UNL     1      42.337  15.311  82.770  1.00  0.00     0.007 C 
ENDBRANCH   7  10
ENDBRANCH   4   7
BRANCH   1  21
HETATM   21  C5  UNL     1      37.695  16.329  87.296  1.00  0.00     0.016 C 
HETATM   22  C4  UNL     1      36.615  15.477  87.875  1.00  0.00     0.174 C 
HETATM   23  O1  UNL     1      35.828  16.234  88.737  1.00  0.00    -0.378 OA
HETATM   24  C2  UNL     1      35.054  17.160  88.083  1.00  0.00     0.079 C 
HETATM   25  C1  UNL     1      33.837  16.438  87.489  1.00  0.00     0.048 C 
HETATM   26  C3  UNL     1      34.474  18.090  89.158  1.00  0.00     0.048 C 
HETATM   27  C25 UNL     1      35.778  17.932  87.030  1.00  0.00     0.152 C 
HETATM   28  C24 UNL     1      37.261  17.747  87.034  1.00  0.00     0.042 C 
BRANCH  27  29
HETATM   29  O3  UNL     1      35.534  19.305  87.265  1.00  0.00    -0.393 OA
ATOM     30  H3  UNL     1      36.194  19.798  86.790  1.00  0.00     0.210 HD
ENDBRANCH  27  29
ENDBRANCH   1  21
TORSDOF 5
ENDMDL
MODEL 2
REMARK VINA RESULT: -10.333998057      1.996      9.237
REMARK  5 active torsions:
REMARK  status: ('A' for Active; 'I' for Inactive)
REMARK    1  A    between atoms: C5_6  and  C6_7 
REMARK    2  A    between atoms: C9_10  and  C10_11 
REMARK    3  A    between atoms: C10_11  and  O2_12 
REMARK    4  A    between atoms: C10_11  and  C11_14 
REMARK    5  A    between atoms: C25_28  and  O3_29 
ROOT
HETATM    1  C6  UNL     1      41.907  14.291  84.407  1.00  0.00    -0.008 C 
HETATM    2  C7  UNL     1      40.949  13.263  83.899  1.00  0.00     0.005 C 
HETATM    3  C8  UNL     1      39.851  13.104  84.960  1.00  0.00     0.007 C 
HETATM    4  C9  UNL     1      39.412  14.449  85.483  1.00  0.00     0.015 C 
HETATM    5  C22 UNL     1      39.729  15.470  84.409  1.00  0.00     0.007 C 
HETATM    6  C23 UNL     1      41.254  15.639  84.376  1.00  0.00     0.005 C 
ENDROOT
BRANCH   4   7
HETATM    7  C10 UNL     1      37.926  14.423  85.739  1.00  0.00     0.126 C 
BRANCH   7   8
HETATM    8  O2  UNL     1      37.229  14.882  84.622  1.00  0.00    -0.395 OA
ATOM      9  H2  UNL     1      37.576  15.719  84.335  1.00  0.00     0.210 HD
ENDBRANCH   7   8
BRANCH   7  10
HETATM   10  C11 UNL     1      37.526  15.103  87.001  1.00  0.00     0.015 C 
HETATM   11  C12 UNL     1      37.992  16.513  87.131  1.00  0.00     0.007 C 
HETATM   12  C13 UNL     1      37.375  17.480  86.179  1.00  0.00     0.000 C 
HETATM   13  C14 UNL     1      36.915  18.752  86.904  1.00  0.00     0.000 C 
HETATM   14  C15 UNL     1      35.432  18.971  86.695  1.00  0.00     0.000 C 
HETATM   15  C16 UNL     1      34.681  19.185  87.967  1.00  0.00     0.000 C 
HETATM   16  C17 UNL     1      34.651  17.972  88.854  1.00  0.00     0.000 C 
HETATM   17  C18 UNL     1      33.866  16.847  88.268  1.00  0.00     0.000 C 
HETATM   18  C19 UNL     1      34.214  15.500  88.817  1.00  0.00     0.000 C 
HETATM   19  C20 UNL     1      35.642  15.119  88.626  1.00  0.00     0.000 C 
HETATM   20  C21 UNL     1      36.038  15.002  87.169  1.00  0.00     0.007 C 
ENDBRANCH   7  10
ENDBRANCH   4   7
BRANCH   1  21
HETATM   21  C5  UNL     1      43.196  14.336  83.608  1.00  0.00     0.016 C 
HETATM   22  C4  UNL     1      44.000  15.562  83.886  1.00  0.00     0.174 C 
HETATM   23  O1  UNL     1      44.968  15.726  82.900  1.00  0.00    -0.378 OA
HETATM   24  C2  UNL     1      44.439  16.077  81.683  1.00  0.00     0.079 C 
HETATM   25  C1  UNL     1      44.114  17.576  81.713  1.00  0.00     0.048 C 
HETATM   26  C3  UNL     1      45.571  15.941  80.654  1.00  0.00     0.048 C 
HETATM   27  C25 UNL     1      43.241  15.283  81.281  1.00  0.00     0.152 C 
HETATM   28  C24 UNL     1      42.970  14.090  82.140  1.00  0.00     0.042 C 
BRANCH  27  29
HETATM   29  O3  UNL     1      43.468  14.803  79.971  1.00  0.00    -0.393 OA
ATOM     30  H3  UNL     1      43.847  13.934  80.045  1.00  0.00     0.210 HD
ENDBRANCH  27  29
ENDBRANCH   1  21
TORSDOF 5
ENDMDL
MODEL 3
REMARK VINA RESULT: -10.331178360      1.910      9.413
REMARK  5 active torsions:
REMARK  status: ('A' for Active; 'I' for Inactive)
REMARK    1  A    between atoms: C5_6  and  C6_7 
REMARK    2  A    between atoms: C9_10  and  C10_11 
REMARK    3  A    between atoms: C10_11  and  O2_12 
REMARK    4  A    between atoms: C10_11  and  C11_14 
REMARK    5  A    between atoms: C25_28  and  O3_29 
ROOT
HETATM    1  C6  UNL     1      41.921  14.505  84.261  1.00  0.00    -0.008 C 
HETATM    2  C7  UNL     1      40.981  13.467  83.738  1.00  0.00     0.005 C 
HETATM    3  C8  UNL     1      39.923  13.226  84.823  1.00  0.00     0.007 C 
HETATM    4  C9  UNL     1      39.457  14.532  85.416  1.00  0.00     0.015 C 
HETATM    5  C22 UNL     1      39.707  15.608  84.379  1.00  0.00     0.007 C 
HETATM    6  C23 UNL     1      41.224  15.830  84.308  1.00  0.00     0.005 C 
ENDROOT
BRANCH   4   7
HETATM    7  C10 UNL     1      37.981  14.445  85.715  1.00  0.00     0.126 C 
BRANCH   7   8
HETATM    8  O2  UNL     1      37.234  14.864  84.614  1.00  0.00    -0.395 OA
ATOM      9  H2  UNL     1      36.321  14.621  84.719  1.00  0.00     0.210 HD
ENDBRANCH   7   8
BRANCH   7  10
HETATM   10  C11 UNL     1      37.587  15.118  86.982  1.00  0.00     0.015 C 
HETATM   11  C12 UNL     1      38.032  16.536  87.105  1.00  0.00     0.007 C 
HETATM   12  C13 UNL     1      37.385  17.492  86.163  1.00  0.00     0.000 C 
HETATM   13  C14 UNL     1      36.914  18.756  86.894  1.00  0.00     0.000 C 
HETATM   14  C15 UNL     1      35.425  18.951  86.707  1.00  0.00     0.000 C 
HETATM   15  C16 UNL     1      34.689  19.152  87.989  1.00  0.00     0.000 C 
HETATM   16  C17 UNL     1      34.691  17.939  88.876  1.00  0.00     0.000 C 
HETATM   17  C18 UNL     1      33.917  16.801  88.301  1.00  0.00     0.000 C 
HETATM   18  C19 UNL     1      34.295  15.459  88.844  1.00  0.00     0.000 C 
HETATM   19  C20 UNL     1      35.726  15.102  88.634  1.00  0.00     0.000 C 
HETATM   20  C21 UNL     1      36.104  14.993  87.171  1.00  0.00     0.007 C 
ENDBRANCH   7  10
ENDBRANCH   4   7
BRANCH   1  21
HETATM   21  C5  UNL     1      43.182  14.627  83.428  1.00  0.00     0.016 C 
HETATM   22  C4  UNL     1      43.090  15.709  82.404  1.00  0.00     0.174 C 
HETATM   23  O1  UNL     1      44.100  15.554  81.460  1.00  0.00    -0.378 OA
HETATM   24  C2  UNL     1      43.912  14.463  80.648  1.00  0.00     0.079 C 
HETATM   25  C1  UNL     1      42.873  14.830  79.581  1.00  0.00     0.048 C 
HETATM   26  C3  UNL     1      45.221  14.261  79.870  1.00  0.00     0.048 C 
HETATM   27  C25 UNL     1      43.513  13.220  81.372  1.00  0.00     0.152 C 
HETATM   28  C24 UNL     1      43.625  13.304  82.860  1.00  0.00     0.042 C 
BRANCH  27  29
HETATM   29  O3  UNL     1      44.380  12.185  80.953  1.00  0.00    -0.393 OA
ATOM     30  H3  UNL     1      43.840  11.453  80.677  1.00  0.00     0.210 HD
ENDBRANCH  27  29
ENDBRANCH   1  21
TORSDOF 5
ENDMDL
MODEL 4
REMARK VINA RESULT: -9.652691193      0.818      1.995
REMARK  5 active torsions:
REMARK  status: ('A' for Active; 'I' for Inactive)
REMARK    1  A    between atoms: C5_6  and  C6_7 
REMARK    2  A    between atoms: C9_10  and  C10_11 
REMARK    3  A    between atoms: C10_11  and  O2_12 
REMARK    4  A    between atoms: C10_11  and  C11_14 
REMARK    5  A    between atoms: C25_28  and  O3_29 
ROOT
HETATM    1  C6  UNL     1      38.200  15.461  86.148  1.00  0.00    -0.008 C 
HETATM    2  C7  UNL     1      38.373  13.979  86.223  1.00  0.00     0.005 C 
HETATM    3  C8  UNL     1      38.750  13.495  84.816  1.00  0.00     0.007 C 
HETATM    4  C9  UNL     1      39.772  14.411  84.191  1.00  0.00     0.015 C 
HETATM    5  C22 UNL     1      40.507  15.100  85.323  1.00  0.00     0.007 C 
HETATM    6  C23 UNL     1      39.536  16.110  85.949  1.00  0.00     0.005 C 
ENDROOT
BRANCH   4   7
HETATM    7  C10 UNL     1      40.743  13.592  83.377  1.00  0.00     0.126 C 
BRANCH   7   8
HETATM    8  O2  UNL     1      41.580  12.853  84.212  1.00  0.00    -0.395 OA
ATOM      9  H2  UNL     1      41.115  12.106  84.572  1.00  0.00     0.210 HD
ENDBRANCH   7   8
BRANCH   7  10
HETATM   10  C11 UNL     1      41.484  14.384  82.357  1.00  0.00     0.015 C 
HETATM   11  C12 UNL     1      42.259  15.537  82.898  1.00  0.00     0.007 C 
HETATM   12  C13 UNL     1      43.424  15.177  83.755  1.00  0.00     0.000 C 
HETATM   13  C14 UNL     1      44.672  15.976  83.356  1.00  0.00     0.000 C 
HETATM   14  C15 UNL     1      45.799  15.040  82.978  1.00  0.00     0.000 C 
HETATM   15  C16 UNL     1      46.409  15.353  81.652  1.00  0.00     0.000 C 
HETATM   16  C17 UNL     1      45.474  15.127  80.497  1.00  0.00     0.000 C 
HETATM   17  C18 UNL     1      45.135  13.688  80.301  1.00  0.00     0.000 C 
HETATM   18  C19 UNL     1      43.864  13.449  79.549  1.00  0.00     0.000 C 
HETATM   19  C20 UNL     1      42.659  14.049  80.190  1.00  0.00     0.000 C 
HETATM   20  C21 UNL     1      42.359  13.466  81.555  1.00  0.00     0.007 C 
ENDBRANCH   7  10
ENDBRANCH   4   7
BRANCH   1  21
HETATM   21  C5  UNL     1      37.537  16.037  87.385  1.00  0.00     0.016 C 
HETATM   22  C4  UNL     1      36.354  15.241  87.825  1.00  0.00     0.174 C 
HETATM   23  O1  UNL     1      35.593  15.982  88.722  1.00  0.00    -0.378 OA
HETATM   24  C2  UNL     1      34.943  17.037  88.131  1.00  0.00     0.079 C 
HETATM   25  C1  UNL     1      33.700  16.496  87.412  1.00  0.00     0.048 C 
HETATM   26  C3  UNL     1      34.392  17.910  89.267  1.00  0.00     0.048 C 
HETATM   27  C25 UNL     1      35.791  17.834  87.195  1.00  0.00     0.152 C 
HETATM   28  C24 UNL     1      37.249  17.509  87.248  1.00  0.00     0.042 C 
BRANCH  27  29
HETATM   29  O3  UNL     1      35.660  19.195  87.556  1.00  0.00    -0.393 OA
ATOM     30  H3  UNL     1      35.045  19.242  88.279  1.00  0.00     0.210 HD
ENDBRANCH  27  29
ENDBRANCH   1  21
TORSDOF 5
ENDMDL
MODEL 5
REMARK VINA RESULT: -9.496654419      1.851      2.885
REMARK  5 active torsions:
REMARK  status: ('A' for Active; 'I' for Inactive)
REMARK    1  A    between atoms: C5_6  and  C6_7 
REMARK    2  A    between atoms: C9_10  and  C10_11 
REMARK    3  A    between atoms: C10_11  and  O2_12 
REMARK    4  A    between atoms: C10_11  and  C11_14 
REMARK    5  A    between atoms: C25_28  and  O3_29 
ROOT
HETATM    1  C6  UNL     1      39.108  14.951  84.947  1.00  0.00    -0.008 C 
HETATM    2  C7  UNL     1      40.068  13.959  85.519  1.00  0.00     0.005 C 
HETATM    3  C8  UNL     1      41.338  14.010  84.660  1.00  0.00     0.007 C 
HETATM    4  C9  UNL     1      41.719  15.436  84.350  1.00  0.00     0.015 C 
HETATM    5  C22 UNL     1      41.123  16.304  85.440  1.00  0.00     0.007 C 
HETATM    6  C23 UNL     1      39.605  16.339  85.217  1.00  0.00     0.005 C 
ENDROOT
BRANCH   4   7
HETATM    7  C10 UNL     1      43.222  15.564  84.360  1.00  0.00     0.126 C 
BRANCH   7   8
HETATM    8  O2  UNL     1      43.602  16.810  84.858  1.00  0.00    -0.395 OA
ATOM      9  H2  UNL     1      44.270  16.711  85.527  1.00  0.00     0.210 HD
ENDBRANCH   7   8
BRANCH   7  10
HETATM   10  C11 UNL     1      43.859  15.234  83.056  1.00  0.00     0.015 C 
HETATM   11  C12 UNL     1      44.442  13.864  82.971  1.00  0.00     0.007 C 
HETATM   12  C13 UNL     1      43.456  12.747  82.998  1.00  0.00     0.000 C 
HETATM   13  C14 UNL     1      43.752  11.720  81.898  1.00  0.00     0.000 C 
HETATM   14  C15 UNL     1      42.555  11.566  80.984  1.00  0.00     0.000 C 
HETATM   15  C16 UNL     1      42.892  11.715  79.538  1.00  0.00     0.000 C 
HETATM   16  C17 UNL     1      43.335  13.103  79.168  1.00  0.00     0.000 C 
HETATM   17  C18 UNL     1      42.243  14.111  79.292  1.00  0.00     0.000 C 
HETATM   18  C19 UNL     1      42.718  15.521  79.445  1.00  0.00     0.000 C 
HETATM   19  C20 UNL     1      43.587  15.741  80.636  1.00  0.00     0.000 C 
HETATM   20  C21 UNL     1      42.878  15.479  81.947  1.00  0.00     0.007 C 
ENDBRANCH   7  10
ENDBRANCH   4   7
BRANCH   1  21
HETATM   21  C5  UNL     1      37.706  14.799  85.504  1.00  0.00     0.016 C 
HETATM   22  C4  UNL     1      36.852  15.996  85.242  1.00  0.00     0.174 C 
HETATM   23  O1  UNL     1      35.723  15.957  86.054  1.00  0.00    -0.378 OA
HETATM   24  C2  UNL     1      36.009  16.174  87.379  1.00  0.00     0.079 C 
HETATM   25  C1  UNL     1      36.198  17.681  87.592  1.00  0.00     0.048 C 
HETATM   26  C3  UNL     1      34.738  15.822  88.167  1.00  0.00     0.048 C 
HETATM   27  C25 UNL     1      37.190  15.414  87.886  1.00  0.00     0.152 C 
HETATM   28  C24 UNL     1      37.706  14.371  86.948  1.00  0.00     0.042 C 
BRANCH  27  29
HETATM   29  O3  UNL     1      36.792  14.745  89.066  1.00  0.00    -0.393 OA
ATOM     30  H3  UNL     1      37.488  14.853  89.704  1.00  0.00     0.210 HD
ENDBRANCH  27  29
ENDBRANCH   1  21
TORSDOF 5
ENDMDL
