MODEL 1
REMARK VINA RESULT: -6.673519487      0.000      0.000
REMARK  14 active torsions:
REMARK  status: ('A' for Active; 'I' for Inactive)
REMARK    1  A    between atoms: C4_4  and  C5_5 
REMARK    2  A    between atoms: C5_5  and  C6_6 
REMARK    3  A    between atoms: C6_6  and  C7_7 
REMARK    4  A    between atoms: C7_7  and  C8_8 
REMARK    5  A    between atoms: C8_8  and  C9_9 
REMARK    6  A    between atoms: C9_9  and  N1_10 
REMARK    7  A    between atoms: N1_10  and  C10_13 
REMARK    8  A    between atoms: C10_13  and  C11_14 
REMARK    9  A    between atoms: C11_14  and  C12_15 
REMARK   10  A    between atoms: C12_15  and  C13_16 
REMARK   11  A    between atoms: C13_16  and  C14_17 
REMARK   12  A    between atoms: C14_17  and  C15_18 
REMARK   13  A    between atoms: C15_18  and  C16_19 
REMARK   14  A    between atoms: C16_19  and  C17_20 
ROOT
HETATM    1  N1  UNL     1       1.401   7.547   0.094  1.00  0.00    -0.075 N 
ATOM      2  H11 UNL     1       1.039   7.205  -0.796  1.00  0.00     0.277 HD
ATOM      3  H12 UNL     1       2.118   8.166  -0.283  1.00  0.00     0.277 HD
ENDROOT
BRANCH   1   4
HETATM    4  C9  UNL     1       1.946   6.490   0.927  1.00  0.00     0.232 C 
BRANCH   4   5
HETATM    5  C8  UNL     1       3.155   5.932   0.233  1.00  0.00     0.027 C 
BRANCH   5   6
HETATM    6  C7  UNL     1       2.849   5.398  -1.139  1.00  0.00     0.002 C 
BRANCH   6   7
HETATM    7  C6  UNL     1       3.840   5.957  -2.147  1.00  0.00     0.000 C 
BRANCH   7   8
HETATM    8  C5  UNL     1       4.600   7.123  -1.595  1.00  0.00     0.005 C 
BRANCH   8   9
HETATM    9  C4  UNL     1       6.050   6.996  -1.929  1.00  0.00    -0.008 C 
HETATM   10  C3  UNL     1       6.541   5.647  -1.433  1.00  0.00     0.031 C 
HETATM   11  C2  UNL     1       6.937   5.914  -0.045  1.00  0.00    -0.030 C 
HETATM   12  C1  UNL     1       7.115   7.207   0.127  1.00  0.00    -0.030 C 
HETATM   13  C23 UNL     1       6.857   7.967  -1.132  1.00  0.00     0.031 C 
ENDBRANCH   8   9
ENDBRANCH   7   8
ENDBRANCH   6   7
ENDBRANCH   5   6
ENDBRANCH   4   5
ENDBRANCH   1   4
BRANCH   1  14
HETATM   14  C10 UNL     1       0.393   8.255   0.887  1.00  0.00     0.232 C 
BRANCH  14  15
HETATM   15  C11 UNL     1       0.887   8.310   2.295  1.00  0.00     0.027 C 
BRANCH  15  16
HETATM   16  C12 UNL     1       0.194   9.415   3.039  1.00  0.00     0.002 C 
BRANCH  16  17
HETATM   17  C13 UNL     1       0.907   9.741   4.301  1.00  0.00     0.000 C 
BRANCH  17  18
HETATM   18  C14 UNL     1       0.988  11.212   4.504  1.00  0.00     0.000 C 
BRANCH  18  19
HETATM   19  C15 UNL     1       1.249  11.944   3.216  1.00  0.00     0.000 C 
BRANCH  19  20
HETATM   20  C16 UNL     1       2.612  12.574   3.239  1.00  0.00     0.004 C 
BRANCH  20  21
HETATM   21  C17 UNL     1       3.647  11.849   2.429  1.00  0.00    -0.014 C 
HETATM   22  C18 UNL     1       4.353  10.803   3.262  1.00  0.00     0.004 C 
HETATM   23  C19 UNL     1       5.308  10.045   2.358  1.00  0.00     0.000 C 
HETATM   24  C20 UNL     1       4.436   9.240   1.399  1.00  0.00     0.000 C 
HETATM   25  C21 UNL     1       3.748  10.237   0.504  1.00  0.00     0.000 C 
HETATM   26  C22 UNL     1       2.942  11.247   1.240  1.00  0.00     0.004 C 
ENDBRANCH  20  21
ENDBRANCH  19  20
ENDBRANCH  18  19
ENDBRANCH  17  18
ENDBRANCH  16  17
ENDBRANCH  15  16
ENDBRANCH  14  15
ENDBRANCH   1  14
TORSDOF 14
ENDMDL
MODEL 2
REMARK VINA RESULT: -6.626911391      1.246      1.911
REMARK  14 active torsions:
REMARK  status: ('A' for Active; 'I' for Inactive)
REMARK    1  A    between atoms: C4_4  and  C5_5 
REMARK    2  A    between atoms: C5_5  and  C6_6 
REMARK    3  A    between atoms: C6_6  and  C7_7 
REMARK    4  A    between atoms: C7_7  and  C8_8 
REMARK    5  A    between atoms: C8_8  and  C9_9 
REMARK    6  A    between atoms: C9_9  and  N1_10 
REMARK    7  A    between atoms: N1_10  and  C10_13 
REMARK    8  A    between atoms: C10_13  and  C11_14 
REMARK    9  A    between atoms: C11_14  and  C12_15 
REMARK   10  A    between atoms: C12_15  and  C13_16 
REMARK   11  A    between atoms: C13_16  and  C14_17 
REMARK   12  A    between atoms: C14_17  and  C15_18 
REMARK   13  A    between atoms: C15_18  and  C16_19 
REMARK   14  A    between atoms: C16_19  and  C17_20 
ROOT
HETATM    1  N1  UNL     1       2.100   6.846   0.952  1.00  0.00    -0.075 N 
ATOM      2  H11 UNL     1       2.033   6.702   1.960  1.00  0.00     0.277 HD
ATOM      3  H12 UNL     1       1.155   6.547   0.711  1.00  0.00     0.277 HD
ENDROOT
BRANCH   1   4
HETATM    4  C9  UNL     1       3.128   6.031   0.331  1.00  0.00     0.232 C 
BRANCH   4   5
HETATM    5  C8  UNL     1       2.655   5.661  -1.046  1.00  0.00     0.027 C 
BRANCH   5   6
HETATM    6  C7  UNL     1       3.641   6.026  -2.121  1.00  0.00     0.002 C 
BRANCH   6   7
HETATM    7  C6  UNL     1       5.045   6.090  -1.539  1.00  0.00     0.000 C 
BRANCH   7   8
HETATM    8  C5  UNL     1       5.808   7.272  -2.051  1.00  0.00     0.005 C 
BRANCH   8   9
HETATM    9  C4  UNL     1       5.604   8.444  -1.150  1.00  0.00    -0.008 C 
HETATM   10  C3  UNL     1       6.437   9.602  -1.671  1.00  0.00     0.031 C 
HETATM   11  C2  UNL     1       7.743   9.403  -1.029  1.00  0.00    -0.030 C 
HETATM   12  C1  UNL     1       7.610   8.609   0.013  1.00  0.00    -0.030 C 
HETATM   13  C23 UNL     1       6.192   8.179   0.197  1.00  0.00     0.031 C 
ENDBRANCH   8   9
ENDBRANCH   7   8
ENDBRANCH   6   7
ENDBRANCH   5   6
ENDBRANCH   4   5
ENDBRANCH   1   4
BRANCH   1  14
HETATM   14  C10 UNL     1       2.367   8.241   0.591  1.00  0.00     0.232 C 
BRANCH  14  15
HETATM   15  C11 UNL     1       1.146   9.032   0.926  1.00  0.00     0.027 C 
BRANCH  15  16
HETATM   16  C12 UNL     1       0.766   8.805   2.361  1.00  0.00     0.002 C 
BRANCH  16  17
HETATM   17  C13 UNL     1       0.078   9.994   2.929  1.00  0.00     0.000 C 
BRANCH  17  18
HETATM   18  C14 UNL     1       0.723  10.430   4.196  1.00  0.00     0.000 C 
BRANCH  18  19
HETATM   19  C15 UNL     1       2.212  10.587   4.046  1.00  0.00     0.000 C 
BRANCH  19  20
HETATM   20  C16 UNL     1       2.574  12.037   3.907  1.00  0.00     0.004 C 
BRANCH  20  21
HETATM   21  C17 UNL     1       3.270  12.386   2.624  1.00  0.00    -0.014 C 
HETATM   22  C18 UNL     1       4.251  11.306   2.228  1.00  0.00     0.004 C 
HETATM   23  C19 UNL     1       4.840  11.675   0.879  1.00  0.00     0.000 C 
HETATM   24  C20 UNL     1       3.703  11.542  -0.130  1.00  0.00     0.000 C 
HETATM   25  C21 UNL     1       2.717  12.635   0.186  1.00  0.00     0.000 C 
HETATM   26  C22 UNL     1       2.202  12.593   1.580  1.00  0.00     0.004 C 
ENDBRANCH  20  21
ENDBRANCH  19  20
ENDBRANCH  18  19
ENDBRANCH  17  18
ENDBRANCH  16  17
ENDBRANCH  15  16
ENDBRANCH  14  15
ENDBRANCH   1  14
TORSDOF 14
ENDMDL
MODEL 3
REMARK VINA RESULT: -6.613253125      1.054      2.676
REMARK  14 active torsions:
REMARK  status: ('A' for Active; 'I' for Inactive)
REMARK    1  A    between atoms: C4_4  and  C5_5 
REMARK    2  A    between atoms: C5_5  and  C6_6 
REMARK    3  A    between atoms: C6_6  and  C7_7 
REMARK    4  A    between atoms: C7_7  and  C8_8 
REMARK    5  A    between atoms: C8_8  and  C9_9 
REMARK    6  A    between atoms: C9_9  and  N1_10 
REMARK    7  A    between atoms: N1_10  and  C10_13 
REMARK    8  A    between atoms: C10_13  and  C11_14 
REMARK    9  A    between atoms: C11_14  and  C12_15 
REMARK   10  A    between atoms: C12_15  and  C13_16 
REMARK   11  A    between atoms: C13_16  and  C14_17 
REMARK   12  A    between atoms: C14_17  and  C15_18 
REMARK   13  A    between atoms: C15_18  and  C16_19 
REMARK   14  A    between atoms: C16_19  and  C17_20 
ROOT
HETATM    1  N1  UNL     1       1.619   7.044   1.412  1.00  0.00    -0.075 N 
ATOM      2  H11 UNL     1       2.588   7.264   1.646  1.00  0.00     0.277 HD
ATOM      3  H12 UNL     1       1.312   6.782   2.349  1.00  0.00     0.277 HD
ENDROOT
BRANCH   1   4
HETATM    4  C9  UNL     1       1.500   5.962   0.453  1.00  0.00     0.232 C 
BRANCH   4   5
HETATM    5  C8  UNL     1       2.867   5.687  -0.106  1.00  0.00     0.027 C 
BRANCH   5   6
HETATM    6  C7  UNL     1       2.830   5.187  -1.524  1.00  0.00     0.002 C 
BRANCH   6   7
HETATM    7  C6  UNL     1       3.778   6.005  -2.387  1.00  0.00     0.000 C 
BRANCH   7   8
HETATM    8  C5  UNL     1       4.537   7.014  -1.582  1.00  0.00     0.005 C 
BRANCH   8   9
HETATM    9  C4  UNL     1       5.991   6.947  -1.914  1.00  0.00    -0.008 C 
HETATM   10  C3  UNL     1       6.561   5.669  -1.323  1.00  0.00     0.031 C 
HETATM   11  C2  UNL     1       6.943   6.060   0.039  1.00  0.00    -0.030 C 
HETATM   12  C1  UNL     1       7.046   7.371   0.115  1.00  0.00    -0.030 C 
HETATM   13  C23 UNL     1       6.742   8.019  -1.196  1.00  0.00     0.031 C 
ENDBRANCH   8   9
ENDBRANCH   7   8
ENDBRANCH   6   7
ENDBRANCH   5   6
ENDBRANCH   4   5
ENDBRANCH   1   4
BRANCH   1  14
HETATM   14  C10 UNL     1       0.887   8.193   0.872  1.00  0.00     0.232 C 
BRANCH  14  15
HETATM   15  C11 UNL     1       1.892   9.129   0.285  1.00  0.00     0.027 C 
BRANCH  15  16
HETATM   16  C12 UNL     1       3.143   9.124   1.116  1.00  0.00     0.002 C 
BRANCH  16  17
HETATM   17  C13 UNL     1       4.163  10.049   0.557  1.00  0.00     0.000 C 
BRANCH  17  18
HETATM   18  C14 UNL     1       3.521  11.205  -0.123  1.00  0.00     0.000 C 
BRANCH  18  19
HETATM   19  C15 UNL     1       3.593  12.457   0.708  1.00  0.00     0.000 C 
BRANCH  19  20
HETATM   20  C16 UNL     1       2.232  12.822   1.225  1.00  0.00     0.004 C 
BRANCH  20  21
HETATM   21  C17 UNL     1       2.040  12.589   2.695  1.00  0.00    -0.014 C 
HETATM   22  C18 UNL     1       1.167  11.380   2.943  1.00  0.00     0.004 C 
HETATM   23  C19 UNL     1       1.100  11.146   4.441  1.00  0.00     0.000 C 
HETATM   24  C20 UNL     1       2.496  10.697   4.863  1.00  0.00     0.000 C 
HETATM   25  C21 UNL     1       3.402  11.888   4.687  1.00  0.00     0.000 C 
HETATM   26  C22 UNL     1       3.411  12.434   3.304  1.00  0.00     0.004 C 
ENDBRANCH  20  21
ENDBRANCH  19  20
ENDBRANCH  18  19
ENDBRANCH  17  18
ENDBRANCH  16  17
ENDBRANCH  15  16
ENDBRANCH  14  15
ENDBRANCH   1  14
TORSDOF 14
ENDMDL
MODEL 4
REMARK VINA RESULT: -6.578025717      1.293      6.093
REMARK  14 active torsions:
REMARK  status: ('A' for Active; 'I' for Inactive)
REMARK    1  A    between atoms: C4_4  and  C5_5 
REMARK    2  A    between atoms: C5_5  and  C6_6 
REMARK    3  A    between atoms: C6_6  and  C7_7 
REMARK    4  A    between atoms: C7_7  and  C8_8 
REMARK    5  A    between atoms: C8_8  and  C9_9 
REMARK    6  A    between atoms: C9_9  and  N1_10 
REMARK    7  A    between atoms: N1_10  and  C10_13 
REMARK    8  A    between atoms: C10_13  and  C11_14 
REMARK    9  A    between atoms: C11_14  and  C12_15 
REMARK   10  A    between atoms: C12_15  and  C13_16 
REMARK   11  A    between atoms: C13_16  and  C14_17 
REMARK   12  A    between atoms: C14_17  and  C15_18 
REMARK   13  A    between atoms: C15_18  and  C16_19 
REMARK   14  A    between atoms: C16_19  and  C17_20 
ROOT
HETATM    1  N1  UNL     1       0.780   8.267   2.219  1.00  0.00    -0.075 N 
ATOM      2  H11 UNL     1       0.618   7.270   2.365  1.00  0.00     0.277 HD
ATOM      3  H12 UNL     1       1.585   8.363   2.838  1.00  0.00     0.277 HD
ENDROOT
BRANCH   1   4
HETATM    4  C9  UNL     1      -0.346   9.089   2.621  1.00  0.00     0.232 C 
BRANCH   4   5
HETATM    5  C8  UNL     1       0.194  10.385   3.154  1.00  0.00     0.027 C 
BRANCH   5   6
HETATM    6  C7  UNL     1       1.349  10.193   4.099  1.00  0.00     0.002 C 
BRANCH   6   7
HETATM    7  C6  UNL     1       2.315  11.362   3.983  1.00  0.00     0.000 C 
BRANCH   7   8
HETATM    8  C5  UNL     1       3.307  11.158   2.881  1.00  0.00     0.005 C 
BRANCH   8   9
HETATM    9  C4  UNL     1       3.517  12.435   2.137  1.00  0.00    -0.008 C 
HETATM   10  C3  UNL     1       2.214  12.815   1.455  1.00  0.00     0.031 C 
HETATM   11  C2  UNL     1       2.282  12.113   0.167  1.00  0.00    -0.030 C 
HETATM   12  C1  UNL     1       3.530  11.783  -0.095  1.00  0.00    -0.030 C 
HETATM   13  C23 UNL     1       4.453  12.226   0.992  1.00  0.00     0.031 C 
ENDBRANCH   8   9
ENDBRANCH   7   8
ENDBRANCH   6   7
ENDBRANCH   5   6
ENDBRANCH   4   5
ENDBRANCH   1   4
BRANCH   1  14
HETATM   14  C10 UNL     1       1.089   8.597   0.825  1.00  0.00     0.232 C 
BRANCH  14  15
HETATM   15  C11 UNL     1       2.546   8.342   0.617  1.00  0.00     0.027 C 
BRANCH  15  16
HETATM   16  C12 UNL     1       2.826   6.869   0.701  1.00  0.00     0.002 C 
BRANCH  16  17
HETATM   17  C13 UNL     1       2.210   6.139  -0.437  1.00  0.00     0.000 C 
BRANCH  17  18
HETATM   18  C14 UNL     1       3.229   5.359  -1.187  1.00  0.00     0.000 C 
BRANCH  18  19
HETATM   19  C15 UNL     1       4.065   6.236  -2.079  1.00  0.00     0.000 C 
BRANCH  19  20
HETATM   20  C16 UNL     1       5.524   5.930  -1.896  1.00  0.00     0.004 C 
BRANCH  20  21
HETATM   21  C17 UNL     1       6.311   7.023  -1.233  1.00  0.00    -0.014 C 
HETATM   22  C18 UNL     1       5.611   8.355  -1.371  1.00  0.00     0.004 C 
HETATM   23  C19 UNL     1       6.407   9.389  -0.596  1.00  0.00     0.000 C 
HETATM   24  C20 UNL     1       6.249   9.028   0.879  1.00  0.00     0.000 C 
HETATM   25  C21 UNL     1       6.979   7.727   1.084  1.00  0.00     0.000 C 
HETATM   26  C22 UNL     1       6.498   6.625   0.209  1.00  0.00     0.004 C 
ENDBRANCH  20  21
ENDBRANCH  19  20
ENDBRANCH  18  19
ENDBRANCH  17  18
ENDBRANCH  16  17
ENDBRANCH  15  16
ENDBRANCH  14  15
ENDBRANCH   1  14
TORSDOF 14
ENDMDL
MODEL 5
REMARK VINA RESULT: -6.557484119      1.292      5.763
REMARK  14 active torsions:
REMARK  status: ('A' for Active; 'I' for Inactive)
REMARK    1  A    between atoms: C4_4  and  C5_5 
REMARK    2  A    between atoms: C5_5  and  C6_6 
REMARK    3  A    between atoms: C6_6  and  C7_7 
REMARK    4  A    between atoms: C7_7  and  C8_8 
REMARK    5  A    between atoms: C8_8  and  C9_9 
REMARK    6  A    between atoms: C9_9  and  N1_10 
REMARK    7  A    between atoms: N1_10  and  C10_13 
REMARK    8  A    between atoms: C10_13  and  C11_14 
REMARK    9  A    between atoms: C11_14  and  C12_15 
REMARK   10  A    between atoms: C12_15  and  C13_16 
REMARK   11  A    between atoms: C13_16  and  C14_17 
REMARK   12  A    between atoms: C14_17  and  C15_18 
REMARK   13  A    between atoms: C15_18  and  C16_19 
REMARK   14  A    between atoms: C16_19  and  C17_20 
ROOT
HETATM    1  N1  UNL     1       0.936   8.371   2.484  1.00  0.00    -0.075 N 
ATOM      2  H11 UNL     1       0.512   7.730   3.155  1.00  0.00     0.277 HD
ATOM      3  H12 UNL     1       1.813   8.525   2.982  1.00  0.00     0.277 HD
ENDROOT
BRANCH   1   4
HETATM    4  C9  UNL     1       0.168   9.588   2.299  1.00  0.00     0.232 C 
BRANCH   4   5
HETATM    5  C8  UNL     1       0.982  10.733   2.830  1.00  0.00     0.027 C 
BRANCH   5   6
HETATM    6  C7  UNL     1       1.670  10.410   4.128  1.00  0.00     0.002 C 
BRANCH   6   7
HETATM    7  C6  UNL     1       3.108  10.904   4.089  1.00  0.00     0.000 C 
BRANCH   7   8
HETATM    8  C5  UNL     1       3.412  11.640   2.822  1.00  0.00     0.005 C 
BRANCH   8   9
HETATM    9  C4  UNL     1       4.636  11.076   2.181  1.00  0.00    -0.008 C 
HETATM   10  C3  UNL     1       4.927  11.868   0.918  1.00  0.00     0.031 C 
HETATM   11  C2  UNL     1       4.135  11.180  -0.110  1.00  0.00    -0.030 C 
HETATM   12  C1  UNL     1       3.824   9.969   0.304  1.00  0.00    -0.030 C 
HETATM   13  C23 UNL     1       4.372   9.699   1.667  1.00  0.00     0.031 C 
ENDBRANCH   8   9
ENDBRANCH   7   8
ENDBRANCH   6   7
ENDBRANCH   5   6
ENDBRANCH   4   5
ENDBRANCH   1   4
BRANCH   1  14
HETATM   14  C10 UNL     1       1.129   7.768   1.162  1.00  0.00     0.232 C 
BRANCH  14  15
HETATM   15  C11 UNL     1       1.800   6.450   1.364  1.00  0.00     0.027 C 
BRANCH  15  16
HETATM   16  C12 UNL     1       2.977   6.326   0.440  1.00  0.00     0.002 C 
BRANCH  16  17
HETATM   17  C13 UNL     1       2.560   5.827  -0.897  1.00  0.00     0.000 C 
BRANCH  17  18
HETATM   18  C14 UNL     1       3.541   6.218  -1.943  1.00  0.00     0.000 C 
BRANCH  18  19
HETATM   19  C15 UNL     1       4.928   6.382  -1.382  1.00  0.00     0.000 C 
BRANCH  19  20
HETATM   20  C16 UNL     1       5.593   7.591  -1.973  1.00  0.00     0.004 C 
BRANCH  20  21
HETATM   21  C17 UNL     1       6.879   7.983  -1.305  1.00  0.00    -0.014 C 
HETATM   22  C18 UNL     1       7.094   9.478  -1.380  1.00  0.00     0.004 C 
HETATM   23  C19 UNL     1       8.353   9.813  -0.602  1.00  0.00     0.000 C 
HETATM   24  C20 UNL     1       8.028   9.551   0.866  1.00  0.00     0.000 C 
HETATM   25  C21 UNL     1       7.856   8.062   1.008  1.00  0.00     0.000 C 
HETATM   26  C22 UNL     1       6.811   7.491   0.118  1.00  0.00     0.004 C 
ENDBRANCH  20  21
ENDBRANCH  19  20
ENDBRANCH  18  19
ENDBRANCH  17  18
ENDBRANCH  16  17
ENDBRANCH  15  16
ENDBRANCH  14  15
ENDBRANCH   1  14
TORSDOF 14
ENDMDL
