MODEL 1
REMARK VINA RESULT: -6.565687682      0.000      0.000
REMARK  14 active torsions:
REMARK  status: ('A' for Active; 'I' for Inactive)
REMARK    1  A    between atoms: N1_1  and  C1_5 
REMARK    2  A    between atoms: C1_5  and  C2_6 
REMARK    3  A    between atoms: C2_6  and  C3_7 
REMARK    4  A    between atoms: C3_7  and  C4_8 
REMARK    5  A    between atoms: C4_8  and  C5_9 
REMARK    6  A    between atoms: C5_9  and  C6_10 
REMARK    7  A    between atoms: C6_10  and  C7_11 
REMARK    8  A    between atoms: C7_11  and  C8_12 
REMARK    9  A    between atoms: C8_12  and  C9_13 
REMARK   10  A    between atoms: C9_13  and  C10_14 
REMARK   11  A    between atoms: C10_14  and  C11_15 
REMARK   12  A    between atoms: C11_15  and  C12_16 
REMARK   13  A    between atoms: C12_16  and  C13_17 
REMARK   14  A    between atoms: C13_17  and  C14_18 
ROOT
HETATM    1  C10 UNL     1       5.465   6.109  -1.576  1.00  0.00     0.000 C 
ENDROOT
BRANCH   1   2
HETATM    2  C9  UNL     1       4.055   6.107  -1.950  1.00  0.00     0.000 C 
BRANCH   2   3
HETATM    3  C8  UNL     1       2.943   6.086  -1.002  1.00  0.00     0.000 C 
BRANCH   3   4
HETATM    4  C7  UNL     1       3.164   6.165   0.449  1.00  0.00     0.000 C 
BRANCH   4   5
HETATM    5  C6  UNL     1       2.450   7.379   1.029  1.00  0.00     0.000 C 
BRANCH   5   6
HETATM    6  C5  UNL     1       1.657   8.146   0.009  1.00  0.00     0.000 C 
BRANCH   6   7
HETATM    7  C4  UNL     1       0.720   9.124   0.726  1.00  0.00     0.000 C 
BRANCH   7   8
HETATM    8  C3  UNL     1       0.964   8.967   2.220  1.00  0.00     0.002 C 
BRANCH   8   9
HETATM    9  C2  UNL     1       0.028   9.875   2.958  1.00  0.00     0.027 C 
BRANCH   9  10
HETATM   10  C1  UNL     1       0.321   9.984   4.420  1.00  0.00     0.229 C 
BRANCH  10  11
HETATM   11  N1  UNL     1       0.019  11.363   4.817  1.00  0.00    -0.079 N 
ATOM     12  H13 UNL     1       0.335  11.587   5.760  1.00  0.00     0.274 HD
ATOM     13  H12 UNL     1       0.583  12.055   4.323  1.00  0.00     0.274 HD
ATOM     14  H11 UNL     1      -0.984  11.498   4.688  1.00  0.00     0.274 HD
ENDBRANCH  10  11
ENDBRANCH   9  10
ENDBRANCH   8   9
ENDBRANCH   7   8
ENDBRANCH   6   7
ENDBRANCH   5   6
ENDBRANCH   4   5
ENDBRANCH   3   4
ENDBRANCH   2   3
ENDBRANCH   1   2
BRANCH   1  15
HETATM   15  C11 UNL     1       6.320   7.108  -2.251  1.00  0.00     0.000 C 
BRANCH  15  16
HETATM   16  C12 UNL     1       6.219   8.448  -1.515  1.00  0.00     0.005 C 
BRANCH  16  17
HETATM   17  C13 UNL     1       6.521   8.361  -0.062  1.00  0.00     0.038 C 
BRANCH  17  18
HETATM   18  C14 UNL     1       5.614   9.313   0.682  1.00  0.00    -0.057 A 
HETATM   19  C15 UNL     1       5.612   9.388   2.054  1.00  0.00     0.008 A 
HETATM   20  C16 UNL     1       4.752  10.286   2.692  1.00  0.00     0.013 A 
HETATM   21  C17 UNL     1       3.914  11.091   1.960  1.00  0.00    -0.026 A 
HETATM   22  C18 UNL     1       3.062  11.982   2.576  1.00  0.00     0.012 A 
HETATM   23  C22 UNL     1       3.906  11.029   0.592  1.00  0.00    -0.025 A 
HETATM   24  C19 UNL     1       2.212  12.800   1.831  1.00  0.00     0.001 A 
HETATM   25  C20 UNL     1       2.231  12.709   0.454  1.00  0.00     0.001 A 
HETATM   26  C21 UNL     1       3.078  11.822  -0.181  1.00  0.00     0.012 A 
HETATM   27  C23 UNL     1       4.768  10.127  -0.036  1.00  0.00     0.019 A 
ENDBRANCH  17  18
ENDBRANCH  16  17
ENDBRANCH  15  16
ENDBRANCH   1  15
TORSDOF 14
ENDMDL
MODEL 2
REMARK VINA RESULT: -6.556068259      3.048      5.730
REMARK  14 active torsions:
REMARK  status: ('A' for Active; 'I' for Inactive)
REMARK    1  A    between atoms: N1_1  and  C1_5 
REMARK    2  A    between atoms: C1_5  and  C2_6 
REMARK    3  A    between atoms: C2_6  and  C3_7 
REMARK    4  A    between atoms: C3_7  and  C4_8 
REMARK    5  A    between atoms: C4_8  and  C5_9 
REMARK    6  A    between atoms: C5_9  and  C6_10 
REMARK    7  A    between atoms: C6_10  and  C7_11 
REMARK    8  A    between atoms: C7_11  and  C8_12 
REMARK    9  A    between atoms: C8_12  and  C9_13 
REMARK   10  A    between atoms: C9_13  and  C10_14 
REMARK   11  A    between atoms: C10_14  and  C11_15 
REMARK   12  A    between atoms: C11_15  and  C12_16 
REMARK   13  A    between atoms: C12_16  and  C13_17 
REMARK   14  A    between atoms: C13_17  and  C14_18 
ROOT
HETATM    1  C10 UNL     1       2.299   6.743   0.766  1.00  0.00     0.000 C 
ENDROOT
BRANCH   1   2
HETATM    2  C9  UNL     1       2.695   8.111   0.450  1.00  0.00     0.000 C 
BRANCH   2   3
HETATM    3  C8  UNL     1       3.744   8.855   1.145  1.00  0.00     0.000 C 
BRANCH   3   4
HETATM    4  C7  UNL     1       4.213  10.161   0.663  1.00  0.00     0.000 C 
BRANCH   4   5
HETATM    5  C6  UNL     1       5.357  10.667   1.532  1.00  0.00     0.000 C 
BRANCH   5   6
HETATM    6  C5  UNL     1       5.402  10.025   2.890  1.00  0.00     0.000 C 
BRANCH   6   7
HETATM    7  C4  UNL     1       6.856   9.957   3.371  1.00  0.00     0.000 C 
BRANCH   7   8
HETATM    8  C3  UNL     1       7.095   8.543   3.880  1.00  0.00     0.002 C 
BRANCH   8   9
HETATM    9  C2  UNL     1       8.558   8.374   4.158  1.00  0.00     0.027 C 
BRANCH   9  10
HETATM   10  C1  UNL     1       8.980   6.948   4.323  1.00  0.00     0.229 C 
BRANCH  10  11
HETATM   11  N1  UNL     1       9.746   6.586   3.126  1.00  0.00    -0.079 N 
ATOM     12  H13 UNL     1       9.239   6.759   2.259  1.00  0.00     0.274 HD
ATOM     13  H12 UNL     1      10.530   7.213   2.948  1.00  0.00     0.274 HD
ATOM     14  H11 UNL     1      10.030   5.612   3.237  1.00  0.00     0.274 HD
ENDBRANCH  10  11
ENDBRANCH   9  10
ENDBRANCH   8   9
ENDBRANCH   7   8
ENDBRANCH   6   7
ENDBRANCH   5   6
ENDBRANCH   4   5
ENDBRANCH   3   4
ENDBRANCH   2   3
ENDBRANCH   1   2
BRANCH   1  15
HETATM   15  C11 UNL     1       2.415   5.759  -0.330  1.00  0.00     0.000 C 
BRANCH  15  16
HETATM   16  C12 UNL     1       3.120   6.406  -1.526  1.00  0.00     0.005 C 
BRANCH  16  17
HETATM   17  C13 UNL     1       4.431   5.788  -1.859  1.00  0.00     0.038 C 
BRANCH  17  18
HETATM   18  C14 UNL     1       5.527   6.574  -1.179  1.00  0.00    -0.057 A 
HETATM   19  C15 UNL     1       6.144   6.118  -0.039  1.00  0.00     0.008 A 
HETATM   20  C16 UNL     1       7.153   6.885   0.550  1.00  0.00     0.013 A 
HETATM   21  C17 UNL     1       7.530   8.086  -0.000  1.00  0.00    -0.026 A 
HETATM   22  C18 UNL     1       8.523   8.852   0.569  1.00  0.00     0.012 A 
HETATM   23  C22 UNL     1       6.925   8.553  -1.138  1.00  0.00    -0.025 A 
HETATM   24  C19 UNL     1       8.906  10.071   0.007  1.00  0.00     0.001 A 
HETATM   25  C20 UNL     1       8.273  10.509  -1.138  1.00  0.00     0.001 A 
HETATM   26  C21 UNL     1       7.276   9.755  -1.723  1.00  0.00     0.012 A 
HETATM   27  C23 UNL     1       5.918   7.779  -1.718  1.00  0.00     0.019 A 
ENDBRANCH  17  18
ENDBRANCH  16  17
ENDBRANCH  15  16
ENDBRANCH   1  15
TORSDOF 14
ENDMDL
MODEL 3
REMARK VINA RESULT: -6.492792275      1.487      4.398
REMARK  14 active torsions:
REMARK  status: ('A' for Active; 'I' for Inactive)
REMARK    1  A    between atoms: N1_1  and  C1_5 
REMARK    2  A    between atoms: C1_5  and  C2_6 
REMARK    3  A    between atoms: C2_6  and  C3_7 
REMARK    4  A    between atoms: C3_7  and  C4_8 
REMARK    5  A    between atoms: C4_8  and  C5_9 
REMARK    6  A    between atoms: C5_9  and  C6_10 
REMARK    7  A    between atoms: C6_10  and  C7_11 
REMARK    8  A    between atoms: C7_11  and  C8_12 
REMARK    9  A    between atoms: C8_12  and  C9_13 
REMARK   10  A    between atoms: C9_13  and  C10_14 
REMARK   11  A    between atoms: C10_14  and  C11_15 
REMARK   12  A    between atoms: C11_15  and  C12_16 
REMARK   13  A    between atoms: C12_16  and  C13_17 
REMARK   14  A    between atoms: C13_17  and  C14_18 
ROOT
HETATM    1  C10 UNL     1       2.105   6.303   0.600  1.00  0.00     0.000 C 
ENDROOT
BRANCH   1   2
HETATM    2  C9  UNL     1       1.862   7.738   0.692  1.00  0.00     0.000 C 
BRANCH   2   3
HETATM    3  C8  UNL     1       2.874   8.769   0.470  1.00  0.00     0.000 C 
BRANCH   3   4
HETATM    4  C7  UNL     1       3.929   9.041   1.456  1.00  0.00     0.000 C 
BRANCH   4   5
HETATM    5  C6  UNL     1       4.685  10.311   1.088  1.00  0.00     0.000 C 
BRANCH   5   6
HETATM    6  C5  UNL     1       4.097  11.032  -0.093  1.00  0.00     0.000 C 
BRANCH   6   7
HETATM    7  C4  UNL     1       3.722  12.461   0.321  1.00  0.00     0.000 C 
BRANCH   7   8
HETATM    8  C3  UNL     1       2.277  12.427   0.794  1.00  0.00     0.002 C 
BRANCH   8   9
HETATM    9  C2  UNL     1       2.235  12.831   2.236  1.00  0.00     0.027 C 
BRANCH   9  10
HETATM   10  C1  UNL     1       1.860  11.719   3.164  1.00  0.00     0.229 C 
BRANCH  10  11
HETATM   11  N1  UNL     1       0.823  10.930   2.491  1.00  0.00    -0.079 N 
ATOM     12  H13 UNL     1       0.059  11.500   2.128  1.00  0.00     0.274 HD
ATOM     13  H12 UNL     1       1.131  10.542   1.599  1.00  0.00     0.274 HD
ATOM     14  H11 UNL     1       0.514  10.218   3.152  1.00  0.00     0.274 HD
ENDBRANCH  10  11
ENDBRANCH   9  10
ENDBRANCH   8   9
ENDBRANCH   7   8
ENDBRANCH   6   7
ENDBRANCH   5   6
ENDBRANCH   4   5
ENDBRANCH   3   4
ENDBRANCH   2   3
ENDBRANCH   1   2
BRANCH   1  15
HETATM   15  C11 UNL     1       2.064   5.718  -0.756  1.00  0.00     0.000 C 
BRANCH  15  16
HETATM   16  C12 UNL     1       3.462   5.225  -1.143  1.00  0.00     0.005 C 
BRANCH  16  17
HETATM   17  C13 UNL     1       4.204   6.155  -2.034  1.00  0.00     0.038 C 
BRANCH  17  18
HETATM   18  C14 UNL     1       5.326   6.791  -1.247  1.00  0.00    -0.057 A 
HETATM   19  C15 UNL     1       5.788   6.243  -0.073  1.00  0.00     0.008 A 
HETATM   20  C16 UNL     1       6.829   6.872   0.615  1.00  0.00     0.013 A 
HETATM   21  C17 UNL     1       7.391   8.027   0.130  1.00  0.00    -0.026 A 
HETATM   22  C18 UNL     1       8.418   8.657   0.799  1.00  0.00     0.012 A 
HETATM   23  C22 UNL     1       6.943   8.584  -1.038  1.00  0.00    -0.025 A 
HETATM   24  C19 UNL     1       8.989   9.830   0.303  1.00  0.00     0.001 A 
HETATM   25  C20 UNL     1       8.510  10.362  -0.877  1.00  0.00     0.001 A 
HETATM   26  C21 UNL     1       7.481   9.745  -1.560  1.00  0.00     0.012 A 
HETATM   27  C23 UNL     1       5.902   7.948  -1.719  1.00  0.00     0.019 A 
ENDBRANCH  17  18
ENDBRANCH  16  17
ENDBRANCH  15  16
ENDBRANCH   1  15
TORSDOF 14
ENDMDL
MODEL 4
REMARK VINA RESULT: -6.491746670      1.223      2.028
REMARK  14 active torsions:
REMARK  status: ('A' for Active; 'I' for Inactive)
REMARK    1  A    between atoms: N1_1  and  C1_5 
REMARK    2  A    between atoms: C1_5  and  C2_6 
REMARK    3  A    between atoms: C2_6  and  C3_7 
REMARK    4  A    between atoms: C3_7  and  C4_8 
REMARK    5  A    between atoms: C4_8  and  C5_9 
REMARK    6  A    between atoms: C5_9  and  C6_10 
REMARK    7  A    between atoms: C6_10  and  C7_11 
REMARK    8  A    between atoms: C7_11  and  C8_12 
REMARK    9  A    between atoms: C8_12  and  C9_13 
REMARK   10  A    between atoms: C9_13  and  C10_14 
REMARK   11  A    between atoms: C10_14  and  C11_15 
REMARK   12  A    between atoms: C11_15  and  C12_16 
REMARK   13  A    between atoms: C12_16  and  C13_17 
REMARK   14  A    between atoms: C13_17  and  C14_18 
ROOT
HETATM    1  C10 UNL     1       4.838   5.796  -0.870  1.00  0.00     0.000 C 
ENDROOT
BRANCH   1   2
HETATM    2  C9  UNL     1       3.430   5.660  -1.226  1.00  0.00     0.000 C 
BRANCH   2   3
HETATM    3  C8  UNL     1       2.325   5.672  -0.269  1.00  0.00     0.000 C 
BRANCH   3   4
HETATM    4  C7  UNL     1       2.146   6.772   0.689  1.00  0.00     0.000 C 
BRANCH   4   5
HETATM    5  C6  UNL     1       1.859   8.075  -0.046  1.00  0.00     0.000 C 
BRANCH   5   6
HETATM    6  C5  UNL     1       1.026   9.038   0.752  1.00  0.00     0.000 C 
BRANCH   6   7
HETATM    7  C4  UNL     1       1.043   8.621   2.228  1.00  0.00     0.000 C 
BRANCH   7   8
HETATM    8  C3  UNL     1       0.211   9.640   2.991  1.00  0.00     0.002 C 
BRANCH   8   9
HETATM    9  C2  UNL     1       0.266   9.306   4.452  1.00  0.00     0.027 C 
BRANCH   9  10
HETATM   10  C1  UNL     1      -0.713   8.253   4.867  1.00  0.00     0.229 C 
BRANCH  10  11
HETATM   11  N1  UNL     1       0.068   7.096   5.315  1.00  0.00    -0.079 N 
ATOM     12  H13 UNL     1       1.065   7.293   5.396  1.00  0.00     0.274 HD
ATOM     13  H12 UNL     1      -0.098   6.855   6.292  1.00  0.00     0.274 HD
ATOM     14  H11 UNL     1      -0.139   6.330   4.673  1.00  0.00     0.274 HD
ENDBRANCH  10  11
ENDBRANCH   9  10
ENDBRANCH   8   9
ENDBRANCH   7   8
ENDBRANCH   6   7
ENDBRANCH   5   6
ENDBRANCH   4   5
ENDBRANCH   3   4
ENDBRANCH   2   3
ENDBRANCH   1   2
BRANCH   1  15
HETATM   15  C11 UNL     1       5.692   6.512  -1.841  1.00  0.00     0.000 C 
BRANCH  15  16
HETATM   16  C12 UNL     1       5.740   7.999  -1.480  1.00  0.00     0.005 C 
BRANCH  16  17
HETATM   17  C13 UNL     1       6.035   8.262  -0.046  1.00  0.00     0.038 C 
BRANCH  17  18
HETATM   18  C14 UNL     1       5.184   9.419   0.422  1.00  0.00    -0.057 A 
HETATM   19  C15 UNL     1       4.672  10.342  -0.458  1.00  0.00     0.008 A 
HETATM   20  C16 UNL     1       3.890  11.394   0.028  1.00  0.00     0.013 A 
HETATM   21  C17 UNL     1       3.631  11.510   1.371  1.00  0.00    -0.026 A 
HETATM   22  C18 UNL     1       2.861  12.541   1.864  1.00  0.00     0.012 A 
HETATM   23  C22 UNL     1       4.133  10.596   2.260  1.00  0.00    -0.025 A 
HETATM   24  C19 UNL     1       2.598  12.656   3.230  1.00  0.00     0.001 A 
HETATM   25  C20 UNL     1       3.122  11.717   4.095  1.00  0.00     0.001 A 
HETATM   26  C21 UNL     1       3.896  10.677   3.620  1.00  0.00     0.012 A 
HETATM   27  C23 UNL     1       4.914   9.549   1.765  1.00  0.00     0.019 A 
ENDBRANCH  17  18
ENDBRANCH  16  17
ENDBRANCH  15  16
ENDBRANCH   1  15
TORSDOF 14
ENDMDL
MODEL 5
REMARK VINA RESULT: -6.465182770      1.988      4.703
REMARK  14 active torsions:
REMARK  status: ('A' for Active; 'I' for Inactive)
REMARK    1  A    between atoms: N1_1  and  C1_5 
REMARK    2  A    between atoms: C1_5  and  C2_6 
REMARK    3  A    between atoms: C2_6  and  C3_7 
REMARK    4  A    between atoms: C3_7  and  C4_8 
REMARK    5  A    between atoms: C4_8  and  C5_9 
REMARK    6  A    between atoms: C5_9  and  C6_10 
REMARK    7  A    between atoms: C6_10  and  C7_11 
REMARK    8  A    between atoms: C7_11  and  C8_12 
REMARK    9  A    between atoms: C8_12  and  C9_13 
REMARK   10  A    between atoms: C9_13  and  C10_14 
REMARK   11  A    between atoms: C10_14  and  C11_15 
REMARK   12  A    between atoms: C11_15  and  C12_16 
REMARK   13  A    between atoms: C12_16  and  C13_17 
REMARK   14  A    between atoms: C13_17  and  C14_18 
ROOT
HETATM    1  C10 UNL     1       2.018   6.222   0.381  1.00  0.00     0.000 C 
ENDROOT
BRANCH   1   2
HETATM    2  C9  UNL     1       1.892   7.657   0.150  1.00  0.00     0.000 C 
BRANCH   2   3
HETATM    3  C8  UNL     1       2.574   8.687   0.932  1.00  0.00     0.000 C 
BRANCH   3   4
HETATM    4  C7  UNL     1       3.852   9.267   0.498  1.00  0.00     0.000 C 
BRANCH   4   5
HETATM    5  C6  UNL     1       4.615   9.824   1.693  1.00  0.00     0.000 C 
BRANCH   5   6
HETATM    6  C5  UNL     1       5.446  11.030   1.359  1.00  0.00     0.000 C 
BRANCH   6   7
HETATM    7  C4  UNL     1       4.538  12.130   0.793  1.00  0.00     0.000 C 
BRANCH   7   8
HETATM    8  C3  UNL     1       3.549  12.503   1.887  1.00  0.00     0.002 C 
BRANCH   8   9
HETATM    9  C2  UNL     1       2.192  12.665   1.272  1.00  0.00     0.027 C 
BRANCH   9  10
HETATM   10  C1  UNL     1       2.187  12.541  -0.219  1.00  0.00     0.229 C 
BRANCH  10  11
HETATM   11  N1  UNL     1       1.065  13.347  -0.712  1.00  0.00    -0.079 N 
ATOM     12  H13 UNL     1       0.743  14.040  -0.036  1.00  0.00     0.274 HD
ATOM     13  H12 UNL     1       1.334  13.999  -1.449  1.00  0.00     0.274 HD
ATOM     14  H11 UNL     1       0.334  12.696  -0.999  1.00  0.00     0.274 HD
ENDBRANCH  10  11
ENDBRANCH   9  10
ENDBRANCH   8   9
ENDBRANCH   7   8
ENDBRANCH   6   7
ENDBRANCH   5   6
ENDBRANCH   4   5
ENDBRANCH   3   4
ENDBRANCH   2   3
ENDBRANCH   1   2
BRANCH   1  15
HETATM   15  C11 UNL     1       2.467   5.411  -0.771  1.00  0.00     0.000 C 
BRANCH  15  16
HETATM   16  C12 UNL     1       3.274   6.290  -1.730  1.00  0.00     0.005 C 
BRANCH  16  17
HETATM   17  C13 UNL     1       4.638   5.773  -2.018  1.00  0.00     0.038 C 
BRANCH  17  18
HETATM   18  C14 UNL     1       5.634   6.529  -1.170  1.00  0.00    -0.057 A 
HETATM   19  C15 UNL     1       5.982   6.104   0.089  1.00  0.00     0.008 A 
HETATM   20  C16 UNL     1       6.909   6.841   0.832  1.00  0.00     0.013 A 
HETATM   21  C17 UNL     1       7.472   7.981   0.313  1.00  0.00    -0.026 A 
HETATM   22  C18 UNL     1       8.388   8.717   1.033  1.00  0.00     0.012 A 
HETATM   23  C22 UNL     1       7.136   8.417  -0.942  1.00  0.00    -0.025 A 
HETATM   24  C19 UNL     1       8.959   9.875   0.504  1.00  0.00     0.001 A 
HETATM   25  C20 UNL     1       8.595  10.283  -0.763  1.00  0.00     0.001 A 
HETATM   26  C21 UNL     1       7.680   9.559  -1.500  1.00  0.00     0.012 A 
HETATM   27  C23 UNL     1       6.208   7.674  -1.675  1.00  0.00     0.019 A 
ENDBRANCH  17  18
ENDBRANCH  16  17
ENDBRANCH  15  16
ENDBRANCH   1  15
TORSDOF 14
ENDMDL
