MODEL 1
REMARK VINA RESULT: -6.342568407      0.000      0.000
REMARK  15 active torsions:
REMARK  status: ('A' for Active; 'I' for Inactive)
REMARK    1  A    between atoms: N1_1  and  C1_5 
REMARK    2  A    between atoms: C1_5  and  C2_6 
REMARK    3  A    between atoms: C2_6  and  C3_7 
REMARK    4  A    between atoms: C3_7  and  C4_8 
REMARK    5  A    between atoms: C4_8  and  C5_9 
REMARK    6  A    between atoms: C5_9  and  C6_10 
REMARK    7  A    between atoms: C6_10  and  C7_11 
REMARK    8  A    between atoms: C7_11  and  C8_12 
REMARK    9  A    between atoms: C8_12  and  C9_13 
REMARK   10  A    between atoms: C9_13  and  C10_14 
REMARK   11  A    between atoms: C10_14  and  C11_15 
REMARK   12  A    between atoms: C11_15  and  C12_16 
REMARK   13  A    between atoms: C12_16  and  C13_17 
REMARK   14  A    between atoms: C13_17  and  C14_18 
REMARK   15  A    between atoms: C14_18  and  N2_19 
ROOT
HETATM    1  C11 UNL     1       2.663   5.721  -0.010  1.00  0.00     0.000 C 
ENDROOT
BRANCH   1   2
HETATM    2  C10 UNL     1       2.879   6.115  -1.419  1.00  0.00     0.000 C 
BRANCH   2   3
HETATM    3  C9  UNL     1       4.374   6.202  -1.701  1.00  0.00     0.000 C 
BRANCH   3   4
HETATM    4  C8  UNL     1       5.193   5.721  -0.554  1.00  0.00     0.000 C 
BRANCH   4   5
HETATM    5  C7  UNL     1       6.662   5.673  -0.888  1.00  0.00     0.000 C 
BRANCH   5   6
HETATM    6  C6  UNL     1       7.454   5.867   0.366  1.00  0.00     0.000 C 
BRANCH   6   7
HETATM    7  C5  UNL     1       6.597   6.431   1.496  1.00  0.00     0.000 C 
BRANCH   7   8
HETATM    8  C4  UNL     1       7.454   7.138   2.498  1.00  0.00     0.000 C 
BRANCH   8   9
HETATM    9  C3  UNL     1       8.836   7.355   1.977  1.00  0.00     0.002 C 
BRANCH   9  10
HETATM   10  C2  UNL     1       9.646   8.237   2.899  1.00  0.00     0.027 C 
BRANCH  10  11
HETATM   11  C1  UNL     1       8.751   8.785   4.002  1.00  0.00     0.229 C 
BRANCH  11  12
HETATM   12  N1  UNL     1       8.962  10.221   4.116  1.00  0.00    -0.079 N 
ATOM     13  H13 UNL     1       9.728  10.451   4.748  1.00  0.00     0.274 HD
ATOM     14  H12 UNL     1       9.353  10.624   3.264  1.00  0.00     0.274 HD
ATOM     15  H11 UNL     1       8.086  10.666   4.388  1.00  0.00     0.274 HD
ENDBRANCH  11  12
ENDBRANCH  10  11
ENDBRANCH   9  10
ENDBRANCH   8   9
ENDBRANCH   7   8
ENDBRANCH   6   7
ENDBRANCH   5   6
ENDBRANCH   4   5
ENDBRANCH   3   4
ENDBRANCH   2   3
ENDBRANCH   1   2
BRANCH   1  16
HETATM   16  C12 UNL     1       1.979   6.706   0.860  1.00  0.00     0.002 C 
BRANCH  16  17
HETATM   17  C13 UNL     1       1.541   7.968   0.192  1.00  0.00     0.020 C 
BRANCH  17  18
HETATM   18  C14 UNL     1       2.304   9.156   0.741  1.00  0.00     0.119 C 
BRANCH  18  19
HETATM   19  N2  UNL     1       3.556   9.275   0.058  1.00  0.00    -0.392 N 
HETATM   20  C15 UNL     1       4.650   9.530   0.652  1.00  0.00     0.016 C 
HETATM   21  C16 UNL     1       4.873   9.746   2.097  1.00  0.00     0.062 C 
HETATM   22  C23 UNL     1       5.971   9.671   0.055  1.00  0.00    -0.008 A 
HETATM   23  C17 UNL     1       5.976  10.772   2.082  1.00  0.00     0.045 C 
HETATM   24  C18 UNL     1       6.786  10.399   0.894  1.00  0.00    -0.046 A 
HETATM   25  C19 UNL     1       8.117  10.688   0.584  1.00  0.00     0.008 A 
HETATM   26  C20 UNL     1       8.611  10.221  -0.605  1.00  0.00     0.001 A 
HETATM   27  C21 UNL     1       7.829   9.488  -1.473  1.00  0.00     0.001 A 
HETATM   28  C22 UNL     1       6.521   9.217  -1.145  1.00  0.00     0.014 A 
ATOM     29  H2  UNL     1       3.571   9.150  -0.954  1.00  0.00     0.159 HD
ENDBRANCH  18  19
ENDBRANCH  17  18
ENDBRANCH  16  17
ENDBRANCH   1  16
TORSDOF 15
ENDMDL
MODEL 2
REMARK VINA RESULT: -6.212928661      2.300      4.649
REMARK  15 active torsions:
REMARK  status: ('A' for Active; 'I' for Inactive)
REMARK    1  A    between atoms: N1_1  and  C1_5 
REMARK    2  A    between atoms: C1_5  and  C2_6 
REMARK    3  A    between atoms: C2_6  and  C3_7 
REMARK    4  A    between atoms: C3_7  and  C4_8 
REMARK    5  A    between atoms: C4_8  and  C5_9 
REMARK    6  A    between atoms: C5_9  and  C6_10 
REMARK    7  A    between atoms: C6_10  and  C7_11 
REMARK    8  A    between atoms: C7_11  and  C8_12 
REMARK    9  A    between atoms: C8_12  and  C9_13 
REMARK   10  A    between atoms: C9_13  and  C10_14 
REMARK   11  A    between atoms: C10_14  and  C11_15 
REMARK   12  A    between atoms: C11_15  and  C12_16 
REMARK   13  A    between atoms: C12_16  and  C13_17 
REMARK   14  A    between atoms: C13_17  and  C14_18 
REMARK   15  A    between atoms: C14_18  and  N2_19 
ROOT
HETATM    1  C11 UNL     1       2.318   6.738   0.860  1.00  0.00     0.000 C 
ENDROOT
BRANCH   1   2
HETATM    2  C10 UNL     1       2.373   8.166   0.476  1.00  0.00     0.000 C 
BRANCH   2   3
HETATM    3  C9  UNL     1       3.616   8.808   1.079  1.00  0.00     0.000 C 
BRANCH   3   4
HETATM    4  C8  UNL     1       4.098   9.967   0.277  1.00  0.00     0.000 C 
BRANCH   4   5
HETATM    5  C7  UNL     1       5.033  10.850   1.063  1.00  0.00     0.000 C 
BRANCH   5   6
HETATM    6  C6  UNL     1       4.578  12.269   0.946  1.00  0.00     0.000 C 
BRANCH   6   7
HETATM    7  C5  UNL     1       3.056  12.380   0.963  1.00  0.00     0.000 C 
BRANCH   7   8
HETATM    8  C4  UNL     1       2.571  12.709   2.339  1.00  0.00     0.000 C 
BRANCH   8   9
HETATM    9  C3  UNL     1       1.868  11.549   2.962  1.00  0.00     0.002 C 
BRANCH   9  10
HETATM   10  C2  UNL     1       2.282  11.355   4.402  1.00  0.00     0.027 C 
BRANCH  10  11
HETATM   11  C1  UNL     1       3.741  11.755   4.575  1.00  0.00     0.229 C 
BRANCH  11  12
HETATM   12  N1  UNL     1       3.875  12.560   5.780  1.00  0.00    -0.079 N 
ATOM     13  H13 UNL     1       3.814  13.560   5.586  1.00  0.00     0.274 HD
ATOM     14  H12 UNL     1       3.061  12.483   6.390  1.00  0.00     0.274 HD
ATOM     15  H11 UNL     1       4.741  12.308   6.255  1.00  0.00     0.274 HD
ENDBRANCH  11  12
ENDBRANCH  10  11
ENDBRANCH   9  10
ENDBRANCH   8   9
ENDBRANCH   7   8
ENDBRANCH   6   7
ENDBRANCH   5   6
ENDBRANCH   4   5
ENDBRANCH   3   4
ENDBRANCH   2   3
ENDBRANCH   1   2
BRANCH   1  16
HETATM   16  C12 UNL     1       2.709   5.754  -0.177  1.00  0.00     0.002 C 
BRANCH  16  17
HETATM   17  C13 UNL     1       2.929   6.307  -1.547  1.00  0.00     0.020 C 
BRANCH  17  18
HETATM   18  C14 UNL     1       4.312   5.952  -2.052  1.00  0.00     0.119 C 
BRANCH  18  19
HETATM   19  N2  UNL     1       5.185   7.072  -1.881  1.00  0.00    -0.392 N 
HETATM   20  C15 UNL     1       6.106   7.109  -1.005  1.00  0.00     0.016 C 
HETATM   21  C16 UNL     1       6.469   6.067  -0.022  1.00  0.00     0.062 C 
HETATM   22  C23 UNL     1       7.043   8.194  -0.750  1.00  0.00    -0.008 A 
HETATM   23  C17 UNL     1       6.901   6.901   1.155  1.00  0.00     0.045 C 
HETATM   24  C18 UNL     1       7.542   8.086   0.530  1.00  0.00    -0.046 A 
HETATM   25  C19 UNL     1       8.471   8.989   1.052  1.00  0.00     0.008 A 
HETATM   26  C20 UNL     1       8.889  10.012   0.244  1.00  0.00     0.001 A 
HETATM   27  C21 UNL     1       8.415  10.156  -1.043  1.00  0.00     0.001 A 
HETATM   28  C22 UNL     1       7.500   9.254  -1.534  1.00  0.00     0.014 A 
ATOM     29  H2  UNL     1       5.062   7.880  -2.491  1.00  0.00     0.159 HD
ENDBRANCH  18  19
ENDBRANCH  17  18
ENDBRANCH  16  17
ENDBRANCH   1  16
TORSDOF 15
ENDMDL
MODEL 3
REMARK VINA RESULT: -6.208398607      2.705      5.744
REMARK  15 active torsions:
REMARK  status: ('A' for Active; 'I' for Inactive)
REMARK    1  A    between atoms: N1_1  and  C1_5 
REMARK    2  A    between atoms: C1_5  and  C2_6 
REMARK    3  A    between atoms: C2_6  and  C3_7 
REMARK    4  A    between atoms: C3_7  and  C4_8 
REMARK    5  A    between atoms: C4_8  and  C5_9 
REMARK    6  A    between atoms: C5_9  and  C6_10 
REMARK    7  A    between atoms: C6_10  and  C7_11 
REMARK    8  A    between atoms: C7_11  and  C8_12 
REMARK    9  A    between atoms: C8_12  and  C9_13 
REMARK   10  A    between atoms: C9_13  and  C10_14 
REMARK   11  A    between atoms: C10_14  and  C11_15 
REMARK   12  A    between atoms: C11_15  and  C12_16 
REMARK   13  A    between atoms: C12_16  and  C13_17 
REMARK   14  A    between atoms: C13_17  and  C14_18 
REMARK   15  A    between atoms: C14_18  and  N2_19 
ROOT
HETATM    1  C11 UNL     1       5.229   7.209  -1.890  1.00  0.00     0.000 C 
ENDROOT
BRANCH   1   2
HETATM    2  C10 UNL     1       4.357   6.036  -1.656  1.00  0.00     0.000 C 
BRANCH   2   3
HETATM    3  C9  UNL     1       2.967   6.507  -1.251  1.00  0.00     0.000 C 
BRANCH   3   4
HETATM    4  C8  UNL     1       2.433   5.752  -0.084  1.00  0.00     0.000 C 
BRANCH   4   5
HETATM    5  C7  UNL     1       1.868   6.666   0.973  1.00  0.00     0.000 C 
BRANCH   5   6
HETATM    6  C6  UNL     1       2.400   8.046   0.760  1.00  0.00     0.000 C 
BRANCH   6   7
HETATM    7  C5  UNL     1       1.308   9.104   0.902  1.00  0.00     0.000 C 
BRANCH   7   8
HETATM    8  C4  UNL     1       0.312   8.690   1.938  1.00  0.00     0.000 C 
BRANCH   8   9
HETATM    9  C3  UNL     1       0.139   9.745   2.980  1.00  0.00     0.002 C 
BRANCH   9  10
HETATM   10  C2  UNL     1       0.511   9.236   4.354  1.00  0.00     0.027 C 
BRANCH  10  11
HETATM   11  C1  UNL     1      -0.574   8.297   4.863  1.00  0.00     0.229 C 
BRANCH  11  12
HETATM   12  N1  UNL     1       0.044   7.066   5.334  1.00  0.00    -0.079 N 
ATOM     13  H13 UNL     1       0.117   7.032   6.351  1.00  0.00     0.274 HD
ATOM     14  H12 UNL     1      -0.561   6.255   5.206  1.00  0.00     0.274 HD
ATOM     15  H11 UNL     1       0.948   6.952   4.876  1.00  0.00     0.274 HD
ENDBRANCH  11  12
ENDBRANCH  10  11
ENDBRANCH   9  10
ENDBRANCH   8   9
ENDBRANCH   7   8
ENDBRANCH   6   7
ENDBRANCH   5   6
ENDBRANCH   4   5
ENDBRANCH   3   4
ENDBRANCH   2   3
ENDBRANCH   1   2
BRANCH   1  16
HETATM   16  C12 UNL     1       6.026   7.686  -0.735  1.00  0.00     0.002 C 
BRANCH  16  17
HETATM   17  C13 UNL     1       7.067   8.711  -1.046  1.00  0.00     0.020 C 
BRANCH  17  18
HETATM   18  C14 UNL     1       6.483  10.107  -0.967  1.00  0.00     0.119 C 
BRANCH  18  19
HETATM   19  N2  UNL     1       5.996  10.346   0.357  1.00  0.00    -0.392 N 
HETATM   20  C15 UNL     1       4.866  10.876   0.596  1.00  0.00     0.016 C 
HETATM   21  C16 UNL     1       3.852  11.338  -0.375  1.00  0.00     0.062 C 
HETATM   22  C23 UNL     1       4.279  11.162   1.899  1.00  0.00    -0.008 A 
HETATM   23  C17 UNL     1       3.272  12.531   0.338  1.00  0.00     0.045 C 
HETATM   24  C18 UNL     1       3.316  12.139   1.770  1.00  0.00    -0.046 A 
HETATM   25  C19 UNL     1       2.578  12.613   2.857  1.00  0.00     0.008 A 
HETATM   26  C20 UNL     1       2.837  12.072   4.088  1.00  0.00     0.001 A 
HETATM   27  C21 UNL     1       3.793  11.093   4.260  1.00  0.00     0.001 A 
HETATM   28  C22 UNL     1       4.507  10.644   3.173  1.00  0.00     0.014 A 
ATOM     29  H2  UNL     1       6.585  10.080   1.146  1.00  0.00     0.159 HD
ENDBRANCH  18  19
ENDBRANCH  17  18
ENDBRANCH  16  17
ENDBRANCH   1  16
TORSDOF 15
ENDMDL
MODEL 4
REMARK VINA RESULT: -6.180562948      2.559      5.438
REMARK  15 active torsions:
REMARK  status: ('A' for Active; 'I' for Inactive)
REMARK    1  A    between atoms: N1_1  and  C1_5 
REMARK    2  A    between atoms: C1_5  and  C2_6 
REMARK    3  A    between atoms: C2_6  and  C3_7 
REMARK    4  A    between atoms: C3_7  and  C4_8 
REMARK    5  A    between atoms: C4_8  and  C5_9 
REMARK    6  A    between atoms: C5_9  and  C6_10 
REMARK    7  A    between atoms: C6_10  and  C7_11 
REMARK    8  A    between atoms: C7_11  and  C8_12 
REMARK    9  A    between atoms: C8_12  and  C9_13 
REMARK   10  A    between atoms: C9_13  and  C10_14 
REMARK   11  A    between atoms: C10_14  and  C11_15 
REMARK   12  A    between atoms: C11_15  and  C12_16 
REMARK   13  A    between atoms: C12_16  and  C13_17 
REMARK   14  A    between atoms: C13_17  and  C14_18 
REMARK   15  A    between atoms: C14_18  and  N2_19 
ROOT
HETATM    1  C11 UNL     1       5.963   6.741  -1.947  1.00  0.00     0.000 C 
ENDROOT
BRANCH   1   2
HETATM    2  C10 UNL     1       5.062   5.735  -1.344  1.00  0.00     0.000 C 
BRANCH   2   3
HETATM    3  C9  UNL     1       3.650   5.929  -1.882  1.00  0.00     0.000 C 
BRANCH   3   4
HETATM    4  C8  UNL     1       2.613   5.718  -0.834  1.00  0.00     0.000 C 
BRANCH   4   5
HETATM    5  C7  UNL     1       2.936   6.458   0.439  1.00  0.00     0.000 C 
BRANCH   5   6
HETATM    6  C6  UNL     1       2.365   7.837   0.360  1.00  0.00     0.000 C 
BRANCH   6   7
HETATM    7  C5  UNL     1       1.624   8.218   1.640  1.00  0.00     0.000 C 
BRANCH   7   8
HETATM    8  C4  UNL     1       0.724   9.386   1.394  1.00  0.00     0.000 C 
BRANCH   8   9
HETATM    9  C3  UNL     1       0.062   9.839   2.653  1.00  0.00     0.002 C 
BRANCH   9  10
HETATM   10  C2  UNL     1       0.736   9.258   3.875  1.00  0.00     0.027 C 
BRANCH  10  11
HETATM   11  C1  UNL     1      -0.304   8.589   4.764  1.00  0.00     0.229 C 
BRANCH  11  12
HETATM   12  N1  UNL     1       0.173   7.267   5.141  1.00  0.00    -0.079 N 
ATOM     13  H13 UNL     1      -0.142   6.543   4.496  1.00  0.00     0.274 HD
ATOM     14  H12 UNL     1       1.177   7.161   4.996  1.00  0.00     0.274 HD
ATOM     15  H11 UNL     1      -0.102   7.075   6.104  1.00  0.00     0.274 HD
ENDBRANCH  11  12
ENDBRANCH  10  11
ENDBRANCH   9  10
ENDBRANCH   8   9
ENDBRANCH   7   8
ENDBRANCH   6   7
ENDBRANCH   5   6
ENDBRANCH   4   5
ENDBRANCH   3   4
ENDBRANCH   2   3
ENDBRANCH   1   2
BRANCH   1  16
HETATM   16  C12 UNL     1       6.543   7.751  -1.031  1.00  0.00     0.002 C 
BRANCH  16  17
HETATM   17  C13 UNL     1       7.089   7.223   0.255  1.00  0.00     0.020 C 
BRANCH  17  18
HETATM   18  C14 UNL     1       6.660   8.096   1.416  1.00  0.00     0.119 C 
BRANCH  18  19
HETATM   19  N2  UNL     1       5.642   9.002   0.981  1.00  0.00    -0.392 N 
HETATM   20  C15 UNL     1       5.206   9.955   1.701  1.00  0.00     0.016 C 
HETATM   21  C16 UNL     1       5.623  10.328   3.069  1.00  0.00     0.062 C 
HETATM   22  C23 UNL     1       4.178  10.928   1.356  1.00  0.00    -0.008 A 
HETATM   23  C17 UNL     1       4.328  10.823   3.656  1.00  0.00     0.045 C 
HETATM   24  C18 UNL     1       3.645  11.470   2.506  1.00  0.00    -0.046 A 
HETATM   25  C19 UNL     1       2.641  12.439   2.484  1.00  0.00     0.008 A 
HETATM   26  C20 UNL     1       2.181  12.853   1.261  1.00  0.00     0.001 A 
HETATM   27  C21 UNL     1       2.687  12.336   0.087  1.00  0.00     0.001 A 
HETATM   28  C22 UNL     1       3.676  11.382   0.136  1.00  0.00     0.014 A 
ATOM     29  H2  UNL     1       5.246   8.877   0.050  1.00  0.00     0.159 HD
ENDBRANCH  18  19
ENDBRANCH  17  18
ENDBRANCH  16  17
ENDBRANCH   1  16
TORSDOF 15
ENDMDL
MODEL 5
REMARK VINA RESULT: -6.130410563      2.306      5.017
REMARK  15 active torsions:
REMARK  status: ('A' for Active; 'I' for Inactive)
REMARK    1  A    between atoms: N1_1  and  C1_5 
REMARK    2  A    between atoms: C1_5  and  C2_6 
REMARK    3  A    between atoms: C2_6  and  C3_7 
REMARK    4  A    between atoms: C3_7  and  C4_8 
REMARK    5  A    between atoms: C4_8  and  C5_9 
REMARK    6  A    between atoms: C5_9  and  C6_10 
REMARK    7  A    between atoms: C6_10  and  C7_11 
REMARK    8  A    between atoms: C7_11  and  C8_12 
REMARK    9  A    between atoms: C8_12  and  C9_13 
REMARK   10  A    between atoms: C9_13  and  C10_14 
REMARK   11  A    between atoms: C10_14  and  C11_15 
REMARK   12  A    between atoms: C11_15  and  C12_16 
REMARK   13  A    between atoms: C12_16  and  C13_17 
REMARK   14  A    between atoms: C13_17  and  C14_18 
REMARK   15  A    between atoms: C14_18  and  N2_19 
ROOT
HETATM    1  C11 UNL     1       2.780   6.596   0.868  1.00  0.00     0.000 C 
ENDROOT
BRANCH   1   2
HETATM    2  C10 UNL     1       2.585   8.033   0.577  1.00  0.00     0.000 C 
BRANCH   2   3
HETATM    3  C9  UNL     1       3.781   8.824   1.093  1.00  0.00     0.000 C 
BRANCH   3   4
HETATM    4  C8  UNL     1       4.115   9.978   0.214  1.00  0.00     0.000 C 
BRANCH   4   5
HETATM    5  C7  UNL     1       5.056  10.947   0.884  1.00  0.00     0.000 C 
BRANCH   5   6
HETATM    6  C6  UNL     1       4.495  12.328   0.772  1.00  0.00     0.000 C 
BRANCH   6   7
HETATM    7  C5  UNL     1       3.116  12.434   1.417  1.00  0.00     0.000 C 
BRANCH   7   8
HETATM    8  C4  UNL     1       3.240  12.504   2.906  1.00  0.00     0.000 C 
BRANCH   8   9
HETATM    9  C3  UNL     1       2.483  11.401   3.568  1.00  0.00     0.002 C 
BRANCH   9  10
HETATM   10  C2  UNL     1       1.291  10.972   2.744  1.00  0.00     0.027 C 
BRANCH  10  11
HETATM   11  C1  UNL     1       0.188  10.464   3.664  1.00  0.00     0.229 C 
BRANCH  11  12
HETATM   12  N1  UNL     1       0.033  11.390   4.776  1.00  0.00    -0.079 N 
ATOM     13  H13 UNL     1       0.927  11.636   5.202  1.00  0.00     0.274 HD
ATOM     14  H12 UNL     1      -0.242  12.323   4.469  1.00  0.00     0.274 HD
ATOM     15  H11 UNL     1      -0.622  10.994   5.450  1.00  0.00     0.274 HD
ENDBRANCH  11  12
ENDBRANCH  10  11
ENDBRANCH   9  10
ENDBRANCH   8   9
ENDBRANCH   7   8
ENDBRANCH   6   7
ENDBRANCH   5   6
ENDBRANCH   4   5
ENDBRANCH   3   4
ENDBRANCH   2   3
ENDBRANCH   1   2
BRANCH   1  16
HETATM   16  C12 UNL     1       2.764   5.673  -0.292  1.00  0.00     0.002 C 
BRANCH  16  17
HETATM   17  C13 UNL     1       3.036   6.296  -1.621  1.00  0.00     0.020 C 
BRANCH  17  18
HETATM   18  C14 UNL     1       4.436   5.963  -2.091  1.00  0.00     0.119 C 
BRANCH  18  19
HETATM   19  N2  UNL     1       5.290   7.092  -1.886  1.00  0.00    -0.392 N 
HETATM   20  C15 UNL     1       6.204   7.121  -1.003  1.00  0.00     0.016 C 
HETATM   21  C16 UNL     1       6.577   6.061  -0.043  1.00  0.00     0.062 C 
HETATM   22  C23 UNL     1       7.123   8.214  -0.713  1.00  0.00    -0.008 A 
HETATM   23  C17 UNL     1       6.987   6.872   1.158  1.00  0.00     0.045 C 
HETATM   24  C18 UNL     1       7.613   8.082   0.568  1.00  0.00    -0.046 A 
HETATM   25  C19 UNL     1       8.524   8.985   1.120  1.00  0.00     0.008 A 
HETATM   26  C20 UNL     1       8.932  10.036   0.340  1.00  0.00     0.001 A 
HETATM   27  C21 UNL     1       8.466  10.204  -0.946  1.00  0.00     0.001 A 
HETATM   28  C22 UNL     1       7.568   9.300  -1.467  1.00  0.00     0.014 A 
ATOM     29  H2  UNL     1       5.159   7.913  -2.476  1.00  0.00     0.159 HD
ENDBRANCH  18  19
ENDBRANCH  17  18
ENDBRANCH  16  17
ENDBRANCH   1  16
TORSDOF 15
ENDMDL
