MODEL 1
REMARK VINA RESULT: -7.025505578      0.000      0.000
REMARK  15 active torsions:
REMARK  status: ('A' for Active; 'I' for Inactive)
REMARK    1  A    between atoms: N1_1  and  C1_5 
REMARK    2  A    between atoms: C1_5  and  C2_6 
REMARK    3  A    between atoms: C2_6  and  C3_7 
REMARK    4  A    between atoms: C3_7  and  C4_8 
REMARK    5  A    between atoms: C4_8  and  C5_9 
REMARK    6  A    between atoms: C5_9  and  C6_10 
REMARK    7  A    between atoms: C6_10  and  C7_11 
REMARK    8  A    between atoms: C11_15  and  C12_16 
REMARK    9  A    between atoms: C12_16  and  C13_17 
REMARK   10  A    between atoms: C13_17  and  C14_18 
REMARK   11  A    between atoms: C14_18  and  C15_19 
REMARK   12  A    between atoms: C15_19  and  C16_20 
REMARK   13  A    between atoms: C16_20  and  C17_21 
REMARK   14  A    between atoms: C17_21  and  C18_22 
REMARK   15  A    between atoms: C18_22  and  C19_23 
ROOT
HETATM    1  C7  UNL     1       4.440   7.141  -1.107  1.00  0.00    -0.079 C 
HETATM    2  C8  UNL     1       3.658   6.205  -1.671  1.00  0.00    -0.024 C 
HETATM    3  C9  UNL     1       2.573   5.822  -0.727  1.00  0.00     0.028 C 
HETATM    4  C10 UNL     1       3.250   6.147   0.608  1.00  0.00     0.012 C 
HETATM    5  C11 UNL     1       3.936   7.454   0.252  1.00  0.00     0.014 C 
ENDROOT
BRANCH   5   6
HETATM    6  C12 UNL     1       2.990   8.600   0.238  1.00  0.00     0.009 C 
BRANCH   6   7
HETATM    7  C13 UNL     1       2.114   8.662   1.473  1.00  0.00     0.001 C 
BRANCH   7   8
HETATM    8  C14 UNL     1       1.059   9.758   1.337  1.00  0.00     0.000 C 
BRANCH   8   9
HETATM    9  C15 UNL     1       0.219   9.844   2.576  1.00  0.00     0.000 C 
BRANCH   9  10
HETATM   10  C16 UNL     1       1.007   9.797   3.842  1.00  0.00     0.000 C 
BRANCH  10  11
HETATM   11  C17 UNL     1       1.233  11.163   4.447  1.00  0.00     0.005 C 
BRANCH  11  12
HETATM   12  C18 UNL     1       2.696  11.410   4.748  1.00  0.00     0.038 C 
BRANCH  12  13
HETATM   13  C19 UNL     1       3.531  11.464   3.532  1.00  0.00    -0.058 A 
HETATM   14  C20 UNL     1       4.616  10.593   3.398  1.00  0.00     0.007 A 
HETATM   15  C21 UNL     1       5.407  10.632   2.270  1.00  0.00     0.001 A 
HETATM   16  C22 UNL     1       5.168  11.523   1.238  1.00  0.00     0.000 A 
HETATM   17  C23 UNL     1       4.100  12.388   1.358  1.00  0.00     0.001 A 
HETATM   18  C24 UNL     1       3.319  12.340   2.483  1.00  0.00     0.007 A 
ENDBRANCH  12  13
ENDBRANCH  11  12
ENDBRANCH  10  11
ENDBRANCH   9  10
ENDBRANCH   8   9
ENDBRANCH   7   8
ENDBRANCH   6   7
ENDBRANCH   5   6
BRANCH   1  19
HETATM   19  C6  UNL     1       5.630   7.711  -1.850  1.00  0.00     0.038 C 
BRANCH  19  20
HETATM   20  C5  UNL     1       6.210   8.909  -1.217  1.00  0.00     0.031 C 
BRANCH  20  21
HETATM   21  C4  UNL     1       7.488   8.674  -0.514  1.00  0.00    -0.030 C 
BRANCH  21  22
HETATM   22  C3  UNL     1       7.575   8.162   0.851  1.00  0.00    -0.029 C 
BRANCH  22  23
HETATM   23  C2  UNL     1       8.118   6.823   1.160  1.00  0.00     0.054 C 
BRANCH  23  24
HETATM   24  C1  UNL     1       8.612   6.838   2.649  1.00  0.00     0.233 C 
BRANCH  24  25
HETATM   25  N1  UNL     1      10.054   6.808   2.633  1.00  0.00    -0.079 N 
ATOM     26  H13 UNL     1      10.429   6.131   1.968  1.00  0.00     0.274 HD
ATOM     27  H12 UNL     1      10.463   7.646   2.219  1.00  0.00     0.274 HD
ATOM     28  H11 UNL     1      10.371   6.642   3.588  1.00  0.00     0.274 HD
ENDBRANCH  24  25
ENDBRANCH  23  24
ENDBRANCH  22  23
ENDBRANCH  21  22
ENDBRANCH  20  21
ENDBRANCH  19  20
ENDBRANCH   1  19
TORSDOF 15
ENDMDL
MODEL 2
REMARK VINA RESULT: -7.017538797      1.371      3.096
REMARK  15 active torsions:
REMARK  status: ('A' for Active; 'I' for Inactive)
REMARK    1  A    between atoms: N1_1  and  C1_5 
REMARK    2  A    between atoms: C1_5  and  C2_6 
REMARK    3  A    between atoms: C2_6  and  C3_7 
REMARK    4  A    between atoms: C3_7  and  C4_8 
REMARK    5  A    between atoms: C4_8  and  C5_9 
REMARK    6  A    between atoms: C5_9  and  C6_10 
REMARK    7  A    between atoms: C6_10  and  C7_11 
REMARK    8  A    between atoms: C11_15  and  C12_16 
REMARK    9  A    between atoms: C12_16  and  C13_17 
REMARK   10  A    between atoms: C13_17  and  C14_18 
REMARK   11  A    between atoms: C14_18  and  C15_19 
REMARK   12  A    between atoms: C15_19  and  C16_20 
REMARK   13  A    between atoms: C16_20  and  C17_21 
REMARK   14  A    between atoms: C17_21  and  C18_22 
REMARK   15  A    between atoms: C18_22  and  C19_23 
ROOT
HETATM    1  C7  UNL     1       3.406   6.059  -0.336  1.00  0.00    -0.079 C 
HETATM    2  C8  UNL     1       2.254   5.514  -0.763  1.00  0.00    -0.024 C 
HETATM    3  C9  UNL     1       1.126   6.010   0.069  1.00  0.00     0.028 C 
HETATM    4  C10 UNL     1       1.870   6.331   1.370  1.00  0.00     0.012 C 
HETATM    5  C11 UNL     1       3.133   6.960   0.808  1.00  0.00     0.014 C 
ENDROOT
BRANCH   5   6
HETATM    6  C12 UNL     1       2.915   8.363   0.366  1.00  0.00     0.009 C 
BRANCH   6   7
HETATM    7  C13 UNL     1       3.921   9.333   0.952  1.00  0.00     0.001 C 
BRANCH   7   8
HETATM    8  C14 UNL     1       4.374  10.346  -0.098  1.00  0.00     0.000 C 
BRANCH   8   9
HETATM    9  C15 UNL     1       3.475  11.546  -0.101  1.00  0.00     0.000 C 
BRANCH   9  10
HETATM   10  C16 UNL     1       3.643  12.427   1.091  1.00  0.00     0.000 C 
BRANCH  10  11
HETATM   11  C17 UNL     1       2.332  12.766   1.763  1.00  0.00     0.005 C 
BRANCH  11  12
HETATM   12  C18 UNL     1       2.261  12.212   3.169  1.00  0.00     0.038 C 
BRANCH  12  13
HETATM   13  C19 UNL     1       1.442  10.987   3.263  1.00  0.00    -0.058 A 
HETATM   14  C20 UNL     1       1.480  10.217   4.428  1.00  0.00     0.007 A 
HETATM   15  C21 UNL     1       0.723   9.069   4.531  1.00  0.00     0.001 A 
HETATM   16  C22 UNL     1      -0.093   8.635   3.501  1.00  0.00     0.000 A 
HETATM   17  C23 UNL     1      -0.139   9.387   2.345  1.00  0.00     0.001 A 
HETATM   18  C24 UNL     1       0.617  10.527   2.253  1.00  0.00     0.007 A 
ENDBRANCH  12  13
ENDBRANCH  11  12
ENDBRANCH  10  11
ENDBRANCH   9  10
ENDBRANCH   8   9
ENDBRANCH   7   8
ENDBRANCH   6   7
ENDBRANCH   5   6
BRANCH   1  19
HETATM   19  C6  UNL     1       4.721   5.722  -1.007  1.00  0.00     0.038 C 
BRANCH  19  20
HETATM   20  C5  UNL     1       5.158   6.722  -1.999  1.00  0.00     0.031 C 
BRANCH  20  21
HETATM   21  C4  UNL     1       6.292   7.564  -1.563  1.00  0.00    -0.030 C 
BRANCH  21  22
HETATM   22  C3  UNL     1       6.946   7.426  -0.265  1.00  0.00    -0.029 C 
BRANCH  22  23
HETATM   23  C2  UNL     1       7.694   8.534   0.364  1.00  0.00     0.054 C 
BRANCH  23  24
HETATM   24  C1  UNL     1       8.612   7.921   1.479  1.00  0.00     0.233 C 
BRANCH  24  25
HETATM   25  N1  UNL     1       8.555   6.485   1.353  1.00  0.00    -0.079 N 
ATOM     26  H13 UNL     1       7.602   6.122   1.384  1.00  0.00     0.274 HD
ATOM     27  H12 UNL     1       8.793   6.159   0.417  1.00  0.00     0.274 HD
ATOM     28  H11 UNL     1       9.154   6.087   2.076  1.00  0.00     0.274 HD
ENDBRANCH  24  25
ENDBRANCH  23  24
ENDBRANCH  22  23
ENDBRANCH  21  22
ENDBRANCH  20  21
ENDBRANCH  19  20
ENDBRANCH   1  19
TORSDOF 15
ENDMDL
MODEL 3
REMARK VINA RESULT: -6.976461756      1.166      3.114
REMARK  15 active torsions:
REMARK  status: ('A' for Active; 'I' for Inactive)
REMARK    1  A    between atoms: N1_1  and  C1_5 
REMARK    2  A    between atoms: C1_5  and  C2_6 
REMARK    3  A    between atoms: C2_6  and  C3_7 
REMARK    4  A    between atoms: C3_7  and  C4_8 
REMARK    5  A    between atoms: C4_8  and  C5_9 
REMARK    6  A    between atoms: C5_9  and  C6_10 
REMARK    7  A    between atoms: C6_10  and  C7_11 
REMARK    8  A    between atoms: C11_15  and  C12_16 
REMARK    9  A    between atoms: C12_16  and  C13_17 
REMARK   10  A    between atoms: C13_17  and  C14_18 
REMARK   11  A    between atoms: C14_18  and  C15_19 
REMARK   12  A    between atoms: C15_19  and  C16_20 
REMARK   13  A    between atoms: C16_20  and  C17_21 
REMARK   14  A    between atoms: C17_21  and  C18_22 
REMARK   15  A    between atoms: C18_22  and  C19_23 
ROOT
HETATM    1  C7  UNL     1       3.414   6.217  -0.193  1.00  0.00    -0.079 C 
HETATM    2  C8  UNL     1       2.453   5.398  -0.653  1.00  0.00    -0.024 C 
HETATM    3  C9  UNL     1       1.159   5.726   0.001  1.00  0.00     0.028 C 
HETATM    4  C10 UNL     1       1.666   6.330   1.315  1.00  0.00     0.012 C 
HETATM    5  C11 UNL     1       2.834   7.152   0.800  1.00  0.00     0.014 C 
ENDROOT
BRANCH   5   6
HETATM    6  C12 UNL     1       2.393   8.423   0.167  1.00  0.00     0.009 C 
BRANCH   6   7
HETATM    7  C13 UNL     1       3.309   9.590   0.476  1.00  0.00     0.001 C 
BRANCH   7   8
HETATM    8  C14 UNL     1       4.121   9.322   1.742  1.00  0.00     0.000 C 
BRANCH   8   9
HETATM    9  C15 UNL     1       4.804  10.573   2.209  1.00  0.00     0.000 C 
BRANCH   9  10
HETATM   10  C16 UNL     1       4.667  10.821   3.674  1.00  0.00     0.000 C 
BRANCH  10  11
HETATM   11  C17 UNL     1       3.622  11.864   4.000  1.00  0.00     0.005 C 
BRANCH  11  12
HETATM   12  C18 UNL     1       2.531  11.307   4.888  1.00  0.00     0.038 C 
BRANCH  12  13
HETATM   13  C19 UNL     1       1.529  10.519   4.143  1.00  0.00    -0.058 A 
HETATM   14  C20 UNL     1       0.984  11.032   2.963  1.00  0.00     0.007 A 
HETATM   15  C21 UNL     1       0.045  10.310   2.257  1.00  0.00     0.001 A 
HETATM   16  C22 UNL     1      -0.392   9.067   2.679  1.00  0.00     0.000 A 
HETATM   17  C23 UNL     1       0.138   8.550   3.843  1.00  0.00     0.001 A 
HETATM   18  C24 UNL     1       1.071   9.275   4.537  1.00  0.00     0.007 A 
ENDBRANCH  12  13
ENDBRANCH  11  12
ENDBRANCH  10  11
ENDBRANCH   9  10
ENDBRANCH   8   9
ENDBRANCH   7   8
ENDBRANCH   6   7
ENDBRANCH   5   6
BRANCH   1  19
HETATM   19  C6  UNL     1       4.840   6.100  -0.691  1.00  0.00     0.038 C 
BRANCH  19  20
HETATM   20  C5  UNL     1       5.121   6.911  -1.889  1.00  0.00     0.031 C 
BRANCH  20  21
HETATM   21  C4  UNL     1       6.371   7.696  -1.820  1.00  0.00    -0.030 C 
BRANCH  21  22
HETATM   22  C3  UNL     1       6.644   8.687  -0.783  1.00  0.00    -0.029 C 
BRANCH  22  23
HETATM   23  C2  UNL     1       7.831   8.607   0.094  1.00  0.00     0.054 C 
BRANCH  23  24
HETATM   24  C1  UNL     1       7.493   7.623   1.268  1.00  0.00     0.233 C 
BRANCH  24  25
HETATM   25  N1  UNL     1       8.360   6.476   1.143  1.00  0.00    -0.079 N 
ATOM     26  H13 UNL     1       9.348   6.728   1.107  1.00  0.00     0.274 HD
ATOM     27  H12 UNL     1       8.395   5.912   1.992  1.00  0.00     0.274 HD
ATOM     28  H11 UNL     1       8.056   5.947   0.326  1.00  0.00     0.274 HD
ENDBRANCH  24  25
ENDBRANCH  23  24
ENDBRANCH  22  23
ENDBRANCH  21  22
ENDBRANCH  20  21
ENDBRANCH  19  20
ENDBRANCH   1  19
TORSDOF 15
ENDMDL
MODEL 4
REMARK VINA RESULT: -6.957681153      2.393      6.453
REMARK  15 active torsions:
REMARK  status: ('A' for Active; 'I' for Inactive)
REMARK    1  A    between atoms: N1_1  and  C1_5 
REMARK    2  A    between atoms: C1_5  and  C2_6 
REMARK    3  A    between atoms: C2_6  and  C3_7 
REMARK    4  A    between atoms: C3_7  and  C4_8 
REMARK    5  A    between atoms: C4_8  and  C5_9 
REMARK    6  A    between atoms: C5_9  and  C6_10 
REMARK    7  A    between atoms: C6_10  and  C7_11 
REMARK    8  A    between atoms: C11_15  and  C12_16 
REMARK    9  A    between atoms: C12_16  and  C13_17 
REMARK   10  A    between atoms: C13_17  and  C14_18 
REMARK   11  A    between atoms: C14_18  and  C15_19 
REMARK   12  A    between atoms: C15_19  and  C16_20 
REMARK   13  A    between atoms: C16_20  and  C17_21 
REMARK   14  A    between atoms: C17_21  and  C18_22 
REMARK   15  A    between atoms: C18_22  and  C19_23 
ROOT
HETATM    1  C7  UNL     1       3.486  10.961   2.069  1.00  0.00    -0.079 C 
HETATM    2  C8  UNL     1       3.785  12.197   1.637  1.00  0.00    -0.024 C 
HETATM    3  C9  UNL     1       3.920  12.193   0.156  1.00  0.00     0.028 C 
HETATM    4  C10 UNL     1       4.322  10.732  -0.074  1.00  0.00     0.012 C 
HETATM    5  C11 UNL     1       3.397  10.040   0.911  1.00  0.00     0.014 C 
ENDROOT
BRANCH   5   6
HETATM    6  C12 UNL     1       2.006   9.934   0.397  1.00  0.00     0.009 C 
BRANCH   6   7
HETATM    7  C13 UNL     1       1.573   8.504   0.146  1.00  0.00     0.001 C 
BRANCH   7   8
HETATM    8  C14 UNL     1       2.089   7.579   1.245  1.00  0.00     0.000 C 
BRANCH   8   9
HETATM    9  C15 UNL     1       1.797   6.145   0.915  1.00  0.00     0.000 C 
BRANCH   9  10
HETATM   10  C16 UNL     1       1.859   5.840  -0.545  1.00  0.00     0.000 C 
BRANCH  10  11
HETATM   11  C17 UNL     1       3.208   5.318  -0.981  1.00  0.00     0.005 C 
BRANCH  11  12
HETATM   12  C18 UNL     1       3.902   6.276  -1.926  1.00  0.00     0.038 C 
BRANCH  12  13
HETATM   13  C19 UNL     1       5.042   6.975  -1.300  1.00  0.00    -0.058 A 
HETATM   14  C20 UNL     1       5.340   6.746   0.045  1.00  0.00     0.007 A 
HETATM   15  C21 UNL     1       6.400   7.393   0.645  1.00  0.00     0.001 A 
HETATM   16  C22 UNL     1       7.200   8.285  -0.047  1.00  0.00     0.000 A 
HETATM   17  C23 UNL     1       6.916   8.520  -1.376  1.00  0.00     0.001 A 
HETATM   18  C24 UNL     1       5.861   7.872  -1.963  1.00  0.00     0.007 A 
ENDBRANCH  12  13
ENDBRANCH  11  12
ENDBRANCH  10  11
ENDBRANCH   9  10
ENDBRANCH   8   9
ENDBRANCH   7   8
ENDBRANCH   6   7
ENDBRANCH   5   6
BRANCH   1  19
HETATM   19  C6  UNL     1       3.295  10.677   3.545  1.00  0.00     0.038 C 
BRANCH  19  20
HETATM   20  C5  UNL     1       2.276  11.526   4.187  1.00  0.00     0.031 C 
BRANCH  20  21
HETATM   21  C4  UNL     1       1.000  10.839   4.479  1.00  0.00    -0.030 C 
BRANCH  21  22
HETATM   22  C3  UNL     1       0.128  10.286   3.446  1.00  0.00    -0.029 C 
BRANCH  22  23
HETATM   23  C2  UNL     1      -0.313   8.875   3.457  1.00  0.00     0.054 C 
BRANCH  23  24
HETATM   24  C1  UNL     1      -0.588   8.471   4.948  1.00  0.00     0.233 C 
BRANCH  24  25
HETATM   25  N1  UNL     1       0.173   7.278   5.227  1.00  0.00    -0.079 N 
ATOM     26  H13 UNL     1       1.164   7.466   5.379  1.00  0.00     0.274 HD
ATOM     27  H12 UNL     1      -0.032   6.883   6.145  1.00  0.00     0.274 HD
ATOM     28  H11 UNL     1       0.007   6.620   4.465  1.00  0.00     0.274 HD
ENDBRANCH  24  25
ENDBRANCH  23  24
ENDBRANCH  22  23
ENDBRANCH  21  22
ENDBRANCH  20  21
ENDBRANCH  19  20
ENDBRANCH   1  19
TORSDOF 15
ENDMDL
MODEL 5
REMARK VINA RESULT: -6.942839712      1.048      1.217
REMARK  15 active torsions:
REMARK  status: ('A' for Active; 'I' for Inactive)
REMARK    1  A    between atoms: N1_1  and  C1_5 
REMARK    2  A    between atoms: C1_5  and  C2_6 
REMARK    3  A    between atoms: C2_6  and  C3_7 
REMARK    4  A    between atoms: C3_7  and  C4_8 
REMARK    5  A    between atoms: C4_8  and  C5_9 
REMARK    6  A    between atoms: C5_9  and  C6_10 
REMARK    7  A    between atoms: C6_10  and  C7_11 
REMARK    8  A    between atoms: C11_15  and  C12_16 
REMARK    9  A    between atoms: C12_16  and  C13_17 
REMARK   10  A    between atoms: C13_17  and  C14_18 
REMARK   11  A    between atoms: C14_18  and  C15_19 
REMARK   12  A    between atoms: C15_19  and  C16_20 
REMARK   13  A    between atoms: C16_20  and  C17_21 
REMARK   14  A    between atoms: C17_21  and  C18_22 
REMARK   15  A    between atoms: C18_22  and  C19_23 
ROOT
HETATM    1  C7  UNL     1       4.571   6.867  -1.369  1.00  0.00    -0.079 C 
HETATM    2  C8  UNL     1       3.793   6.074  -2.125  1.00  0.00    -0.024 C 
HETATM    3  C9  UNL     1       2.583   5.678  -1.357  1.00  0.00     0.028 C 
HETATM    4  C10 UNL     1       3.123   5.786   0.072  1.00  0.00     0.012 C 
HETATM    5  C11 UNL     1       3.939   7.062  -0.043  1.00  0.00     0.014 C 
ENDROOT
BRANCH   5   6
HETATM    6  C12 UNL     1       3.086   8.279  -0.013  1.00  0.00     0.009 C 
BRANCH   6   7
HETATM    7  C13 UNL     1       2.418   8.503   1.329  1.00  0.00     0.001 C 
BRANCH   7   8
HETATM    8  C14 UNL     1       0.954   8.899   1.148  1.00  0.00     0.000 C 
BRANCH   8   9
HETATM    9  C15 UNL     1       0.268   9.023   2.475  1.00  0.00     0.000 C 
BRANCH   9  10
HETATM   10  C16 UNL     1      -0.011  10.432   2.879  1.00  0.00     0.000 C 
BRANCH  10  11
HETATM   11  C17 UNL     1       1.020  10.988   3.834  1.00  0.00     0.005 C 
BRANCH  11  12
HETATM   12  C18 UNL     1       1.613  12.285   3.327  1.00  0.00     0.038 C 
BRANCH  12  13
HETATM   13  C19 UNL     1       2.626  12.081   2.273  1.00  0.00    -0.058 A 
HETATM   14  C20 UNL     1       3.886  11.582   2.612  1.00  0.00     0.007 A 
HETATM   15  C21 UNL     1       4.845  11.388   1.640  1.00  0.00     0.001 A 
HETATM   16  C22 UNL     1       4.605  11.676   0.308  1.00  0.00     0.000 A 
HETATM   17  C23 UNL     1       3.364  12.170  -0.040  1.00  0.00     0.001 A 
HETATM   18  C24 UNL     1       2.419  12.358   0.934  1.00  0.00     0.007 A 
ENDBRANCH  12  13
ENDBRANCH  11  12
ENDBRANCH  10  11
ENDBRANCH   9  10
ENDBRANCH   8   9
ENDBRANCH   7   8
ENDBRANCH   6   7
ENDBRANCH   5   6
BRANCH   1  19
HETATM   19  C6  UNL     1       5.877   7.415  -1.906  1.00  0.00     0.038 C 
BRANCH  19  20
HETATM   20  C5  UNL     1       6.107   8.834  -1.579  1.00  0.00     0.031 C 
BRANCH  20  21
HETATM   21  C4  UNL     1       7.429   9.120  -0.983  1.00  0.00    -0.030 C 
BRANCH  21  22
HETATM   22  C3  UNL     1       7.897   8.524   0.266  1.00  0.00    -0.029 C 
BRANCH  22  23
HETATM   23  C2  UNL     1       7.007   8.328   1.429  1.00  0.00     0.054 C 
BRANCH  23  24
HETATM   24  C1  UNL     1       7.117   6.826   1.869  1.00  0.00     0.233 C 
BRANCH  24  25
HETATM   25  N1  UNL     1       8.189   6.225   1.113  1.00  0.00    -0.079 N 
ATOM     26  H13 UNL     1       8.660   6.888   0.497  1.00  0.00     0.274 HD
ATOM     27  H12 UNL     1       8.994   5.984   1.692  1.00  0.00     0.274 HD
ATOM     28  H11 UNL     1       7.805   5.424   0.614  1.00  0.00     0.274 HD
ENDBRANCH  24  25
ENDBRANCH  23  24
ENDBRANCH  22  23
ENDBRANCH  21  22
ENDBRANCH  20  21
ENDBRANCH  19  20
ENDBRANCH   1  19
TORSDOF 15
ENDMDL
