MODEL 1
REMARK VINA RESULT: -8.025277239      0.000      0.000
REMARK  4 active torsions:
REMARK  status: ('A' for Active; 'I' for Inactive)
REMARK    1  A    between atoms: N1_1  and  C1_4 
REMARK    2  A    between atoms: C2_7  and  C3_8 
REMARK       I    between atoms: C3_8  and  N3_10 
REMARK    3  A    between atoms: N3_10  and  N4_12 
REMARK    4  A    between atoms: N4_12  and  C4_14 
ROOT
HETATM    1  C3  UNL     1      17.460  68.140  33.960  1.00  0.00     0.287 C 
HETATM    2  O1  UNL     1      17.163  67.644  35.075  1.00  0.00    -0.264 OA
HETATM    3  N3  UNL     1      18.794  68.043  33.530  1.00  0.00    -0.250 N 
ATOM      4  H3  UNL     1      19.038  68.444  32.625  1.00  0.00     0.191 HD
ENDROOT
BRANCH   1   5
HETATM    5  C2  UNL     1      16.441  68.785  33.162  1.00  0.00     0.109 C 
HETATM    6  N2  UNL     1      16.874  69.322  31.976  1.00  0.00    -0.334 N 
HETATM    7  C1  UNL     1      16.277  70.326  31.298  1.00  0.00     0.169 C 
ATOM      8  H2  UNL     1      17.723  68.928  31.570  1.00  0.00     0.168 HD
HETATM    9  C7  UNL     1      15.089  71.009  31.588  1.00  0.00     0.291 C 
HETATM   10  N9  UNL     1      14.152  70.735  32.504  1.00  0.00    -0.287 N 
HETATM   11  O3  UNL     1      14.861  72.036  30.885  1.00  0.00    -0.264 OA
HETATM   12  C6  UNL     1      14.171  69.760  33.432  1.00  0.00     0.250 C 
ATOM     13  H9  UNL     1      13.328  71.335  32.498  1.00  0.00     0.172 HD
HETATM   14  C5  UNL     1      15.140  68.824  33.615  1.00  0.00     0.109 C 
HETATM   15  O2  UNL     1      13.165  69.757  34.184  1.00  0.00    -0.268 OA
BRANCH   7  16
HETATM   16  N1  UNL     1      16.873  70.735  30.218  1.00  0.00    -0.381 N 
ATOM     17  H12 UNL     1      17.744  71.240  30.389  1.00  0.00     0.157 HD
ATOM     18  H11 UNL     1      16.419  70.512  29.333  1.00  0.00     0.157 HD
ENDBRANCH   7  16
ENDBRANCH   1   5
BRANCH   3  19
HETATM   19  N4  UNL     1      19.803  67.430  34.271  1.00  0.00    -0.127 N 
ATOM     20  H4  UNL     1      20.420  66.742  33.840  1.00  0.00     0.206 HD
BRANCH  19  21
HETATM   21  C4  UNL     1      19.940  67.749  35.508  1.00  0.00     0.728 A 
HETATM   22  N5  UNL     1      19.638  67.015  36.579  1.00  0.00    -0.114 N 
HETATM   23  N6  UNL     1      19.925  67.698  37.683  1.00  0.00    -0.213 N 
ATOM     24  H5  UNL     1      19.247  66.073  36.556  1.00  0.00     0.207 HD
HETATM   25  N7  UNL     1      20.407  68.861  37.292  1.00  0.00    -0.213 N 
ATOM     26  H6  UNL     1      19.797  67.384  38.645  1.00  0.00     0.210 HD
HETATM   27  N8  UNL     1      20.425  68.914  35.961  1.00  0.00    -0.114 N 
ATOM     28  H7  UNL     1      20.719  69.606  37.914  1.00  0.00     0.210 HD
ATOM     29  H8  UNL     1      20.749  69.697  35.392  1.00  0.00     0.207 HD
ENDBRANCH  19  21
ENDBRANCH   3  19
TORSDOF 4
ENDMDL
MODEL 2
REMARK VINA RESULT: -7.900527477      1.181      1.501
REMARK  4 active torsions:
REMARK  status: ('A' for Active; 'I' for Inactive)
REMARK    1  A    between atoms: N1_1  and  C1_4 
REMARK    2  A    between atoms: C2_7  and  C3_8 
REMARK       I    between atoms: C3_8  and  N3_10 
REMARK    3  A    between atoms: N3_10  and  N4_12 
REMARK    4  A    between atoms: N4_12  and  C4_14 
ROOT
HETATM    1  C3  UNL     1      17.652  68.089  33.747  1.00  0.00     0.287 C 
HETATM    2  O1  UNL     1      17.152  67.658  34.816  1.00  0.00    -0.264 OA
HETATM    3  N3  UNL     1      19.018  67.857  33.519  1.00  0.00    -0.250 N 
ATOM      4  H3  UNL     1      19.428  68.205  32.652  1.00  0.00     0.191 HD
ENDROOT
BRANCH   1   5
HETATM    5  C2  UNL     1      16.824  68.799  32.797  1.00  0.00     0.109 C 
HETATM    6  N2  UNL     1      17.071  68.518  31.476  1.00  0.00    -0.334 N 
HETATM    7  C1  UNL     1      16.794  69.327  30.432  1.00  0.00     0.169 C 
ATOM      8  H2  UNL     1      17.504  67.619  31.265  1.00  0.00     0.168 HD
HETATM    9  C7  UNL     1      16.162  70.577  30.420  1.00  0.00     0.291 C 
HETATM   10  N9  UNL     1      15.519  71.214  31.407  1.00  0.00    -0.287 N 
HETATM   11  O3  UNL     1      16.201  71.202  29.321  1.00  0.00    -0.264 OA
HETATM   12  C6  UNL     1      15.391  70.826  32.689  1.00  0.00     0.250 C 
ATOM     13  H9  UNL     1      15.074  72.097  31.157  1.00  0.00     0.172 HD
HETATM   14  C5  UNL     1      15.868  69.682  33.248  1.00  0.00     0.109 C 
HETATM   15  O2  UNL     1      14.757  71.641  33.405  1.00  0.00    -0.268 OA
BRANCH   7  16
HETATM   16  N1  UNL     1      17.156  68.907  29.256  1.00  0.00    -0.381 N 
ATOM     17  H12 UNL     1      18.130  68.607  29.205  1.00  0.00     0.157 HD
ATOM     18  H11 UNL     1      16.444  68.919  28.527  1.00  0.00     0.157 HD
ENDBRANCH   7  16
ENDBRANCH   1   5
BRANCH   3  19
HETATM   19  N4  UNL     1      19.847  67.178  34.411  1.00  0.00    -0.127 N 
ATOM     20  H4  UNL     1      20.346  66.337  34.121  1.00  0.00     0.206 HD
BRANCH  19  21
HETATM   21  C4  UNL     1      19.970  67.633  35.606  1.00  0.00     0.728 A 
HETATM   22  N5  UNL     1      20.468  68.811  35.985  1.00  0.00    -0.114 N 
HETATM   23  N6  UNL     1      20.424  68.909  37.310  1.00  0.00    -0.213 N 
ATOM     24  H5  UNL     1      20.827  69.528  35.354  1.00  0.00     0.207 HD
HETATM   25  N7  UNL     1      19.895  67.786  37.753  1.00  0.00    -0.213 N 
ATOM     26  H6  UNL     1      20.737  69.699  37.873  1.00  0.00     0.210 HD
HETATM   27  N8  UNL     1      19.609  66.988  36.725  1.00  0.00    -0.114 N 
ATOM     28  H7  UNL     1      19.730  67.561  38.734  1.00  0.00     0.210 HD
ATOM     29  H8  UNL     1      19.193  66.058  36.779  1.00  0.00     0.207 HD
ENDBRANCH  19  21
ENDBRANCH   3  19
TORSDOF 4
ENDMDL
MODEL 3
REMARK VINA RESULT: -7.777360057      2.459      2.986
REMARK  4 active torsions:
REMARK  status: ('A' for Active; 'I' for Inactive)
REMARK    1  A    between atoms: N1_1  and  C1_4 
REMARK    2  A    between atoms: C2_7  and  C3_8 
REMARK       I    between atoms: C3_8  and  N3_10 
REMARK    3  A    between atoms: N3_10  and  N4_12 
REMARK    4  A    between atoms: N4_12  and  C4_14 
ROOT
HETATM    1  C3  UNL     1      19.245  67.547  32.147  1.00  0.00     0.287 C 
HETATM    2  O1  UNL     1      20.132  66.773  31.707  1.00  0.00    -0.264 OA
HETATM    3  N3  UNL     1      19.203  67.781  33.531  1.00  0.00    -0.250 N 
ATOM      4  H3  UNL     1      18.484  68.409  33.891  1.00  0.00     0.191 HD
ENDROOT
BRANCH   1   5
HETATM    5  C2  UNL     1      18.308  68.164  31.234  1.00  0.00     0.109 C 
HETATM    6  N2  UNL     1      17.835  69.394  31.618  1.00  0.00    -0.334 N 
HETATM    7  C1  UNL     1      16.672  69.952  31.222  1.00  0.00     0.169 C 
ATOM      8  H2  UNL     1      18.415  69.934  32.261  1.00  0.00     0.168 HD
HETATM    9  C7  UNL     1      15.718  69.468  30.318  1.00  0.00     0.291 C 
HETATM   10  N9  UNL     1      15.789  68.422  29.486  1.00  0.00    -0.287 N 
HETATM   11  O3  UNL     1      14.628  70.108  30.275  1.00  0.00    -0.264 OA
HETATM   12  C6  UNL     1      16.787  67.526  29.376  1.00  0.00     0.250 C 
ATOM     13  H9  UNL     1      14.993  68.288  28.862  1.00  0.00     0.172 HD
HETATM   14  C5  UNL     1      17.954  67.513  30.073  1.00  0.00     0.109 C 
HETATM   15  O2  UNL     1      16.569  66.625  28.527  1.00  0.00    -0.268 OA
BRANCH   7  16
HETATM   16  N1  UNL     1      16.371  71.105  31.742  1.00  0.00    -0.381 N 
ATOM     17  H12 UNL     1      16.939  71.356  32.552  1.00  0.00     0.157 HD
ATOM     18  H11 UNL     1      15.617  71.626  31.295  1.00  0.00     0.157 HD
ENDBRANCH   7  16
ENDBRANCH   1   5
BRANCH   3  19
HETATM   19  N4  UNL     1      20.088  67.205  34.441  1.00  0.00    -0.127 N 
ATOM     20  H4  UNL     1      20.720  66.458  34.150  1.00  0.00     0.206 HD
BRANCH  19  21
HETATM   21  C4  UNL     1      20.091  67.632  35.652  1.00  0.00     0.728 A 
HETATM   22  N5  UNL     1      19.707  66.980  36.750  1.00  0.00    -0.114 N 
HETATM   23  N6  UNL     1      19.862  67.765  37.812  1.00  0.00    -0.213 N 
ATOM     24  H5  UNL     1      19.349  66.025  36.772  1.00  0.00     0.207 HD
HETATM   25  N7  UNL     1      20.345  68.908  37.369  1.00  0.00    -0.213 N 
ATOM     26  H6  UNL     1      19.649  67.528  38.781  1.00  0.00     0.210 HD
HETATM   27  N8  UNL     1      20.494  68.849  36.046  1.00  0.00    -0.114 N 
ATOM     28  H7  UNL     1      20.572  69.715  37.950  1.00  0.00     0.210 HD
ATOM     29  H8  UNL     1      20.849  69.593  35.444  1.00  0.00     0.207 HD
ENDBRANCH  19  21
ENDBRANCH   3  19
TORSDOF 4
ENDMDL
MODEL 4
REMARK VINA RESULT: -7.765014846      2.227      6.714
REMARK  4 active torsions:
REMARK  status: ('A' for Active; 'I' for Inactive)
REMARK    1  A    between atoms: N1_1  and  C1_4 
REMARK    2  A    between atoms: C2_7  and  C3_8 
REMARK       I    between atoms: C3_8  and  N3_10 
REMARK    3  A    between atoms: N3_10  and  N4_12 
REMARK    4  A    between atoms: N4_12  and  C4_14 
ROOT
HETATM    1  C3  UNL     1      17.268  67.895  34.395  1.00  0.00     0.287 C 
HETATM    2  O1  UNL     1      16.070  68.159  34.665  1.00  0.00    -0.264 OA
HETATM    3  N3  UNL     1      17.639  67.828  33.042  1.00  0.00    -0.250 N 
ATOM      4  H3  UNL     1      18.612  67.614  32.820  1.00  0.00     0.191 HD
ENDROOT
BRANCH   1   5
HETATM    5  C2  UNL     1      18.217  67.670  35.464  1.00  0.00     0.109 C 
HETATM    6  N2  UNL     1      17.839  66.740  36.400  1.00  0.00    -0.334 N 
HETATM    7  C1  UNL     1      18.283  66.676  37.673  1.00  0.00     0.169 C 
ATOM      8  H2  UNL     1      17.162  66.036  36.108  1.00  0.00     0.168 HD
HETATM    9  C7  UNL     1      19.238  67.468  38.322  1.00  0.00     0.291 C 
HETATM   10  N9  UNL     1      20.080  68.375  37.809  1.00  0.00    -0.287 N 
HETATM   11  O3  UNL     1      19.325  67.311  39.573  1.00  0.00    -0.264 OA
HETATM   12  C6  UNL     1      20.154  68.799  36.534  1.00  0.00     0.250 C 
ATOM     13  H9  UNL     1      20.743  68.793  38.462  1.00  0.00     0.172 HD
HETATM   14  C5  UNL     1      19.402  68.371  35.486  1.00  0.00     0.109 C 
HETATM   15  O2  UNL     1      21.025  69.686  36.344  1.00  0.00    -0.268 OA
BRANCH   7  16
HETATM   16  N1  UNL     1      17.762  65.753  38.426  1.00  0.00    -0.381 N 
ATOM     17  H12 UNL     1      16.851  65.422  38.107  1.00  0.00     0.157 HD
ATOM     18  H11 UNL     1      18.308  65.462  39.237  1.00  0.00     0.157 HD
ENDBRANCH   7  16
ENDBRANCH   1   5
BRANCH   3  19
HETATM   19  N4  UNL     1      16.754  68.038  31.986  1.00  0.00    -0.127 N 
ATOM     20  H4  UNL     1      16.179  67.274  31.629  1.00  0.00     0.206 HD
BRANCH  19  21
HETATM   21  C4  UNL     1      16.677  69.212  31.471  1.00  0.00     0.728 A 
HETATM   22  N5  UNL     1      16.837  69.556  30.192  1.00  0.00    -0.114 N 
HETATM   23  N6  UNL     1      16.679  70.869  30.060  1.00  0.00    -0.213 N 
ATOM     24  H5  UNL     1      17.048  68.909  29.431  1.00  0.00     0.207 HD
HETATM   25  N7  UNL     1      16.420  71.340  31.263  1.00  0.00    -0.213 N 
ATOM     26  H6  UNL     1      16.746  71.407  29.196  1.00  0.00     0.210 HD
HETATM   27  N8  UNL     1      16.414  70.341  32.145  1.00  0.00    -0.114 N 
ATOM     28  H7  UNL     1      16.250  72.320  31.486  1.00  0.00     0.210 HD
ATOM     29  H8  UNL     1      16.241  70.420  33.147  1.00  0.00     0.207 HD
ENDBRANCH  19  21
ENDBRANCH   3  19
TORSDOF 4
ENDMDL
MODEL 5
REMARK VINA RESULT: -7.681788944      3.028      6.022
REMARK  4 active torsions:
REMARK  status: ('A' for Active; 'I' for Inactive)
REMARK    1  A    between atoms: N1_1  and  C1_4 
REMARK    2  A    between atoms: C2_7  and  C3_8 
REMARK       I    between atoms: C3_8  and  N3_10 
REMARK    3  A    between atoms: N3_10  and  N4_12 
REMARK    4  A    between atoms: N4_12  and  C4_14 
ROOT
HETATM    1  C3  UNL     1      17.804  67.874  33.395  1.00  0.00     0.287 C 
HETATM    2  O1  UNL     1      16.667  67.753  32.875  1.00  0.00    -0.264 OA
HETATM    3  N3  UNL     1      18.919  67.914  32.541  1.00  0.00    -0.250 N 
ATOM      4  H3  UNL     1      19.843  68.013  32.961  1.00  0.00     0.191 HD
ENDROOT
BRANCH   1   5
HETATM    5  C2  UNL     1      17.934  67.967  34.833  1.00  0.00     0.109 C 
HETATM    6  N2  UNL     1      19.067  68.597  35.282  1.00  0.00    -0.334 N 
HETATM    7  C1  UNL     1      19.642  68.423  36.491  1.00  0.00     0.169 C 
ATOM      8  H2  UNL     1      19.515  69.256  34.646  1.00  0.00     0.168 HD
HETATM    9  C7  UNL     1      19.220  67.634  37.569  1.00  0.00     0.291 C 
HETATM   10  N9  UNL     1      18.061  66.988  37.748  1.00  0.00    -0.287 N 
HETATM   11  O3  UNL     1      20.050  67.507  38.515  1.00  0.00    -0.264 OA
HETATM   12  C6  UNL     1      17.036  66.884  36.882  1.00  0.00     0.250 C 
ATOM     13  H9  UNL     1      17.940  66.521  38.646  1.00  0.00     0.172 HD
HETATM   14  C5  UNL     1      16.952  67.441  35.644  1.00  0.00     0.109 C 
HETATM   15  O2  UNL     1      16.081  66.187  37.307  1.00  0.00    -0.268 OA
BRANCH   7  16
HETATM   16  N1  UNL     1      20.747  69.071  36.710  1.00  0.00    -0.381 N 
ATOM     17  H12 UNL     1      21.440  68.543  37.242  1.00  0.00     0.157 HD
ATOM     18  H11 UNL     1      20.805  70.017  36.334  1.00  0.00     0.157 HD
ENDBRANCH   7  16
ENDBRANCH   1   5
BRANCH   3  19
HETATM   19  N4  UNL     1      18.833  67.827  31.153  1.00  0.00    -0.127 N 
ATOM     20  H4  UNL     1      18.190  68.424  30.633  1.00  0.00     0.206 HD
BRANCH  19  21
HETATM   21  C4  UNL     1      19.581  66.980  30.542  1.00  0.00     0.728 A 
HETATM   22  N5  UNL     1      20.729  66.449  30.965  1.00  0.00    -0.114 N 
HETATM   23  N6  UNL     1      21.200  65.613  30.044  1.00  0.00    -0.213 N 
ATOM     24  H5  UNL     1      21.177  66.653  31.859  1.00  0.00     0.207 HD
HETATM   25  N7  UNL     1      20.339  65.627  29.047  1.00  0.00    -0.213 N 
ATOM     26  H6  UNL     1      22.060  65.068  30.099  1.00  0.00     0.210 HD
HETATM   27  N8  UNL     1      19.337  66.459  29.330  1.00  0.00    -0.114 N 
ATOM     28  H7  UNL     1      20.426  65.084  28.189  1.00  0.00     0.210 HD
ATOM     29  H8  UNL     1      18.533  66.662  28.735  1.00  0.00     0.207 HD
ENDBRANCH  19  21
ENDBRANCH   3  19
TORSDOF 4
ENDMDL
