MODEL 1
REMARK VINA RESULT: -8.027756582      0.000      0.000
REMARK  3 active torsions:
REMARK  status: ('A' for Active; 'I' for Inactive)
REMARK       I    between atoms: C2_2  and  N1_4 
REMARK    1  A    between atoms: N1_4  and  C3_6 
REMARK    2  A    between atoms: C4_11  and  C5_12 
REMARK       I    between atoms: C5_12  and  N4_14 
REMARK    3  A    between atoms: N4_14  and  N5_16 
ROOT
HETATM    1  C3  UNL     1     -64.390  19.197  54.391  1.00  0.00     0.702 A 
HETATM    2  N2  UNL     1     -64.598  19.971  53.318  1.00  0.00    -0.131 N 
ATOM      3  H2  UNL     1     -64.435  20.976  53.376  1.00  0.00     0.205 HD
HETATM    4  N3  UNL     1     -65.013  19.435  52.185  1.00  0.00    -0.277 N 
ATOM      5  H3  UNL     1     -65.163  20.050  51.386  1.00  0.00     0.188 HD
HETATM    6  C4  UNL     1     -65.254  18.098  52.028  1.00  0.00     0.187 A 
HETATM    7  C7  UNL     1     -65.038  17.327  53.126  1.00  0.00     0.293 A 
HETATM    8  O3  UNL     1     -65.223  16.106  53.095  1.00  0.00    -0.265 OA
HETATM    9  N8  UNL     1     -64.604  17.885  54.309  1.00  0.00    -0.152 N 
ATOM     10  H8  UNL     1     -64.448  17.292  55.124  1.00  0.00     0.187 HD
ENDROOT
BRANCH   6  11
HETATM   11  C5  UNL     1     -65.704  17.656  50.733  1.00  0.00     0.293 C 
HETATM   12  O2  UNL     1     -65.003  17.965  49.695  1.00  0.00    -0.264 OA
HETATM   13  N4  UNL     1     -66.858  16.905  50.480  1.00  0.00    -0.262 N 
ATOM     14  H4  UNL     1     -67.461  16.624  51.254  1.00  0.00     0.190 HD
BRANCH  13  15
HETATM   15  N5  UNL     1     -67.195  16.531  49.154  1.00  0.00    -0.273 N 
HETATM   16  C6  UNL     1     -67.791  15.409  48.987  1.00  0.00     0.215 C 
HETATM   17  N6  UNL     1     -68.093  14.588  50.092  1.00  0.00    -0.065 NA
HETATM   18  N7  UNL     1     -68.142  15.010  47.657  1.00  0.00    -0.065 NA
ATOM     19  H5  UNL     1     -66.970  17.133  48.361  1.00  0.00     0.189 HD
ENDBRANCH  13  15
ENDBRANCH   6  11
BRANCH   1  20
HETATM   20  N1  UNL     1     -63.987  19.727  55.481  1.00  0.00    -0.159 N 
HETATM   21  C2  UNL     1     -64.042  19.044  56.728  1.00  0.00     0.232 C 
HETATM   22  C1  UNL     1     -63.088  17.969  57.101  1.00  0.00     0.118 C 
HETATM   23  O1  UNL     1     -64.932  19.337  57.585  1.00  0.00    -0.273 OA
ATOM     24  H1  UNL     1     -63.613  20.676  55.457  1.00  0.00     0.187 HD
ENDBRANCH   1  20
TORSDOF 3
ENDMDL
MODEL 2
REMARK VINA RESULT: -7.771182788      1.272      1.694
REMARK  3 active torsions:
REMARK  status: ('A' for Active; 'I' for Inactive)
REMARK       I    between atoms: C2_2  and  N1_4 
REMARK    1  A    between atoms: N1_4  and  C3_6 
REMARK    2  A    between atoms: C4_11  and  C5_12 
REMARK       I    between atoms: C5_12  and  N4_14 
REMARK    3  A    between atoms: N4_14  and  N5_16 
ROOT
HETATM    1  C3  UNL     1     -64.601  19.376  53.647  1.00  0.00     0.702 A 
HETATM    2  N2  UNL     1     -65.330  18.255  53.712  1.00  0.00    -0.131 N 
ATOM      3  H2  UNL     1     -65.584  17.864  54.620  1.00  0.00     0.205 HD
HETATM    4  N3  UNL     1     -65.722  17.655  52.604  1.00  0.00    -0.277 N 
ATOM      5  H3  UNL     1     -66.276  16.803  52.686  1.00  0.00     0.188 HD
HETATM    6  C4  UNL     1     -65.423  18.115  51.352  1.00  0.00     0.187 A 
HETATM    7  C7  UNL     1     -64.683  19.253  51.303  1.00  0.00     0.293 A 
HETATM    8  O3  UNL     1     -64.356  19.757  50.224  1.00  0.00    -0.265 OA
HETATM    9  N8  UNL     1     -64.273  19.881  52.459  1.00  0.00    -0.152 N 
ATOM     10  H8  UNL     1     -63.716  20.735  52.405  1.00  0.00     0.187 HD
ENDROOT
BRANCH   6  11
HETATM   11  C5  UNL     1     -65.919  17.355  50.233  1.00  0.00     0.293 C 
HETATM   12  O2  UNL     1     -65.098  17.032  49.293  1.00  0.00    -0.264 OA
HETATM   13  N4  UNL     1     -67.238  16.919  50.059  1.00  0.00    -0.262 N 
ATOM     14  H4  UNL     1     -67.942  17.138  50.765  1.00  0.00     0.190 HD
BRANCH  13  15
HETATM   15  N5  UNL     1     -67.603  16.175  48.908  1.00  0.00    -0.273 N 
HETATM   16  C6  UNL     1     -68.022  14.977  49.084  1.00  0.00     0.215 C 
HETATM   17  N6  UNL     1     -68.110  14.434  50.381  1.00  0.00    -0.065 NA
HETATM   18  N7  UNL     1     -68.396  14.206  47.937  1.00  0.00    -0.065 NA
ATOM     19  H5  UNL     1     -67.534  16.579  47.974  1.00  0.00     0.189 HD
ENDBRANCH  13  15
ENDBRANCH   6  11
BRANCH   1  20
HETATM   20  N1  UNL     1     -64.228  19.949  54.727  1.00  0.00    -0.159 N 
HETATM   21  C2  UNL     1     -64.053  19.238  55.947  1.00  0.00     0.232 C 
HETATM   22  C1  UNL     1     -62.882  18.364  56.210  1.00  0.00     0.118 C 
HETATM   23  O1  UNL     1     -64.915  19.328  56.875  1.00  0.00    -0.273 OA
ATOM     24  H1  UNL     1     -64.049  20.953  54.714  1.00  0.00     0.187 HD
ENDBRANCH   1  20
TORSDOF 3
ENDMDL
MODEL 3
REMARK VINA RESULT: -7.717596045      3.232      7.114
REMARK  3 active torsions:
REMARK  status: ('A' for Active; 'I' for Inactive)
REMARK       I    between atoms: C2_2  and  N1_4 
REMARK    1  A    between atoms: N1_4  and  C3_6 
REMARK    2  A    between atoms: C4_11  and  C5_12 
REMARK       I    between atoms: C5_12  and  N4_14 
REMARK    3  A    between atoms: N4_14  and  N5_16 
ROOT
HETATM    1  C3  UNL     1     -64.657  19.227  52.967  1.00  0.00     0.702 A 
HETATM    2  N2  UNL     1     -65.046  17.982  53.272  1.00  0.00    -0.131 N 
ATOM      3  H2  UNL     1     -65.653  17.468  52.633  1.00  0.00     0.205 HD
HETATM    4  N3  UNL     1     -64.647  17.420  54.397  1.00  0.00    -0.277 N 
ATOM      5  H3  UNL     1     -64.960  16.471  54.602  1.00  0.00     0.188 HD
HETATM    6  C4  UNL     1     -63.835  18.043  55.304  1.00  0.00     0.187 A 
HETATM    7  C7  UNL     1     -63.449  19.305  54.979  1.00  0.00     0.293 A 
HETATM    8  O3  UNL     1     -62.715  19.960  55.726  1.00  0.00    -0.265 OA
HETATM    9  N8  UNL     1     -63.865  19.893  53.805  1.00  0.00    -0.152 N 
ATOM     10  H8  UNL     1     -63.567  20.842  53.577  1.00  0.00     0.187 HD
ENDROOT
BRANCH   6  11
HETATM   11  C5  UNL     1     -63.480  17.305  56.489  1.00  0.00     0.293 C 
HETATM   12  O2  UNL     1     -64.380  16.577  57.057  1.00  0.00    -0.264 OA
HETATM   13  N4  UNL     1     -62.222  17.300  57.104  1.00  0.00    -0.262 N 
ATOM     14  H4  UNL     1     -61.462  17.853  56.709  1.00  0.00     0.190 HD
BRANCH  13  15
HETATM   15  N5  UNL     1     -61.999  16.529  58.274  1.00  0.00    -0.273 N 
HETATM   16  C6  UNL     1     -61.399  15.406  58.138  1.00  0.00     0.215 C 
HETATM   17  N6  UNL     1     -60.984  14.965  56.865  1.00  0.00    -0.065 NA
HETATM   18  N7  UNL     1     -61.161  14.609  59.304  1.00  0.00    -0.065 NA
ATOM     19  H5  UNL     1     -62.304  16.858  59.190  1.00  0.00     0.189 HD
ENDBRANCH  13  15
ENDBRANCH   6  11
BRANCH   1  20
HETATM   20  N1  UNL     1     -65.050  19.760  51.874  1.00  0.00    -0.159 N 
HETATM   21  C2  UNL     1     -64.356  19.583  50.645  1.00  0.00     0.232 C 
HETATM   22  C1  UNL     1     -64.423  18.328  49.855  1.00  0.00     0.118 C 
HETATM   23  O1  UNL     1     -63.636  20.515  50.171  1.00  0.00    -0.273 OA
ATOM     24  H1  UNL     1     -65.894  20.334  51.884  1.00  0.00     0.187 HD
ENDBRANCH   1  20
TORSDOF 3
ENDMDL
MODEL 4
REMARK VINA RESULT: -7.533032101      3.089      7.176
REMARK  3 active torsions:
REMARK  status: ('A' for Active; 'I' for Inactive)
REMARK       I    between atoms: C2_2  and  N1_4 
REMARK    1  A    between atoms: N1_4  and  C3_6 
REMARK    2  A    between atoms: C4_11  and  C5_12 
REMARK       I    between atoms: C5_12  and  N4_14 
REMARK    3  A    between atoms: N4_14  and  N5_16 
ROOT
HETATM    1  C3  UNL     1     -64.632  19.322  53.132  1.00  0.00     0.702 A 
HETATM    2  N2  UNL     1     -64.042  20.122  54.029  1.00  0.00    -0.131 N 
ATOM      3  H2  UNL     1     -63.951  21.120  53.840  1.00  0.00     0.205 HD
HETATM    4  N3  UNL     1     -63.577  19.622  55.159  1.00  0.00    -0.277 N 
ATOM      5  H3  UNL     1     -63.133  20.256  55.822  1.00  0.00     0.188 HD
HETATM    6  C4  UNL     1     -63.659  18.297  55.485  1.00  0.00     0.187 A 
HETATM    7  C7  UNL     1     -64.260  17.498  54.564  1.00  0.00     0.293 A 
HETATM    8  O3  UNL     1     -64.389  16.285  54.757  1.00  0.00    -0.265 OA
HETATM    9  N8  UNL     1     -64.746  18.020  53.385  1.00  0.00    -0.152 N 
ATOM     10  H8  UNL     1     -65.194  17.406  52.704  1.00  0.00     0.187 HD
ENDROOT
BRANCH   6  11
HETATM   11  C5  UNL     1     -63.107  17.894  56.754  1.00  0.00     0.293 C 
HETATM   12  O2  UNL     1     -63.516  18.488  57.823  1.00  0.00    -0.264 OA
HETATM   13  N4  UNL     1     -62.146  16.895  56.948  1.00  0.00    -0.262 N 
ATOM     14  H4  UNL     1     -61.777  16.382  56.146  1.00  0.00     0.190 HD
BRANCH  13  15
HETATM   15  N5  UNL     1     -61.680  16.590  58.252  1.00  0.00    -0.273 N 
HETATM   16  C6  UNL     1     -60.976  15.531  58.399  1.00  0.00     0.215 C 
HETATM   17  N6  UNL     1     -60.685  14.707  57.293  1.00  0.00    -0.065 NA
HETATM   18  N7  UNL     1     -60.494  15.202  59.707  1.00  0.00    -0.065 NA
ATOM     19  H5  UNL     1     -61.898  17.194  59.045  1.00  0.00     0.189 HD
ENDBRANCH  13  15
ENDBRANCH   6  11
BRANCH   1  20
HETATM   20  N1  UNL     1     -65.078  19.819  52.042  1.00  0.00    -0.159 N 
HETATM   21  C2  UNL     1     -64.455  19.585  50.785  1.00  0.00     0.232 C 
HETATM   22  C1  UNL     1     -64.580  18.302  50.049  1.00  0.00     0.118 C 
HETATM   23  O1  UNL     1     -63.752  20.489  50.237  1.00  0.00    -0.273 OA
ATOM     24  H1  UNL     1     -65.913  20.404  52.076  1.00  0.00     0.187 HD
ENDBRANCH   1  20
TORSDOF 3
ENDMDL
MODEL 5
REMARK VINA RESULT: -7.217838405      3.466      7.760
REMARK  3 active torsions:
REMARK  status: ('A' for Active; 'I' for Inactive)
REMARK       I    between atoms: C2_2  and  N1_4 
REMARK    1  A    between atoms: N1_4  and  C3_6 
REMARK    2  A    between atoms: C4_11  and  C5_12 
REMARK       I    between atoms: C5_12  and  N4_14 
REMARK    3  A    between atoms: N4_14  and  N5_16 
ROOT
HETATM    1  C3  UNL     1     -64.721  17.886  53.857  1.00  0.00     0.702 A 
HETATM    2  N2  UNL     1     -64.605  16.707  54.481  1.00  0.00    -0.131 N 
ATOM      3  H2  UNL     1     -65.077  15.884  54.105  1.00  0.00     0.205 HD
HETATM    4  N3  UNL     1     -63.882  16.607  55.581  1.00  0.00    -0.277 N 
ATOM      5  H3  UNL     1     -63.814  15.696  56.032  1.00  0.00     0.188 HD
HETATM    6  C4  UNL     1     -63.221  17.662  56.146  1.00  0.00     0.187 A 
HETATM    7  C7  UNL     1     -63.349  18.851  55.501  1.00  0.00     0.293 A 
HETATM    8  O3  UNL     1     -62.793  19.870  55.924  1.00  0.00    -0.265 OA
HETATM    9  N8  UNL     1     -64.103  18.957  54.353  1.00  0.00    -0.152 N 
ATOM     10  H8  UNL     1     -64.189  19.858  53.881  1.00  0.00     0.187 HD
ENDROOT
BRANCH   6  11
HETATM   11  C5  UNL     1     -62.471  17.403  57.348  1.00  0.00     0.293 C 
HETATM   12  O2  UNL     1     -62.848  17.964  58.445  1.00  0.00    -0.264 OA
HETATM   13  N4  UNL     1     -61.341  16.582  57.446  1.00  0.00    -0.262 N 
ATOM     14  H4  UNL     1     -60.986  16.105  56.617  1.00  0.00     0.190 HD
BRANCH  13  15
HETATM   15  N5  UNL     1     -60.687  16.408  58.693  1.00  0.00    -0.273 N 
HETATM   16  C6  UNL     1     -60.228  15.243  58.964  1.00  0.00     0.215 C 
HETATM   17  N6  UNL     1     -60.377  14.184  58.047  1.00  0.00    -0.065 NA
HETATM   18  N7  UNL     1     -59.563  15.042  60.217  1.00  0.00    -0.065 NA
ATOM     19  H5  UNL     1     -60.585  17.182  59.349  1.00  0.00     0.189 HD
ENDBRANCH  13  15
ENDBRANCH   6  11
BRANCH   1  20
HETATM   20  N1  UNL     1     -65.423  17.970  52.793  1.00  0.00    -0.159 N 
HETATM   21  C2  UNL     1     -64.840  18.063  51.498  1.00  0.00     0.232 C 
HETATM   22  C1  UNL     1     -64.236  16.899  50.801  1.00  0.00     0.118 C 
HETATM   23  O1  UNL     1     -64.814  19.171  50.881  1.00  0.00    -0.273 OA
ATOM     24  H1  UNL     1     -66.440  17.971  52.875  1.00  0.00     0.187 HD
ENDBRANCH   1  20
TORSDOF 3
ENDMDL
