MODEL 1
REMARK VINA RESULT: -6.697645813      0.000      0.000
REMARK  3 active torsions:
REMARK  status: ('A' for Active; 'I' for Inactive)
REMARK       I    between atoms: C1_2  and  N2_4 
REMARK    1  A    between atoms: N2_4  and  N3_6 
REMARK       I    between atoms: N3_6  and  C2_8 
REMARK    2  A    between atoms: C2_8  and  C3_10 
REMARK    3  A    between atoms: C3_10  and  N4_12 
ROOT
HETATM    1  C3  UNL     1     -65.015  18.670  55.218  1.00  0.00     0.264 C 
HETATM    2  S1  UNL     1     -65.351  19.616  56.705  1.00  0.00    -0.059 SA
ENDROOT
BRANCH   1   3
HETATM    3  C2  UNL     1     -64.292  19.418  54.177  1.00  0.00     0.270 C 
HETATM    4  N3  UNL     1     -64.851  19.542  52.882  1.00  0.00    -0.264 N 
ATOM      5  H3  UNL     1     -65.753  19.109  52.685  1.00  0.00     0.190 HD
HETATM    6  O2  UNL     1     -63.184  19.955  54.406  1.00  0.00    -0.268 OA
BRANCH   4   7
HETATM    7  N2  UNL     1     -64.192  20.248  51.864  1.00  0.00    -0.251 N 
HETATM    8  C1  UNL     1     -64.122  19.699  50.572  1.00  0.00     0.347 C 
HETATM    9  N1  UNL     1     -63.446  20.438  49.551  1.00  0.00    -0.038 NA
HETATM   10  O1  UNL     1     -64.621  18.591  50.260  1.00  0.00    -0.249 OA
ATOM     11  H2  UNL     1     -63.767  21.154  52.060  1.00  0.00     0.191 HD
ENDBRANCH   4   7
ENDBRANCH   1   3
BRANCH   1  12
HETATM   12  N4  UNL     1     -64.212  17.503  55.579  1.00  0.00    -0.237 N 
HETATM   13  C4  UNL     1     -63.332  17.361  56.666  1.00  0.00     0.334 A 
HETATM   14  O3  UNL     1     -63.055  18.206  57.549  1.00  0.00    -0.246 OA
HETATM   15  N5  UNL     1     -62.771  16.067  56.630  1.00  0.00    -0.271 N 
HETATM   16  C5  UNL     1     -63.311  15.395  55.501  1.00  0.00     0.318 A 
ATOM     17  H5  UNL     1     -62.098  15.683  57.293  1.00  0.00     0.174 HD
HETATM   18  O4  UNL     1     -63.072  14.212  55.102  1.00  0.00    -0.262 OA
HETATM   19  C6  UNL     1     -64.228  16.303  54.831  1.00  0.00     0.321 A 
HETATM   20  O5  UNL     1     -64.913  16.072  53.776  1.00  0.00    -0.262 OA
ENDBRANCH   1  12
TORSDOF 3
ENDMDL
MODEL 2
REMARK VINA RESULT: -6.436476260      0.851      1.992
REMARK  3 active torsions:
REMARK  status: ('A' for Active; 'I' for Inactive)
REMARK       I    between atoms: C1_2  and  N2_4 
REMARK    1  A    between atoms: N2_4  and  N3_6 
REMARK       I    between atoms: N3_6  and  C2_8 
REMARK    2  A    between atoms: C2_8  and  C3_10 
REMARK    3  A    between atoms: C3_10  and  N4_12 
ROOT
HETATM    1  C3  UNL     1     -65.018  18.672  55.193  1.00  0.00     0.264 C 
HETATM    2  S1  UNL     1     -65.266  19.581  56.719  1.00  0.00    -0.059 SA
ENDROOT
BRANCH   1   3
HETATM    3  C2  UNL     1     -64.301  19.425  54.151  1.00  0.00     0.270 C 
HETATM    4  N3  UNL     1     -64.851  19.529  52.851  1.00  0.00    -0.264 N 
ATOM      5  H3  UNL     1     -65.743  19.078  52.650  1.00  0.00     0.190 HD
HETATM    6  O2  UNL     1     -63.204  19.984  54.384  1.00  0.00    -0.268 OA
BRANCH   4   7
HETATM    7  N2  UNL     1     -64.197  20.239  51.833  1.00  0.00    -0.251 N 
HETATM    8  C1  UNL     1     -64.110  19.684  50.545  1.00  0.00     0.347 C 
HETATM    9  N1  UNL     1     -63.439  20.427  49.524  1.00  0.00    -0.038 NA
HETATM   10  O1  UNL     1     -64.590  18.567  50.237  1.00  0.00    -0.249 OA
ATOM     11  H2  UNL     1     -63.788  21.153  52.026  1.00  0.00     0.191 HD
ENDBRANCH   4   7
ENDBRANCH   1   3
BRANCH   1  12
HETATM   12  N4  UNL     1     -64.251  17.463  55.489  1.00  0.00    -0.237 N 
HETATM   13  C4  UNL     1     -64.238  16.251  54.777  1.00  0.00     0.334 A 
HETATM   14  O3  UNL     1     -64.883  15.958  53.742  1.00  0.00    -0.246 OA
HETATM   15  N5  UNL     1     -63.353  15.358  55.417  1.00  0.00    -0.271 N 
HETATM   16  C5  UNL     1     -62.808  16.026  56.545  1.00  0.00     0.318 A 
ATOM     17  H5  UNL     1     -63.144  14.404  55.123  1.00  0.00     0.174 HD
HETATM   18  O4  UNL     1     -61.971  15.583  57.392  1.00  0.00    -0.262 OA
HETATM   19  C6  UNL     1     -63.375  17.365  56.595  1.00  0.00     0.321 A 
HETATM   20  O5  UNL     1     -63.136  18.274  57.460  1.00  0.00    -0.262 OA
ENDBRANCH   1  12
TORSDOF 3
ENDMDL
MODEL 3
REMARK VINA RESULT: -6.268575339     11.725     12.603
REMARK  3 active torsions:
REMARK  status: ('A' for Active; 'I' for Inactive)
REMARK       I    between atoms: C1_2  and  N2_4 
REMARK    1  A    between atoms: N2_4  and  N3_6 
REMARK       I    between atoms: N3_6  and  C2_8 
REMARK    2  A    between atoms: C2_8  and  C3_10 
REMARK    3  A    between atoms: C3_10  and  N4_12 
ROOT
HETATM    1  C3  UNL     1     -55.998  14.641  62.397  1.00  0.00     0.264 C 
HETATM    2  S1  UNL     1     -56.937  14.991  60.909  1.00  0.00    -0.059 SA
ENDROOT
BRANCH   1   3
HETATM    3  C2  UNL     1     -55.554  15.839  63.126  1.00  0.00     0.270 C 
HETATM    4  N3  UNL     1     -55.950  17.123  62.681  1.00  0.00    -0.264 N 
ATOM      5  H3  UNL     1     -56.543  17.204  61.855  1.00  0.00     0.190 HD
HETATM    6  O2  UNL     1     -54.826  15.755  64.142  1.00  0.00    -0.268 OA
BRANCH   4   7
HETATM    7  N2  UNL     1     -55.547  18.288  63.352  1.00  0.00    -0.251 N 
HETATM    8  C1  UNL     1     -55.394  19.485  62.632  1.00  0.00     0.347 C 
HETATM    9  N1  UNL     1     -54.983  20.660  63.338  1.00  0.00    -0.038 NA
HETATM   10  O1  UNL     1     -55.598  19.585  61.399  1.00  0.00    -0.249 OA
ATOM     11  H2  UNL     1     -55.367  18.266  64.355  1.00  0.00     0.191 HD
ENDBRANCH   4   7
ENDBRANCH   1   3
BRANCH   1  12
HETATM   12  N4  UNL     1     -56.830  13.844  63.297  1.00  0.00    -0.237 N 
HETATM   13  C4  UNL     1     -58.146  14.105  63.717  1.00  0.00     0.334 A 
HETATM   14  O3  UNL     1     -58.876  15.076  63.407  1.00  0.00    -0.246 OA
HETATM   15  N5  UNL     1     -58.559  13.071  64.584  1.00  0.00    -0.271 N 
HETATM   16  C5  UNL     1     -57.482  12.153  64.703  1.00  0.00     0.318 A 
ATOM     17  H5  UNL     1     -59.467  12.997  65.042  1.00  0.00     0.174 HD
HETATM   18  O4  UNL     1     -57.435  11.083  65.387  1.00  0.00    -0.262 OA
HETATM   19  C6  UNL     1     -56.381  12.639  63.887  1.00  0.00     0.321 A 
HETATM   20  O5  UNL     1     -55.236  12.095  63.730  1.00  0.00    -0.262 OA
ENDBRANCH   1  12
TORSDOF 3
ENDMDL
MODEL 4
REMARK VINA RESULT: -6.267434234     10.821     11.896
REMARK  3 active torsions:
REMARK  status: ('A' for Active; 'I' for Inactive)
REMARK       I    between atoms: C1_2  and  N2_4 
REMARK    1  A    between atoms: N2_4  and  N3_6 
REMARK       I    between atoms: N3_6  and  C2_8 
REMARK    2  A    between atoms: C2_8  and  C3_10 
REMARK    3  A    between atoms: C3_10  and  N4_12 
ROOT
HETATM    1  C3  UNL     1     -56.591  14.782  62.308  1.00  0.00     0.264 C 
HETATM    2  S1  UNL     1     -56.816  13.434  63.469  1.00  0.00    -0.059 SA
ENDROOT
BRANCH   1   3
HETATM    3  C2  UNL     1     -55.885  15.948  62.864  1.00  0.00     0.270 C 
HETATM    4  N3  UNL     1     -55.944  17.193  62.194  1.00  0.00    -0.264 N 
ATOM      5  H3  UNL     1     -56.478  17.269  61.328  1.00  0.00     0.190 HD
HETATM    6  O2  UNL     1     -55.227  15.869  63.926  1.00  0.00    -0.268 OA
BRANCH   4   7
HETATM    7  N2  UNL     1     -55.286  18.326  62.695  1.00  0.00    -0.251 N 
HETATM    8  C1  UNL     1     -55.244  19.502  61.926  1.00  0.00     0.347 C 
HETATM    9  N1  UNL     1     -54.568  20.644  62.458  1.00  0.00    -0.038 NA
HETATM   10  O1  UNL     1     -55.771  19.609  60.792  1.00  0.00    -0.249 OA
ATOM     11  H2  UNL     1     -54.840  18.298  63.611  1.00  0.00     0.191 HD
ENDBRANCH   4   7
ENDBRANCH   1   3
BRANCH   1  12
HETATM   12  N4  UNL     1     -55.824  14.291  61.163  1.00  0.00    -0.237 N 
HETATM   13  C4  UNL     1     -54.508  13.797  61.152  1.00  0.00     0.334 A 
HETATM   14  O3  UNL     1     -53.722  13.678  62.121  1.00  0.00    -0.246 OA
HETATM   15  N5  UNL     1     -54.171  13.433  59.831  1.00  0.00    -0.271 N 
HETATM   16  C5  UNL     1     -55.297  13.705  59.009  1.00  0.00     0.318 A 
ATOM     17  H5  UNL     1     -53.281  13.045  59.523  1.00  0.00     0.174 HD
HETATM   18  O4  UNL     1     -55.417  13.524  57.757  1.00  0.00    -0.262 OA
HETATM   19  C6  UNL     1     -56.351  14.250  59.851  1.00  0.00     0.321 A 
HETATM   20  O5  UNL     1     -57.518  14.621  59.487  1.00  0.00    -0.262 OA
ENDBRANCH   1  12
TORSDOF 3
ENDMDL
MODEL 5
REMARK VINA RESULT: -6.177712655      3.557      6.197
REMARK  3 active torsions:
REMARK  status: ('A' for Active; 'I' for Inactive)
REMARK       I    between atoms: C1_2  and  N2_4 
REMARK    1  A    between atoms: N2_4  and  N3_6 
REMARK       I    between atoms: N3_6  and  C2_8 
REMARK    2  A    between atoms: C2_8  and  C3_10 
REMARK    3  A    between atoms: C3_10  and  N4_12 
ROOT
HETATM    1  C3  UNL     1     -65.169  15.220  52.556  1.00  0.00     0.264 C 
HETATM    2  S1  UNL     1     -63.753  14.182  52.187  1.00  0.00    -0.059 SA
ENDROOT
BRANCH   1   3
HETATM    3  C2  UNL     1     -64.865  16.370  53.423  1.00  0.00     0.270 C 
HETATM    4  N3  UNL     1     -64.059  16.192  54.573  1.00  0.00    -0.264 N 
ATOM      5  H3  UNL     1     -63.696  15.263  54.789  1.00  0.00     0.190 HD
HETATM    6  O2  UNL     1     -65.304  17.516  53.170  1.00  0.00    -0.268 OA
BRANCH   4   7
HETATM    7  N2  UNL     1     -63.747  17.264  55.422  1.00  0.00    -0.251 N 
HETATM    8  C1  UNL     1     -63.545  17.028  56.793  1.00  0.00     0.347 C 
HETATM    9  N1  UNL     1     -63.227  18.137  57.639  1.00  0.00    -0.038 NA
HETATM   10  O1  UNL     1     -63.627  15.893  57.322  1.00  0.00    -0.249 OA
ATOM     11  H2  UNL     1     -63.667  18.209  55.048  1.00  0.00     0.191 HD
ENDBRANCH   4   7
ENDBRANCH   1   3
BRANCH   1  12
HETATM   12  N4  UNL     1     -65.713  15.732  51.298  1.00  0.00    -0.237 N 
HETATM   13  C4  UNL     1     -65.037  16.429  50.283  1.00  0.00     0.334 A 
HETATM   14  O3  UNL     1     -63.827  16.756  50.247  1.00  0.00    -0.246 OA
HETATM   15  N5  UNL     1     -65.951  16.728  49.251  1.00  0.00    -0.271 N 
HETATM   16  C5  UNL     1     -67.216  16.208  49.633  1.00  0.00     0.318 A 
ATOM     17  H5  UNL     1     -65.742  17.228  48.387  1.00  0.00     0.174 HD
HETATM   18  O4  UNL     1     -68.312  16.259  48.991  1.00  0.00    -0.262 OA
HETATM   19  C6  UNL     1     -67.070  15.573  50.933  1.00  0.00     0.321 A 
HETATM   20  O5  UNL     1     -67.980  14.990  51.615  1.00  0.00    -0.262 OA
ENDBRANCH   1  12
TORSDOF 3
ENDMDL
