MODEL 1
REMARK VINA RESULT: -6.872731283      0.000      0.000
REMARK  2 active torsions:
REMARK  status: ('A' for Active; 'I' for Inactive)
REMARK       I    between atoms: N1_2  and  C2_4 
REMARK       I    between atoms: C2_4  and  N3_11 
REMARK       I    between atoms: N2_5  and  C3_7 
REMARK    1  A    between atoms: C3_7  and  C4_9 
REMARK    2  A    between atoms: N3_11  and  N4_13 
ROOT
HETATM    1  N4  UNL     1     -63.331  15.425  55.998  1.00  0.00    -0.117 N 
ATOM      2  H4  UNL     1     -63.709  14.661  55.437  1.00  0.00     0.206 HD
HETATM    3  C5  UNL     1     -63.638  16.657  55.697  1.00  0.00     0.710 C 
HETATM    4  N5  UNL     1     -64.498  16.844  54.582  1.00  0.00    -0.196 N 
ATOM      5  H5  UNL     1     -64.910  15.997  54.191  1.00  0.00     0.183 HD
HETATM    6  C6  UNL     1     -64.829  17.959  53.993  1.00  0.00     0.155 C 
HETATM    7  C7  UNL     1     -64.381  19.294  54.354  1.00  0.00     0.128 C 
HETATM    8  N6  UNL     1     -64.603  20.246  53.504  1.00  0.00    -0.384 N 
ATOM      9  H61 UNL     1     -64.289  21.182  53.757  1.00  0.00     0.157 HD
ATOM     10  H62 UNL     1     -65.079  19.968  52.646  1.00  0.00     0.157 HD
HETATM   11  N7  UNL     1     -63.713  19.684  55.560  1.00  0.00    -0.268 N 
ATOM     12  H7  UNL     1     -63.272  20.604  55.554  1.00  0.00     0.186 HD
HETATM   13  N8  UNL     1     -63.593  18.941  56.757  1.00  0.00    -0.006 NA
HETATM   14  N9  UNL     1     -63.075  17.665  56.521  1.00  0.00    -0.115 N 
ATOM     15  H9  UNL     1     -62.199  17.433  56.990  1.00  0.00     0.203 HD
ENDROOT
BRANCH   1  16
HETATM   16  N3  UNL     1     -62.491  15.139  57.078  1.00  0.00    -0.118 N 
HETATM   17  C2  UNL     1     -62.556  13.941  57.819  1.00  0.00     0.695 C 
HETATM   18  N1  UNL     1     -62.161  13.918  59.172  1.00  0.00    -0.229 N 
HETATM   19  N2  UNL     1     -62.968  12.853  57.291  1.00  0.00    -0.152 N 
HETATM   20  C1  UNL     1     -60.743  13.779  59.442  1.00  0.00     0.165 C 
ATOM     21  H1  UNL     1     -62.842  13.996  59.928  1.00  0.00     0.177 HD
HETATM   22  C3  UNL     1     -63.396  12.689  55.974  1.00  0.00     0.297 C 
ATOM     23  H2  UNL     1     -62.986  12.026  57.889  1.00  0.00     0.187 HD
HETATM   24  O1  UNL     1     -62.555  12.657  55.046  1.00  0.00    -0.264 OA
ATOM     25  H3  UNL     1     -61.794  15.834  57.344  1.00  0.00     0.206 HD
BRANCH  22  26
HETATM   26  C4  UNL     1     -64.800  12.555  55.663  1.00  0.00     0.333 C 
HETATM   27  O2  UNL     1     -65.615  13.480  55.921  1.00  0.00    -0.296 OA
ENDBRANCH  22  26
ENDBRANCH   1  16
TORSDOF 2
ENDMDL
MODEL 2
REMARK VINA RESULT: -6.582144281      2.690      6.366
REMARK  2 active torsions:
REMARK  status: ('A' for Active; 'I' for Inactive)
REMARK       I    between atoms: N1_2  and  C2_4 
REMARK       I    between atoms: C2_4  and  N3_11 
REMARK       I    between atoms: N2_5  and  C3_7 
REMARK    1  A    between atoms: C3_7  and  C4_9 
REMARK    2  A    between atoms: N3_11  and  N4_13 
ROOT
HETATM    1  N4  UNL     1     -63.908  16.733  55.864  1.00  0.00    -0.117 N 
ATOM      2  H4  UNL     1     -64.205  17.454  56.522  1.00  0.00     0.206 HD
HETATM    3  C5  UNL     1     -63.210  15.718  56.292  1.00  0.00     0.710 C 
HETATM    4  N5  UNL     1     -62.907  15.693  57.680  1.00  0.00    -0.196 N 
ATOM      5  H5  UNL     1     -63.373  16.400  58.248  1.00  0.00     0.183 HD
HETATM    6  C6  UNL     1     -62.112  14.883  58.320  1.00  0.00     0.155 C 
HETATM    7  C7  UNL     1     -61.335  13.798  57.745  1.00  0.00     0.128 C 
HETATM    8  N6  UNL     1     -60.411  13.272  58.483  1.00  0.00    -0.384 N 
ATOM      9  H61 UNL     1     -59.866  12.510  58.079  1.00  0.00     0.157 HD
ATOM     10  H62 UNL     1     -60.308  13.674  59.415  1.00  0.00     0.157 HD
HETATM   11  N7  UNL     1     -61.478  13.233  56.436  1.00  0.00    -0.268 N 
ATOM     12  H7  UNL     1     -60.714  12.639  56.115  1.00  0.00     0.186 HD
HETATM   13  N8  UNL     1     -62.557  13.405  55.537  1.00  0.00    -0.006 NA
HETATM   14  N9  UNL     1     -62.834  14.757  55.318  1.00  0.00    -0.115 N 
ATOM     15  H9  UNL     1     -62.758  15.089  54.356  1.00  0.00     0.203 HD
ENDROOT
BRANCH   1  16
HETATM   16  N3  UNL     1     -64.255  16.846  54.514  1.00  0.00    -0.118 N 
HETATM   17  C2  UNL     1     -64.912  17.970  53.970  1.00  0.00     0.695 C 
HETATM   18  N1  UNL     1     -65.741  17.832  52.839  1.00  0.00    -0.229 N 
HETATM   19  N2  UNL     1     -64.775  19.133  54.481  1.00  0.00    -0.152 N 
HETATM   20  C1  UNL     1     -65.090  17.830  51.542  1.00  0.00     0.165 C 
ATOM     21  H1  UNL     1     -66.753  17.738  52.927  1.00  0.00     0.177 HD
HETATM   22  C3  UNL     1     -64.000  19.455  55.595  1.00  0.00     0.297 C 
ATOM     23  H2  UNL     1     -65.280  19.897  54.033  1.00  0.00     0.187 HD
HETATM   24  O1  UNL     1     -62.752  19.507  55.490  1.00  0.00    -0.264 OA
ATOM     25  H3  UNL     1     -64.022  16.075  53.889  1.00  0.00     0.206 HD
BRANCH  22  26
HETATM   26  C4  UNL     1     -64.616  19.732  56.871  1.00  0.00     0.333 C 
HETATM   27  O2  UNL     1     -65.493  18.964  57.350  1.00  0.00    -0.296 OA
ENDBRANCH  22  26
ENDBRANCH   1  16
TORSDOF 2
ENDMDL
MODEL 3
REMARK VINA RESULT: -6.563343302      2.392      3.466
REMARK  2 active torsions:
REMARK  status: ('A' for Active; 'I' for Inactive)
REMARK       I    between atoms: N1_2  and  C2_4 
REMARK       I    between atoms: C2_4  and  N3_11 
REMARK       I    between atoms: N2_5  and  C3_7 
REMARK    1  A    between atoms: C3_7  and  C4_9 
REMARK    2  A    between atoms: N3_11  and  N4_13 
ROOT
HETATM    1  N4  UNL     1     -63.324  16.072  56.833  1.00  0.00    -0.117 N 
ATOM      2  H4  UNL     1     -63.008  16.153  57.800  1.00  0.00     0.206 HD
HETATM    3  C5  UNL     1     -63.897  17.091  56.255  1.00  0.00     0.710 C 
HETATM    4  N5  UNL     1     -64.041  18.268  57.036  1.00  0.00    -0.196 N 
ATOM      5  H5  UNL     1     -63.567  18.263  57.939  1.00  0.00     0.183 HD
HETATM    6  C6  UNL     1     -64.701  19.355  56.749  1.00  0.00     0.155 C 
HETATM    7  C7  UNL     1     -65.458  19.612  55.534  1.00  0.00     0.128 C 
HETATM    8  N6  UNL     1     -66.255  20.632  55.535  1.00  0.00    -0.384 N 
ATOM      9  H61 UNL     1     -66.786  20.813  54.683  1.00  0.00     0.157 HD
ATOM     10  H62 UNL     1     -66.282  21.170  56.401  1.00  0.00     0.157 HD
HETATM   11  N7  UNL     1     -65.420  18.856  54.318  1.00  0.00    -0.268 N 
ATOM     12  H7  UNL     1     -66.171  19.037  53.651  1.00  0.00     0.186 HD
HETATM   13  N8  UNL     1     -64.462  17.889  53.934  1.00  0.00    -0.006 NA
HETATM   14  N9  UNL     1     -64.308  16.901  54.911  1.00  0.00    -0.115 N 
ATOM     15  H9  UNL     1     -64.514  15.943  54.628  1.00  0.00     0.203 HD
ENDROOT
BRANCH   1  16
HETATM   16  N3  UNL     1     -63.137  14.869  56.147  1.00  0.00    -0.118 N 
HETATM   17  C2  UNL     1     -61.931  14.139  56.167  1.00  0.00     0.695 C 
HETATM   18  N1  UNL     1     -61.573  13.322  55.076  1.00  0.00    -0.229 N 
HETATM   19  N2  UNL     1     -61.136  14.195  57.166  1.00  0.00    -0.152 N 
HETATM   20  C1  UNL     1     -62.149  11.992  55.032  1.00  0.00     0.165 C 
ATOM     21  H1  UNL     1     -60.937  13.652  54.349  1.00  0.00     0.177 HD
HETATM   22  C3  UNL     1     -61.326  14.945  58.327  1.00  0.00     0.297 C 
ATOM     23  H2  UNL     1     -60.283  13.638  57.110  1.00  0.00     0.187 HD
HETATM   24  O1  UNL     1     -62.154  14.564  59.185  1.00  0.00    -0.264 OA
ATOM     25  H3  UNL     1     -63.915  14.499  55.600  1.00  0.00     0.206 HD
BRANCH  22  26
HETATM   26  C4  UNL     1     -60.577  16.159  58.553  1.00  0.00     0.333 C 
HETATM   27  O2  UNL     1     -61.039  17.282  58.215  1.00  0.00    -0.296 OA
ENDBRANCH  22  26
ENDBRANCH   1  16
TORSDOF 2
ENDMDL
MODEL 4
REMARK VINA RESULT: -6.311366157      3.232      4.849
REMARK  2 active torsions:
REMARK  status: ('A' for Active; 'I' for Inactive)
REMARK       I    between atoms: N1_2  and  C2_4 
REMARK       I    between atoms: C2_4  and  N3_11 
REMARK       I    between atoms: N2_5  and  C3_7 
REMARK    1  A    between atoms: C3_7  and  C4_9 
REMARK    2  A    between atoms: N3_11  and  N4_13 
ROOT
HETATM    1  N4  UNL     1     -64.577  16.919  54.466  1.00  0.00    -0.117 N 
ATOM      2  H4  UNL     1     -64.819  17.832  54.854  1.00  0.00     0.206 HD
HETATM    3  C5  UNL     1     -64.768  16.688  53.197  1.00  0.00     0.710 C 
HETATM    4  N5  UNL     1     -65.313  17.754  52.431  1.00  0.00    -0.196 N 
ATOM      5  H5  UNL     1     -65.385  18.652  52.908  1.00  0.00     0.183 HD
HETATM    6  C6  UNL     1     -65.732  17.731  51.197  1.00  0.00     0.155 C 
HETATM    7  C7  UNL     1     -65.737  16.583  50.305  1.00  0.00     0.128 C 
HETATM    8  N6  UNL     1     -66.424  16.682  49.212  1.00  0.00    -0.384 N 
ATOM      9  H61 UNL     1     -66.428  15.877  48.587  1.00  0.00     0.157 HD
ATOM     10  H62 UNL     1     -66.908  17.570  49.074  1.00  0.00     0.157 HD
HETATM   11  N7  UNL     1     -65.058  15.337  50.499  1.00  0.00    -0.268 N 
ATOM     12  H7  UNL     1     -65.347  14.567  49.895  1.00  0.00     0.186 HD
HETATM   13  N8  UNL     1     -64.034  15.050  51.431  1.00  0.00    -0.006 NA
HETATM   14  N9  UNL     1     -64.409  15.398  52.732  1.00  0.00    -0.115 N 
ATOM     15  H9  UNL     1     -64.426  14.644  53.418  1.00  0.00     0.203 HD
ENDROOT
BRANCH   1  16
HETATM   16  N3  UNL     1     -64.046  15.933  55.303  1.00  0.00    -0.118 N 
HETATM   17  C2  UNL     1     -62.984  16.163  56.201  1.00  0.00     0.695 C 
HETATM   18  N1  UNL     1     -62.117  15.112  56.563  1.00  0.00    -0.229 N 
HETATM   19  N2  UNL     1     -62.780  17.317  56.709  1.00  0.00    -0.152 N 
HETATM   20  C1  UNL     1     -62.562  14.226  57.622  1.00  0.00     0.165 C 
ATOM     21  H1  UNL     1     -61.217  14.980  56.102  1.00  0.00     0.177 HD
HETATM   22  C3  UNL     1     -63.532  18.467  56.467  1.00  0.00     0.297 C 
ATOM     23  H2  UNL     1     -61.993  17.407  57.352  1.00  0.00     0.187 HD
HETATM   24  O1  UNL     1     -64.663  18.591  56.990  1.00  0.00    -0.264 OA
ATOM     25  H3  UNL     1     -64.448  14.997  55.261  1.00  0.00     0.206 HD
BRANCH  22  26
HETATM   26  C4  UNL     1     -63.022  19.520  55.620  1.00  0.00     0.333 C 
HETATM   27  O2  UNL     1     -63.487  19.707  54.464  1.00  0.00    -0.296 OA
ENDBRANCH  22  26
ENDBRANCH   1  16
TORSDOF 2
ENDMDL
MODEL 5
REMARK VINA RESULT: -6.162047280      2.869      6.590
REMARK  2 active torsions:
REMARK  status: ('A' for Active; 'I' for Inactive)
REMARK       I    between atoms: N1_2  and  C2_4 
REMARK       I    between atoms: C2_4  and  N3_11 
REMARK       I    between atoms: N2_5  and  C3_7 
REMARK    1  A    between atoms: C3_7  and  C4_9 
REMARK    2  A    between atoms: N3_11  and  N4_13 
ROOT
HETATM    1  N4  UNL     1     -64.449  16.967  54.485  1.00  0.00    -0.117 N 
ATOM      2  H4  UNL     1     -64.677  17.447  55.357  1.00  0.00     0.206 HD
HETATM    3  C5  UNL     1     -64.203  15.686  54.500  1.00  0.00     0.710 C 
HETATM    4  N5  UNL     1     -64.274  15.039  55.763  1.00  0.00    -0.196 N 
ATOM      5  H5  UNL     1     -64.640  15.603  56.530  1.00  0.00     0.183 HD
HETATM    6  C6  UNL     1     -63.931  13.819  56.067  1.00  0.00     0.155 C 
HETATM    7  C7  UNL     1     -63.386  12.821  55.162  1.00  0.00     0.128 C 
HETATM    8  N6  UNL     1     -62.866  11.760  55.690  1.00  0.00    -0.384 N 
ATOM      9  H61 UNL     1     -62.483  11.060  55.054  1.00  0.00     0.157 HD
ATOM     10  H62 UNL     1     -62.885  11.720  56.709  1.00  0.00     0.157 HD
HETATM   11  N7  UNL     1     -63.359  12.878  53.730  1.00  0.00    -0.268 N 
ATOM     12  H7  UNL     1     -62.745  12.210  53.264  1.00  0.00     0.186 HD
HETATM   13  N8  UNL     1     -64.084  13.754  52.889  1.00  0.00    -0.006 NA
HETATM   14  N9  UNL     1     -63.894  15.091  53.251  1.00  0.00    -0.115 N 
ATOM     15  H9  UNL     1     -63.490  15.702  52.542  1.00  0.00     0.203 HD
ENDROOT
BRANCH   1  16
HETATM   16  N3  UNL     1     -64.404  17.692  53.291  1.00  0.00    -0.118 N 
HETATM   17  C2  UNL     1     -64.588  19.088  53.219  1.00  0.00     0.695 C 
HETATM   18  N1  UNL     1     -65.112  19.679  52.051  1.00  0.00    -0.229 N 
HETATM   19  N2  UNL     1     -64.288  19.851  54.200  1.00  0.00    -0.152 N 
HETATM   20  C1  UNL     1     -64.179  19.944  50.973  1.00  0.00     0.165 C 
ATOM     21  H1  UNL     1     -66.102  19.910  51.968  1.00  0.00     0.177 HD
HETATM   22  C3  UNL     1     -63.762  19.444  55.426  1.00  0.00     0.297 C 
ATOM     23  H2  UNL     1     -64.448  20.851  54.074  1.00  0.00     0.187 HD
HETATM   24  O1  UNL     1     -62.559  19.104  55.504  1.00  0.00    -0.264 OA
ATOM     25  H3  UNL     1     -64.228  17.184  52.424  1.00  0.00     0.206 HD
BRANCH  22  26
HETATM   26  C4  UNL     1     -64.587  19.411  56.611  1.00  0.00     0.333 C 
HETATM   27  O2  UNL     1     -64.717  18.354  57.284  1.00  0.00    -0.296 OA
ENDBRANCH  22  26
ENDBRANCH   1  16
TORSDOF 2
ENDMDL
