MODEL 1
REMARK VINA RESULT: -8.257372066      0.000      0.000
REMARK  8 active torsions:
REMARK  status: ('A' for Active; 'I' for Inactive)
REMARK    1  A    between atoms: N1_1  and  N2_4 
REMARK    2  A    between atoms: N2_4  and  C1_6 
REMARK    3  A    between atoms: C3_13  and  N5_14 
REMARK    4  A    between atoms: C3_13  and  O2_18 
REMARK    5  A    between atoms: C4_21  and  C5_22 
REMARK    6  A    between atoms: C5_22  and  N6_23 
REMARK    7  A    between atoms: C5_22  and  C6_28 
REMARK    8  A    between atoms: N6_23  and  N7_25 
ROOT
HETATM    1  C1  UNL     1      16.635  67.920  34.922  1.00  0.00     0.146 C 
HETATM    2  N3  UNL     1      16.515  67.353  36.113  1.00  0.00    -0.283 N 
ATOM      3  H3  UNL     1      15.554  67.225  36.429  1.00  0.00     0.188 HD
HETATM    4  N4  UNL     1      17.492  66.900  37.012  1.00  0.00    -0.262 N 
ATOM      5  H4  UNL     1      17.182  66.267  37.749  1.00  0.00     0.190 HD
HETATM    6  C2  UNL     1      18.886  67.243  36.994  1.00  0.00     0.329 C 
HETATM    7  O1  UNL     1      19.516  66.816  37.971  1.00  0.00    -0.263 OA
HETATM    8  C3  UNL     1      19.585  68.028  35.942  1.00  0.00     0.420 C 
HETATM    9  O3  UNL     1      18.720  68.849  35.267  1.00  0.00    -0.306 OA
HETATM   10  C4  UNL     1      17.910  68.176  34.325  1.00  0.00     0.249 C 
ENDROOT
BRANCH  10  11
HETATM   11  C5  UNL     1      18.076  68.804  33.006  1.00  0.00     0.072 C 
BRANCH  11  12
HETATM   12  N6  UNL     1      17.242  69.835  32.574  1.00  0.00    -0.307 N 
ATOM     13  H6  UNL     1      16.411  70.038  33.128  1.00  0.00     0.186 HD
BRANCH  12  14
HETATM   14  N7  UNL     1      17.462  70.575  31.481  1.00  0.00    -0.345 N 
ATOM     15  H72 UNL     1      18.272  70.327  30.913  1.00  0.00     0.176 HD
ATOM     16  H71 UNL     1      16.877  71.358  31.190  1.00  0.00     0.176 HD
ENDBRANCH  12  14
ENDBRANCH  11  12
BRANCH  11  17
HETATM   17  C6  UNL     1      18.621  67.905  31.950  1.00  0.00    -0.009 A 
HETATM   18  C7  UNL     1      19.932  67.471  32.034  1.00  0.00     0.013 A 
HETATM   19  C8  UNL     1      20.522  66.642  31.080  1.00  0.00     0.001 A 
HETATM   20  C9  UNL     1      19.788  66.226  29.999  1.00  0.00     0.000 A 
HETATM   21  C10 UNL     1      18.476  66.646  29.891  1.00  0.00     0.001 A 
HETATM   22  C11 UNL     1      17.923  67.465  30.851  1.00  0.00     0.013 A 
ENDBRANCH  11  17
ENDBRANCH  10  11
BRANCH   1  23
HETATM   23  N2  UNL     1      15.372  68.200  34.400  1.00  0.00    -0.292 N 
ATOM     24  H2  UNL     1      15.009  67.648  33.623  1.00  0.00     0.187 HD
BRANCH  23  25
HETATM   25  N1  UNL     1      14.603  69.236  34.941  1.00  0.00    -0.344 N 
ATOM     26  H12 UNL     1      14.556  70.127  34.447  1.00  0.00     0.176 HD
ATOM     27  H11 UNL     1      14.099  69.095  35.817  1.00  0.00     0.176 HD
ENDBRANCH  23  25
ENDBRANCH   1  23
BRANCH   8  28
HETATM   28  N5  UNL     1      20.524  68.903  36.649  1.00  0.00    -0.012 N 
ATOM     29  H53 UNL     1      20.625  69.823  36.221  1.00  0.00     0.281 HD
ATOM     30  H52 UNL     1      20.179  69.225  37.554  1.00  0.00     0.281 HD
ATOM     31  H51 UNL     1      21.401  68.384  36.709  1.00  0.00     0.281 HD
ENDBRANCH   8  28
BRANCH   8  32
HETATM   32  O2  UNL     1      20.351  67.211  35.114  1.00  0.00    -0.336 OA
ATOM     33  H2  UNL     1      19.823  66.801  34.440  1.00  0.00     0.215 HD
ENDBRANCH   8  32
TORSDOF 8
ENDMDL
MODEL 2
REMARK VINA RESULT: -7.957424740      1.949      3.429
REMARK  8 active torsions:
REMARK  status: ('A' for Active; 'I' for Inactive)
REMARK    1  A    between atoms: N1_1  and  N2_4 
REMARK    2  A    between atoms: N2_4  and  C1_6 
REMARK    3  A    between atoms: C3_13  and  N5_14 
REMARK    4  A    between atoms: C3_13  and  O2_18 
REMARK    5  A    between atoms: C4_21  and  C5_22 
REMARK    6  A    between atoms: C5_22  and  N6_23 
REMARK    7  A    between atoms: C5_22  and  C6_28 
REMARK    8  A    between atoms: N6_23  and  N7_25 
ROOT
HETATM    1  C1  UNL     1      18.404  68.019  34.893  1.00  0.00     0.146 C 
HETATM    2  N3  UNL     1      17.922  67.524  36.023  1.00  0.00    -0.283 N 
ATOM      3  H3  UNL     1      18.630  67.203  36.684  1.00  0.00     0.188 HD
HETATM    4  N4  UNL     1      16.598  67.367  36.461  1.00  0.00    -0.262 N 
ATOM      5  H4  UNL     1      16.458  67.207  37.459  1.00  0.00     0.190 HD
HETATM    6  C2  UNL     1      15.422  67.411  35.640  1.00  0.00     0.329 C 
HETATM    7  O1  UNL     1      14.382  67.116  36.244  1.00  0.00    -0.263 OA
HETATM    8  C3  UNL     1      15.370  67.768  34.197  1.00  0.00     0.420 C 
HETATM    9  O3  UNL     1      16.570  67.538  33.576  1.00  0.00    -0.306 OA
HETATM   10  C4  UNL     1      17.553  68.513  33.854  1.00  0.00     0.249 C 
ENDROOT
BRANCH  10  11
HETATM   11  C5  UNL     1      18.058  69.068  32.589  1.00  0.00     0.072 C 
BRANCH  11  12
HETATM   12  N6  UNL     1      17.454  70.165  31.977  1.00  0.00    -0.307 N 
ATOM     13  H6  UNL     1      17.733  70.391  31.022  1.00  0.00     0.186 HD
BRANCH  12  14
HETATM   14  N7  UNL     1      16.532  70.941  32.559  1.00  0.00    -0.345 N 
ATOM     15  H72 UNL     1      16.168  70.627  33.458  1.00  0.00     0.176 HD
ATOM     16  H71 UNL     1      16.180  71.812  32.162  1.00  0.00     0.176 HD
ENDBRANCH  12  14
ENDBRANCH  11  12
BRANCH  11  17
HETATM   17  C6  UNL     1      18.703  68.076  31.684  1.00  0.00    -0.009 A 
HETATM   18  C7  UNL     1      18.093  67.748  30.487  1.00  0.00     0.013 A 
HETATM   19  C8  UNL     1      18.624  66.818  29.592  1.00  0.00     0.001 A 
HETATM   20  C9  UNL     1      19.804  66.187  29.892  1.00  0.00     0.000 A 
HETATM   21  C10 UNL     1      20.433  66.498  31.083  1.00  0.00     0.001 A 
HETATM   22  C11 UNL     1      19.883  67.421  31.945  1.00  0.00     0.013 A 
ENDBRANCH  11  17
ENDBRANCH  10  11
BRANCH   1  23
HETATM   23  N2  UNL     1      19.798  67.968  34.909  1.00  0.00    -0.292 N 
ATOM     24  H2  UNL     1      20.291  67.313  34.302  1.00  0.00     0.187 HD
BRANCH  23  25
HETATM   25  N1  UNL     1      20.521  68.814  35.758  1.00  0.00    -0.344 N 
ATOM     26  H12 UNL     1      20.307  69.811  35.761  1.00  0.00     0.176 HD
ATOM     27  H11 UNL     1      21.249  68.432  36.362  1.00  0.00     0.176 HD
ENDBRANCH  23  25
ENDBRANCH   1  23
BRANCH   8  28
HETATM   28  N5  UNL     1      14.403  66.850  33.589  1.00  0.00    -0.012 N 
ATOM     29  H53 UNL     1      14.239  66.008  34.140  1.00  0.00     0.281 HD
ATOM     30  H52 UNL     1      13.443  67.198  33.608  1.00  0.00     0.281 HD
ATOM     31  H51 UNL     1      14.748  66.660  32.648  1.00  0.00     0.281 HD
ENDBRANCH   8  28
BRANCH   8  32
HETATM   32  O2  UNL     1      14.871  69.055  34.003  1.00  0.00    -0.336 OA
ATOM     33  H2  UNL     1      15.490  69.605  33.540  1.00  0.00     0.215 HD
ENDBRANCH   8  32
TORSDOF 8
ENDMDL
MODEL 3
REMARK VINA RESULT: -7.903207635      1.960      3.281
REMARK  8 active torsions:
REMARK  status: ('A' for Active; 'I' for Inactive)
REMARK    1  A    between atoms: N1_1  and  N2_4 
REMARK    2  A    between atoms: N2_4  and  C1_6 
REMARK    3  A    between atoms: C3_13  and  N5_14 
REMARK    4  A    between atoms: C3_13  and  O2_18 
REMARK    5  A    between atoms: C4_21  and  C5_22 
REMARK    6  A    between atoms: C5_22  and  N6_23 
REMARK    7  A    between atoms: C5_22  and  C6_28 
REMARK    8  A    between atoms: N6_23  and  N7_25 
ROOT
HETATM    1  C1  UNL     1      18.411  68.034  34.846  1.00  0.00     0.146 C 
HETATM    2  N3  UNL     1      17.936  67.542  35.980  1.00  0.00    -0.283 N 
ATOM      3  H3  UNL     1      18.648  67.217  36.635  1.00  0.00     0.188 HD
HETATM    4  N4  UNL     1      16.615  67.394  36.431  1.00  0.00    -0.262 N 
ATOM      5  H4  UNL     1      16.484  67.235  37.430  1.00  0.00     0.190 HD
HETATM    6  C2  UNL     1      15.432  67.445  35.621  1.00  0.00     0.329 C 
HETATM    7  O1  UNL     1      14.396  67.157  36.234  1.00  0.00    -0.263 OA
HETATM    8  C3  UNL     1      15.369  67.802  34.178  1.00  0.00     0.420 C 
HETATM    9  O3  UNL     1      16.562  67.565  33.546  1.00  0.00    -0.306 OA
HETATM   10  C4  UNL     1      17.554  68.533  33.815  1.00  0.00     0.249 C 
ENDROOT
BRANCH  10  11
HETATM   11  C5  UNL     1      18.050  69.085  32.545  1.00  0.00     0.072 C 
BRANCH  11  12
HETATM   12  N6  UNL     1      17.490  70.225  31.972  1.00  0.00    -0.307 N 
ATOM     13  H6  UNL     1      17.933  70.604  31.135  1.00  0.00     0.186 HD
BRANCH  12  14
HETATM   14  N7  UNL     1      16.408  70.855  32.446  1.00  0.00    -0.345 N 
ATOM     15  H72 UNL     1      16.256  70.810  33.454  1.00  0.00     0.176 HD
ATOM     16  H71 UNL     1      15.741  71.367  31.870  1.00  0.00     0.176 HD
ENDBRANCH  12  14
ENDBRANCH  11  12
BRANCH  11  17
HETATM   17  C6  UNL     1      18.613  68.077  31.603  1.00  0.00    -0.009 A 
HETATM   18  C7  UNL     1      19.820  67.469  31.897  1.00  0.00     0.013 A 
HETATM   19  C8  UNL     1      20.422  66.528  31.060  1.00  0.00     0.001 A 
HETATM   20  C9  UNL     1      19.806  66.174  29.888  1.00  0.00     0.000 A 
HETATM   21  C10 UNL     1      18.599  66.768  29.571  1.00  0.00     0.001 A 
HETATM   22  C11 UNL     1      18.031  67.694  30.419  1.00  0.00     0.013 A 
ENDBRANCH  11  17
ENDBRANCH  10  11
BRANCH   1  23
HETATM   23  N2  UNL     1      19.805  67.975  34.850  1.00  0.00    -0.292 N 
ATOM     24  H2  UNL     1      20.291  67.378  34.180  1.00  0.00     0.187 HD
BRANCH  23  25
HETATM   25  N1  UNL     1      20.537  68.732  35.771  1.00  0.00    -0.344 N 
ATOM     26  H12 UNL     1      20.035  69.286  36.465  1.00  0.00     0.176 HD
ATOM     27  H11 UNL     1      21.557  68.725  35.744  1.00  0.00     0.176 HD
ENDBRANCH  23  25
ENDBRANCH   1  23
BRANCH   8  28
HETATM   28  N5  UNL     1      14.391  66.890  33.579  1.00  0.00    -0.012 N 
ATOM     29  H53 UNL     1      13.451  66.992  33.963  1.00  0.00     0.281 HD
ATOM     30  H52 UNL     1      14.155  67.122  32.614  1.00  0.00     0.281 HD
ATOM     31  H51 UNL     1      14.776  65.952  33.690  1.00  0.00     0.281 HD
ENDBRANCH   8  28
BRANCH   8  32
HETATM   32  O2  UNL     1      14.876  69.092  33.988  1.00  0.00    -0.336 OA
ATOM     33  H2  UNL     1      14.326  69.367  34.712  1.00  0.00     0.215 HD
ENDBRANCH   8  32
TORSDOF 8
ENDMDL
MODEL 4
REMARK VINA RESULT: -7.552280117      2.579      5.648
REMARK  8 active torsions:
REMARK  status: ('A' for Active; 'I' for Inactive)
REMARK    1  A    between atoms: N1_1  and  N2_4 
REMARK    2  A    between atoms: N2_4  and  C1_6 
REMARK    3  A    between atoms: C3_13  and  N5_14 
REMARK    4  A    between atoms: C3_13  and  O2_18 
REMARK    5  A    between atoms: C4_21  and  C5_22 
REMARK    6  A    between atoms: C5_22  and  N6_23 
REMARK    7  A    between atoms: C5_22  and  C6_28 
REMARK    8  A    between atoms: N6_23  and  N7_25 
ROOT
HETATM    1  C1  UNL     1      18.873  67.774  32.679  1.00  0.00     0.146 C 
HETATM    2  N3  UNL     1      18.253  67.804  31.508  1.00  0.00    -0.283 N 
ATOM      3  H3  UNL     1      18.812  67.468  30.723  1.00  0.00     0.188 HD
HETATM    4  N4  UNL     1      16.958  68.222  31.170  1.00  0.00    -0.262 N 
ATOM      5  H4  UNL     1      16.598  67.921  30.264  1.00  0.00     0.190 HD
HETATM    6  C2  UNL     1      16.089  69.031  31.976  1.00  0.00     0.329 C 
HETATM    7  O1  UNL     1      15.047  69.370  31.399  1.00  0.00    -0.263 OA
HETATM    8  C3  UNL     1      16.341  69.465  33.376  1.00  0.00     0.420 C 
HETATM    9  O3  UNL     1      17.681  69.488  33.665  1.00  0.00    -0.306 OA
HETATM   10  C4  UNL     1      18.239  68.210  33.886  1.00  0.00     0.249 C 
ENDROOT
BRANCH  10  11
HETATM   11  C5  UNL     1      18.899  68.189  35.200  1.00  0.00     0.072 C 
BRANCH  11  12
HETATM   12  N6  UNL     1      20.277  68.361  35.332  1.00  0.00    -0.307 N 
ATOM     13  H6  UNL     1      20.886  67.782  34.754  1.00  0.00     0.186 HD
BRANCH  12  14
HETATM   14  N7  UNL     1      20.852  69.234  36.166  1.00  0.00    -0.345 N 
ATOM     15  H72 UNL     1      20.271  69.602  36.919  1.00  0.00     0.176 HD
ATOM     16  H71 UNL     1      21.820  69.547  36.094  1.00  0.00     0.176 HD
ENDBRANCH  12  14
ENDBRANCH  11  12
BRANCH  11  17
HETATM   17  C6  UNL     1      18.238  67.327  36.219  1.00  0.00    -0.009 A 
HETATM   18  C7  UNL     1      18.984  66.376  36.894  1.00  0.00     0.013 A 
HETATM   19  C8  UNL     1      18.438  65.520  37.851  1.00  0.00     0.001 A 
HETATM   20  C9  UNL     1      17.103  65.605  38.151  1.00  0.00     0.000 A 
HETATM   21  C10 UNL     1      16.336  66.545  37.490  1.00  0.00     0.001 A 
HETATM   22  C11 UNL     1      16.906  67.377  36.550  1.00  0.00     0.013 A 
ENDBRANCH  11  17
ENDBRANCH  10  11
BRANCH   1  23
HETATM   23  N2  UNL     1      20.165  67.274  32.520  1.00  0.00    -0.292 N 
ATOM     24  H2  UNL     1      20.823  67.306  33.299  1.00  0.00     0.187 HD
BRANCH  23  25
HETATM   25  N1  UNL     1      20.561  66.730  31.292  1.00  0.00    -0.344 N 
ATOM     26  H12 UNL     1      20.790  67.360  30.524  1.00  0.00     0.176 HD
ATOM     27  H11 UNL     1      20.617  65.718  31.176  1.00  0.00     0.176 HD
ENDBRANCH  23  25
ENDBRANCH   1  23
BRANCH   8  28
HETATM   28  N5  UNL     1      15.873  70.851  33.459  1.00  0.00    -0.012 N 
ATOM     29  H53 UNL     1      14.928  70.984  33.098  1.00  0.00     0.281 HD
ATOM     30  H52 UNL     1      15.684  71.162  34.413  1.00  0.00     0.281 HD
ATOM     31  H51 UNL     1      16.575  71.415  32.980  1.00  0.00     0.281 HD
ENDBRANCH   8  28
BRANCH   8  32
HETATM   32  O2  UNL     1      15.579  68.734  34.286  1.00  0.00    -0.336 OA
ATOM     33  H2  UNL     1      15.007  69.296  34.795  1.00  0.00     0.215 HD
ENDBRANCH   8  32
TORSDOF 8
ENDMDL
MODEL 5
REMARK VINA RESULT: -7.275584944      2.956      5.567
REMARK  8 active torsions:
REMARK  status: ('A' for Active; 'I' for Inactive)
REMARK    1  A    between atoms: N1_1  and  N2_4 
REMARK    2  A    between atoms: N2_4  and  C1_6 
REMARK    3  A    between atoms: C3_13  and  N5_14 
REMARK    4  A    between atoms: C3_13  and  O2_18 
REMARK    5  A    between atoms: C4_21  and  C5_22 
REMARK    6  A    between atoms: C5_22  and  N6_23 
REMARK    7  A    between atoms: C5_22  and  C6_28 
REMARK    8  A    between atoms: N6_23  and  N7_25 
ROOT
HETATM    1  C1  UNL     1      19.028  67.909  33.168  1.00  0.00     0.146 C 
HETATM    2  N3  UNL     1      20.042  67.268  32.606  1.00  0.00    -0.283 N 
ATOM      3  H3  UNL     1      20.897  67.252  33.164  1.00  0.00     0.188 HD
HETATM    4  N4  UNL     1      20.137  66.608  31.372  1.00  0.00    -0.262 N 
ATOM      5  H4  UNL     1      20.920  65.966  31.251  1.00  0.00     0.190 HD
HETATM    6  C2  UNL     1      19.236  66.749  30.264  1.00  0.00     0.329 C 
HETATM    7  O1  UNL     1      19.609  66.158  29.241  1.00  0.00    -0.263 OA
HETATM    8  C3  UNL     1      17.959  67.512  30.260  1.00  0.00     0.420 C 
HETATM    9  O3  UNL     1      17.959  68.501  31.209  1.00  0.00    -0.306 OA
HETATM   10  C4  UNL     1      17.755  68.030  32.525  1.00  0.00     0.249 C 
ENDROOT
BRANCH  10  11
HETATM   11  C5  UNL     1      16.610  68.735  33.121  1.00  0.00     0.072 C 
BRANCH  11  12
HETATM   12  N6  UNL     1      16.630  70.112  33.339  1.00  0.00    -0.307 N 
ATOM     13  H6  UNL     1      16.871  70.442  34.273  1.00  0.00     0.186 HD
BRANCH  12  14
HETATM   14  N7  UNL     1      16.353  71.028  32.404  1.00  0.00    -0.345 N 
ATOM     15  H72 UNL     1      16.348  70.709  31.435  1.00  0.00     0.176 HD
ATOM     16  H71 UNL     1      16.153  72.008  32.600  1.00  0.00     0.176 HD
ENDBRANCH  12  14
ENDBRANCH  11  12
BRANCH  11  17
HETATM   17  C6  UNL     1      15.804  67.924  34.075  1.00  0.00    -0.009 A 
HETATM   18  C7  UNL     1      14.694  67.237  33.618  1.00  0.00     0.013 A 
HETATM   19  C8  UNL     1      13.878  66.468  34.449  1.00  0.00     0.001 A 
HETATM   20  C9  UNL     1      14.171  66.375  35.785  1.00  0.00     0.000 A 
HETATM   21  C10 UNL     1      15.275  67.052  36.267  1.00  0.00     0.001 A 
HETATM   22  C11 UNL     1      16.061  67.802  35.420  1.00  0.00     0.013 A 
ENDBRANCH  11  17
ENDBRANCH  10  11
BRANCH   1  23
HETATM   23  N2  UNL     1      19.412  68.407  34.413  1.00  0.00    -0.292 N 
ATOM     24  H2  UNL     1      18.789  69.032  34.925  1.00  0.00     0.187 HD
BRANCH  23  25
HETATM   25  N1  UNL     1      20.650  68.052  34.959  1.00  0.00    -0.344 N 
ATOM     26  H12 UNL     1      21.503  68.314  34.464  1.00  0.00     0.176 HD
ATOM     27  H11 UNL     1      20.692  67.539  35.840  1.00  0.00     0.176 HD
ENDBRANCH  23  25
ENDBRANCH   1  23
BRANCH   8  28
HETATM   28  N5  UNL     1      17.894  68.182  28.958  1.00  0.00    -0.012 N 
ATOM     29  H53 UNL     1      18.773  68.156  28.442  1.00  0.00     0.281 HD
ATOM     30  H52 UNL     1      17.331  67.681  28.269  1.00  0.00     0.281 HD
ATOM     31  H51 UNL     1      17.560  69.128  29.146  1.00  0.00     0.281 HD
ENDBRANCH   8  28
BRANCH   8  32
HETATM   32  O2  UNL     1      16.854  66.665  30.325  1.00  0.00    -0.336 OA
ATOM     33  H2  UNL     1      16.048  67.150  30.455  1.00  0.00     0.215 HD
ENDBRANCH   8  32
TORSDOF 8
ENDMDL
