MODEL 1
REMARK VINA RESULT: -6.557872596      0.000      0.000
REMARK  8 active torsions:
REMARK  status: ('A' for Active; 'I' for Inactive)
REMARK    1  A    between atoms: C2_3  and  O1_4 
REMARK    2  A    between atoms: C2_3  and  C3_6 
REMARK    3  A    between atoms: C3_6  and  O2_7 
REMARK    4  A    between atoms: C3_6  and  C4_9 
REMARK    5  A    between atoms: C6_17  and  N5_18 
REMARK    6  A    between atoms: C9_26  and  N7_27 
REMARK    7  A    between atoms: N7_27  and  N8_28 
REMARK    8  A    between atoms: N7_27  and  N9_31 
ROOT
HETATM    1  N1  UNL     1      14.984  63.473  40.949  1.00  0.00    -0.194 NA
HETATM    2  C1  UNL     1      15.356  63.873  39.934  1.00  0.00     0.094 C 
HETATM    3  C2  UNL     1      15.853  64.389  38.622  1.00  0.00     0.259 C 
ENDROOT
BRANCH   3   4
HETATM    4  O1  UNL     1      14.756  64.301  37.774  1.00  0.00    -0.378 OA
ATOM      5  H1  UNL     1      15.130  64.289  36.901  1.00  0.00     0.211 HD
ENDBRANCH   3   4
BRANCH   3   6
HETATM    6  C3  UNL     1      16.249  65.866  38.857  1.00  0.00     0.214 C 
BRANCH   6   7
HETATM    7  O2  UNL     1      15.159  66.353  39.639  1.00  0.00    -0.386 OA
ATOM      8  H2  UNL     1      14.557  66.666  38.973  1.00  0.00     0.210 HD
ENDBRANCH   6   7
BRANCH   6   9
HETATM    9  C4  UNL     1      16.195  66.620  37.617  1.00  0.00     0.089 A 
HETATM   10  N2  UNL     1      14.984  66.988  37.140  1.00  0.00    -0.298 N 
HETATM   11  N3  UNL     1      14.897  67.708  36.019  1.00  0.00    -0.284 N 
ATOM     12  H2  UNL     1      14.137  66.715  37.638  1.00  0.00     0.187 HD
HETATM   13  C5  UNL     1      15.992  68.085  35.341  1.00  0.00     0.153 A 
ATOM     14  H3  UNL     1      13.978  67.978  35.670  1.00  0.00     0.188 HD
HETATM   15  N4  UNL     1      15.904  68.808  34.209  1.00  0.00    -0.174 N 
HETATM   16  C8  UNL     1      17.258  67.720  35.813  1.00  0.00     0.111 A 
HETATM   17  C6  UNL     1      17.009  69.169  33.544  1.00  0.00     0.680 A 
ATOM     18  H4  UNL     1      14.988  69.083  33.855  1.00  0.00     0.186 HD
HETATM   19  N6  UNL     1      18.246  68.836  33.965  1.00  0.00    -0.155 N 
HETATM   20  C7  UNL     1      18.358  68.114  35.097  1.00  0.00     0.276 A 
ATOM     21  H6  UNL     1      19.073  69.123  33.441  1.00  0.00     0.187 HD
HETATM   22  O3  UNL     1      19.489  67.817  35.473  1.00  0.00    -0.267 OA
HETATM   23  C9  UNL     1      17.348  66.971  36.975  1.00  0.00     0.120 A 
BRANCH  17  24
HETATM   24  N5  UNL     1      16.825  69.886  32.459  1.00  0.00    -0.234 N 
ATOM     25  H52 UNL     1      16.327  70.775  32.487  1.00  0.00     0.174 HD
ATOM     26  H51 UNL     1      17.197  69.495  31.593  1.00  0.00     0.174 HD
ENDBRANCH  17  24
BRANCH  23  27
HETATM   27  N7  UNL     1      18.576  66.578  37.477  1.00  0.00    -0.207 N 
BRANCH  27  28
HETATM   28  N8  UNL     1      19.298  65.431  37.124  1.00  0.00    -0.324 N 
ATOM     29  H82 UNL     1      18.742  64.659  36.754  1.00  0.00     0.178 HD
ATOM     30  H81 UNL     1      20.305  65.293  37.207  1.00  0.00     0.178 HD
ENDBRANCH  27  28
BRANCH  27  31
HETATM   31  N9  UNL     1      19.195  67.415  38.441  1.00  0.00    -0.324 N 
ATOM     32  H92 UNL     1      19.028  68.415  38.326  1.00  0.00     0.178 HD
ATOM     33  H91 UNL     1      19.747  66.970  39.173  1.00  0.00     0.178 HD
ENDBRANCH  27  31
ENDBRANCH  23  27
ENDBRANCH   6   9
ENDBRANCH   3   6
TORSDOF 8
ENDMDL
MODEL 2
REMARK VINA RESULT: -6.476826991      1.857      3.370
REMARK  8 active torsions:
REMARK  status: ('A' for Active; 'I' for Inactive)
REMARK    1  A    between atoms: C2_3  and  O1_4 
REMARK    2  A    between atoms: C2_3  and  C3_6 
REMARK    3  A    between atoms: C3_6  and  O2_7 
REMARK    4  A    between atoms: C3_6  and  C4_9 
REMARK    5  A    between atoms: C6_17  and  N5_18 
REMARK    6  A    between atoms: C9_26  and  N7_27 
REMARK    7  A    between atoms: N7_27  and  N8_28 
REMARK    8  A    between atoms: N7_27  and  N9_31 
ROOT
HETATM    1  N1  UNL     1      12.344  65.652  41.074  1.00  0.00    -0.194 NA
HETATM    2  C1  UNL     1      13.334  65.433  40.525  1.00  0.00     0.094 C 
HETATM    3  C2  UNL     1      14.622  65.164  39.816  1.00  0.00     0.259 C 
ENDROOT
BRANCH   3   4
HETATM    4  O1  UNL     1      14.696  63.779  39.740  1.00  0.00    -0.378 OA
ATOM      5  H1  UNL     1      15.456  63.610  39.196  1.00  0.00     0.211 HD
ENDBRANCH   3   4
BRANCH   3   6
HETATM    6  C3  UNL     1      14.482  65.787  38.407  1.00  0.00     0.214 C 
BRANCH   6   7
HETATM    7  O2  UNL     1      14.057  64.673  37.623  1.00  0.00    -0.386 OA
ATOM      8  H2  UNL     1      13.492  64.204  38.226  1.00  0.00     0.210 HD
ENDBRANCH   6   7
BRANCH   6   9
HETATM    9  C4  UNL     1      15.782  66.154  37.873  1.00  0.00     0.089 A 
HETATM   10  N2  UNL     1      16.887  65.660  38.474  1.00  0.00    -0.298 N 
HETATM   11  N3  UNL     1      18.098  65.951  37.992  1.00  0.00    -0.284 N 
ATOM     12  H2  UNL     1      16.797  65.065  39.296  1.00  0.00     0.187 HD
HETATM   13  C5  UNL     1      18.252  66.731  36.910  1.00  0.00     0.153 A 
ATOM     14  H3  UNL     1      18.924  65.573  38.455  1.00  0.00     0.188 HD
HETATM   15  N4  UNL     1      19.473  67.027  36.426  1.00  0.00    -0.174 N 
HETATM   16  C8  UNL     1      17.126  67.253  36.267  1.00  0.00     0.111 A 
HETATM   17  C6  UNL     1      19.607  67.811  35.348  1.00  0.00     0.680 A 
ATOM     18  H4  UNL     1      20.304  66.651  36.883  1.00  0.00     0.186 HD
HETATM   19  N6  UNL     1      18.546  68.335  34.701  1.00  0.00    -0.155 N 
HETATM   20  C7  UNL     1      17.314  68.050  35.167  1.00  0.00     0.276 A 
ATOM     21  H6  UNL     1      18.672  68.930  33.882  1.00  0.00     0.187 HD
HETATM   22  O3  UNL     1      16.354  68.531  34.571  1.00  0.00    -0.267 OA
HETATM   23  C9  UNL     1      15.869  66.952  36.768  1.00  0.00     0.120 A 
BRANCH  17  24
HETATM   24  N5  UNL     1      20.835  68.033  34.939  1.00  0.00    -0.234 N 
ATOM     25  H52 UNL     1      21.502  68.547  35.515  1.00  0.00     0.174 HD
ATOM     26  H51 UNL     1      21.074  67.675  34.015  1.00  0.00     0.174 HD
ENDBRANCH  17  24
BRANCH  23  27
HETATM   27  N7  UNL     1      14.725  67.452  36.172  1.00  0.00    -0.207 N 
BRANCH  27  28
HETATM   28  N8  UNL     1      14.110  68.682  36.440  1.00  0.00    -0.324 N 
ATOM     29  H82 UNL     1      13.482  69.026  35.712  1.00  0.00     0.178 HD
ATOM     30  H81 UNL     1      14.233  69.258  37.272  1.00  0.00     0.178 HD
ENDBRANCH  27  28
BRANCH  27  31
HETATM   31  N9  UNL     1      14.099  66.661  35.175  1.00  0.00    -0.324 N 
ATOM     32  H92 UNL     1      14.732  66.161  34.550  1.00  0.00     0.178 HD
ATOM     33  H91 UNL     1      13.080  66.639  35.155  1.00  0.00     0.178 HD
ENDBRANCH  27  31
ENDBRANCH  23  27
ENDBRANCH   6   9
ENDBRANCH   3   6
TORSDOF 8
ENDMDL
MODEL 3
REMARK VINA RESULT: -6.394027313      2.138      5.817
REMARK  8 active torsions:
REMARK  status: ('A' for Active; 'I' for Inactive)
REMARK    1  A    between atoms: C2_3  and  O1_4 
REMARK    2  A    between atoms: C2_3  and  C3_6 
REMARK    3  A    between atoms: C3_6  and  O2_7 
REMARK    4  A    between atoms: C3_6  and  C4_9 
REMARK    5  A    between atoms: C6_17  and  N5_18 
REMARK    6  A    between atoms: C9_26  and  N7_27 
REMARK    7  A    between atoms: N7_27  and  N8_28 
REMARK    8  A    between atoms: N7_27  and  N9_31 
ROOT
HETATM    1  N1  UNL     1      17.108  70.890  30.993  1.00  0.00    -0.194 NA
HETATM    2  C1  UNL     1      16.686  70.255  31.858  1.00  0.00     0.094 C 
HETATM    3  C2  UNL     1      16.142  69.444  32.989  1.00  0.00     0.259 C 
ENDROOT
BRANCH   3   4
HETATM    4  O1  UNL     1      15.432  68.420  32.375  1.00  0.00    -0.378 OA
ATOM      5  H1  UNL     1      16.097  67.803  32.095  1.00  0.00     0.211 HD
ENDBRANCH   3   4
BRANCH   3   6
HETATM    6  C3  UNL     1      17.365  68.884  33.752  1.00  0.00     0.214 C 
BRANCH   6   7
HETATM    7  O2  UNL     1      17.850  67.883  32.858  1.00  0.00    -0.386 OA
ATOM      8  H2  UNL     1      18.792  67.970  32.949  1.00  0.00     0.210 HD
ENDBRANCH   6   7
BRANCH   6   9
HETATM    9  C4  UNL     1      16.947  68.162  34.941  1.00  0.00     0.089 A 
HETATM   10  N2  UNL     1      15.627  67.934  35.125  1.00  0.00    -0.298 N 
HETATM   11  N3  UNL     1      15.208  67.247  36.190  1.00  0.00    -0.284 N 
ATOM     12  H2  UNL     1      14.951  68.288  34.449  1.00  0.00     0.187 HD
HETATM   13  C5  UNL     1      16.073  66.767  37.098  1.00  0.00     0.153 A 
ATOM     14  H3  UNL     1      14.210  67.083  36.317  1.00  0.00     0.188 HD
HETATM   15  N4  UNL     1      15.650  66.076  38.174  1.00  0.00    -0.174 N 
HETATM   16  C8  UNL     1      17.444  66.985  36.932  1.00  0.00     0.111 A 
HETATM   17  C6  UNL     1      16.528  65.610  39.072  1.00  0.00     0.680 A 
ATOM     18  H4  UNL     1      14.653  65.907  38.307  1.00  0.00     0.186 HD
HETATM   19  N6  UNL     1      17.857  65.801  38.948  1.00  0.00    -0.155 N 
HETATM   20  C7  UNL     1      18.303  66.487  37.878  1.00  0.00     0.276 A 
ATOM     21  H6  UNL     1      18.506  65.436  39.645  1.00  0.00     0.187 HD
HETATM   22  O3  UNL     1      19.515  66.655  37.773  1.00  0.00    -0.267 OA
HETATM   23  C9  UNL     1      17.878  67.700  35.827  1.00  0.00     0.120 A 
BRANCH  17  24
HETATM   24  N5  UNL     1      16.025  64.936  40.080  1.00  0.00    -0.234 N 
ATOM     25  H52 UNL     1      16.596  64.678  40.885  1.00  0.00     0.174 HD
ATOM     26  H51 UNL     1      15.041  64.678  40.004  1.00  0.00     0.174 HD
ENDBRANCH  17  24
BRANCH  23  27
HETATM   27  N7  UNL     1      19.224  67.950  35.623  1.00  0.00    -0.207 N 
BRANCH  27  28
HETATM   28  N8  UNL     1      20.109  67.192  34.845  1.00  0.00    -0.324 N 
ATOM     29  H82 UNL     1      20.976  66.918  35.308  1.00  0.00     0.178 HD
ATOM     30  H81 UNL     1      19.975  66.902  33.877  1.00  0.00     0.178 HD
ENDBRANCH  27  28
BRANCH  27  31
HETATM   31  N9  UNL     1      19.785  69.094  36.247  1.00  0.00    -0.324 N 
ATOM     32  H92 UNL     1      19.970  69.884  35.629  1.00  0.00     0.178 HD
ATOM     33  H91 UNL     1      19.955  69.052  37.251  1.00  0.00     0.178 HD
ENDBRANCH  27  31
ENDBRANCH  23  27
ENDBRANCH   6   9
ENDBRANCH   3   6
TORSDOF 8
ENDMDL
MODEL 4
REMARK VINA RESULT: -6.350308798      3.540      5.571
REMARK  8 active torsions:
REMARK  status: ('A' for Active; 'I' for Inactive)
REMARK    1  A    between atoms: C2_3  and  O1_4 
REMARK    2  A    between atoms: C2_3  and  C3_6 
REMARK    3  A    between atoms: C3_6  and  O2_7 
REMARK    4  A    between atoms: C3_6  and  C4_9 
REMARK    5  A    between atoms: C6_17  and  N5_18 
REMARK    6  A    between atoms: C9_26  and  N7_27 
REMARK    7  A    between atoms: N7_27  and  N8_28 
REMARK    8  A    between atoms: N7_27  and  N9_31 
ROOT
HETATM    1  N1  UNL     1      19.334  68.408  38.690  1.00  0.00    -0.194 NA
HETATM    2  C1  UNL     1      19.622  68.171  37.598  1.00  0.00     0.094 C 
HETATM    3  C2  UNL     1      20.000  67.878  36.183  1.00  0.00     0.259 C 
ENDROOT
BRANCH   3   4
HETATM    4  O1  UNL     1      20.084  66.492  36.123  1.00  0.00    -0.378 OA
ATOM      5  H1  UNL     1      20.540  66.315  35.308  1.00  0.00     0.211 HD
ENDBRANCH   3   4
BRANCH   3   6
HETATM    6  C3  UNL     1      18.837  68.397  35.305  1.00  0.00     0.214 C 
BRANCH   6   7
HETATM    7  O2  UNL     1      17.743  67.592  35.742  1.00  0.00    -0.386 OA
ATOM      8  H2  UNL     1      17.733  67.755  36.678  1.00  0.00     0.210 HD
ENDBRANCH   6   7
BRANCH   6   9
HETATM    9  C4  UNL     1      19.040  68.038  33.912  1.00  0.00     0.089 A 
HETATM   10  N2  UNL     1      20.234  67.518  33.549  1.00  0.00    -0.298 N 
HETATM   11  N3  UNL     1      20.446  67.148  32.284  1.00  0.00    -0.284 N 
ATOM     12  H2  UNL     1      20.974  67.407  34.243  1.00  0.00     0.187 HD
HETATM   13  C5  UNL     1      19.494  67.278  31.347  1.00  0.00     0.153 A 
ATOM     14  H3  UNL     1      21.352  66.758  32.023  1.00  0.00     0.188 HD
HETATM   15  N4  UNL     1      19.709  66.908  30.070  1.00  0.00    -0.174 N 
HETATM   16  C8  UNL     1      18.249  67.811  31.695  1.00  0.00     0.111 A 
HETATM   17  C6  UNL     1      18.748  67.051  29.148  1.00  0.00     0.680 A 
ATOM     18  H4  UNL     1      20.612  66.516  29.803  1.00  0.00     0.186 HD
HETATM   19  N6  UNL     1      17.535  67.562  29.444  1.00  0.00    -0.155 N 
HETATM   20  C7  UNL     1      17.297  67.937  30.716  1.00  0.00     0.276 A 
ATOM     21  H6  UNL     1      16.819  67.661  28.725  1.00  0.00     0.187 HD
HETATM   22  O3  UNL     1      16.190  68.400  30.975  1.00  0.00    -0.267 OA
HETATM   23  C9  UNL     1      18.029  68.196  33.008  1.00  0.00     0.120 A 
BRANCH  17  24
HETATM   24  N5  UNL     1      19.044  66.649  27.934  1.00  0.00    -0.234 N 
ATOM     25  H52 UNL     1      18.338  66.238  27.323  1.00  0.00     0.174 HD
ATOM     26  H51 UNL     1      20.016  66.761  27.647  1.00  0.00     0.174 HD
ENDBRANCH  17  24
BRANCH  23  27
HETATM   27  N7  UNL     1      16.817  68.737  33.399  1.00  0.00    -0.207 N 
BRANCH  27  28
HETATM   28  N8  UNL     1      15.688  68.033  33.837  1.00  0.00    -0.324 N 
ATOM     29  H82 UNL     1      15.874  67.254  34.470  1.00  0.00     0.178 HD
ATOM     30  H81 UNL     1      14.718  68.216  33.582  1.00  0.00     0.178 HD
ENDBRANCH  27  28
BRANCH  27  31
HETATM   31  N9  UNL     1      16.685  70.149  33.375  1.00  0.00    -0.324 N 
ATOM     32  H92 UNL     1      17.484  70.671  33.733  1.00  0.00     0.178 HD
ATOM     33  H91 UNL     1      15.820  70.539  33.001  1.00  0.00     0.178 HD
ENDBRANCH  27  31
ENDBRANCH  23  27
ENDBRANCH   6   9
ENDBRANCH   3   6
TORSDOF 8
ENDMDL
MODEL 5
REMARK VINA RESULT: -6.348508635      2.976      6.777
REMARK  8 active torsions:
REMARK  status: ('A' for Active; 'I' for Inactive)
REMARK    1  A    between atoms: C2_3  and  O1_4 
REMARK    2  A    between atoms: C2_3  and  C3_6 
REMARK    3  A    between atoms: C3_6  and  O2_7 
REMARK    4  A    between atoms: C3_6  and  C4_9 
REMARK    5  A    between atoms: C6_17  and  N5_18 
REMARK    6  A    between atoms: C9_26  and  N7_27 
REMARK    7  A    between atoms: N7_27  and  N8_28 
REMARK    8  A    between atoms: N7_27  and  N9_31 
ROOT
HETATM    1  N1  UNL     1      15.554  66.583  30.182  1.00  0.00    -0.194 NA
HETATM    2  C1  UNL     1      16.164  67.560  30.133  1.00  0.00     0.094 C 
HETATM    3  C2  UNL     1      16.965  68.820  30.079  1.00  0.00     0.259 C 
ENDROOT
BRANCH   3   4
HETATM    4  O1  UNL     1      16.421  69.535  29.019  1.00  0.00    -0.378 OA
ATOM      5  H1  UNL     1      16.388  68.911  28.302  1.00  0.00     0.211 HD
ENDBRANCH   3   4
BRANCH   3   6
HETATM    6  C3  UNL     1      16.718  69.552  31.419  1.00  0.00     0.214 C 
BRANCH   6   7
HETATM    7  O2  UNL     1      17.331  70.820  31.191  1.00  0.00    -0.386 OA
ATOM      8  H2  UNL     1      18.163  70.577  30.802  1.00  0.00     0.210 HD
ENDBRANCH   6   7
BRANCH   6   9
HETATM    9  C4  UNL     1      17.490  68.944  32.489  1.00  0.00     0.089 A 
HETATM   10  N2  UNL     1      18.824  68.802  32.320  1.00  0.00    -0.298 N 
HETATM   11  N3  UNL     1      19.570  68.276  33.295  1.00  0.00    -0.284 N 
ATOM     12  H2  UNL     1      19.261  69.098  31.448  1.00  0.00     0.187 HD
HETATM   13  C5  UNL     1      19.027  67.879  34.456  1.00  0.00     0.153 A 
ATOM     14  H3  UNL     1      20.574  68.174  33.154  1.00  0.00     0.188 HD
HETATM   15  N4  UNL     1      19.778  67.346  35.438  1.00  0.00    -0.174 N 
HETATM   16  C8  UNL     1      17.649  68.016  34.659  1.00  0.00     0.111 A 
HETATM   17  C6  UNL     1      19.216  66.950  36.588  1.00  0.00     0.680 A 
ATOM     18  H4  UNL     1      20.784  67.242  35.305  1.00  0.00     0.186 HD
HETATM   19  N6  UNL     1      17.893  67.064  36.821  1.00  0.00    -0.155 N 
HETATM   20  C7  UNL     1      17.122  67.597  35.853  1.00  0.00     0.276 A 
ATOM     21  H6  UNL     1      17.488  66.756  37.704  1.00  0.00     0.187 HD
HETATM   22  O3  UNL     1      15.918  67.698  36.076  1.00  0.00    -0.267 OA
HETATM   23  C9  UNL     1      16.875  68.561  33.647  1.00  0.00     0.120 A 
BRANCH  17  24
HETATM   24  N5  UNL     1      20.030  66.456  37.492  1.00  0.00    -0.234 N 
ATOM     25  H52 UNL     1      20.298  65.471  37.485  1.00  0.00     0.174 HD
ATOM     26  H51 UNL     1      20.365  67.108  38.201  1.00  0.00     0.174 HD
ENDBRANCH  17  24
BRANCH  23  27
HETATM   27  N7  UNL     1      15.508  68.709  33.797  1.00  0.00    -0.207 N 
BRANCH  27  28
HETATM   28  N8  UNL     1      14.837  69.824  34.318  1.00  0.00    -0.324 N 
ATOM     29  H82 UNL     1      15.377  70.397  34.967  1.00  0.00     0.178 HD
ATOM     30  H81 UNL     1      13.878  70.106  34.120  1.00  0.00     0.178 HD
ENDBRANCH  27  28
BRANCH  27  31
HETATM   31  N9  UNL     1      14.677  67.640  33.374  1.00  0.00    -0.324 N 
ATOM     32  H92 UNL     1      14.792  67.353  32.402  1.00  0.00     0.178 HD
ATOM     33  H91 UNL     1      14.040  67.234  34.059  1.00  0.00     0.178 HD
ENDBRANCH  27  31
ENDBRANCH  23  27
ENDBRANCH   6   9
ENDBRANCH   3   6
TORSDOF 8
ENDMDL
