MODEL 1
REMARK VINA RESULT: -8.263572889      0.000      0.000
REMARK  3 active torsions:
REMARK  status: ('A' for Active; 'I' for Inactive)
REMARK    1  A    between atoms: N1_1  and  C1_4 
REMARK    2  A    between atoms: C5_15  and  C6_16 
REMARK    3  A    between atoms: C7_20  and  C8_21 
ROOT
HETATM    1  C1  UNL     1      19.792  67.941  36.107  1.00  0.00     0.146 A 
HETATM    2  N2  UNL     1      19.946  67.362  37.313  1.00  0.00    -0.335 N 
ATOM      3  H2  UNL     1      20.866  67.276  37.744  1.00  0.00     0.168 HD
HETATM    4  C2  UNL     1      18.842  66.901  37.929  1.00  0.00     0.199 A 
HETATM    5  N3  UNL     1      17.607  67.003  37.377  1.00  0.00    -0.285 N 
ATOM      6  H3  UNL     1      16.797  66.639  37.878  1.00  0.00     0.188 HD
HETATM    7  N4  UNL     1      17.444  67.574  36.186  1.00  0.00    -0.197 N 
HETATM    8  C3  UNL     1      16.194  67.656  35.670  1.00  0.00     0.294 A 
HETATM    9  O1  UNL     1      15.191  67.216  36.273  1.00  0.00    -0.264 OA
HETATM   10  C4  UNL     1      16.040  68.255  34.425  1.00  0.00     0.141 A 
HETATM   11  N5  UNL     1      14.775  68.392  33.797  1.00  0.00    -0.094 NA
HETATM   12  C5  UNL     1      17.150  68.737  33.769  1.00  0.00     0.081 A 
HETATM   13  N8  UNL     1      18.367  68.634  34.320  1.00  0.00    -0.337 N 
ATOM     14  H8  UNL     1      19.181  68.995  33.822  1.00  0.00     0.167 HD
HETATM   15  C10 UNL     1      18.523  68.052  35.530  1.00  0.00     0.175 A 
ENDROOT
BRANCH  12  16
HETATM   16  C6  UNL     1      17.026  69.375  32.455  1.00  0.00     0.331 C 
HETATM   17  N6  UNL     1      16.153  70.500  32.391  1.00  0.00    -0.026 N 
HETATM   18  C7  UNL     1      15.333  70.385  31.217  1.00  0.00     0.389 C 
ATOM     19  H62 UNL     1      15.601  70.615  33.242  1.00  0.00     0.281 HD
ATOM     20  H61 UNL     1      16.656  71.386  32.428  1.00  0.00     0.281 HD
HETATM   21  N7  UNL     1      15.796  69.218  30.493  1.00  0.00    -0.323 N 
HETATM   22  C9  UNL     1      16.522  68.419  31.419  1.00  0.00     0.256 C 
ATOM     23  H7  UNL     1      15.633  69.009  29.508  1.00  0.00     0.165 HD
HETATM   24  O4  UNL     1      16.690  67.168  31.357  1.00  0.00    -0.271 OA
BRANCH  18  25
HETATM   25  C8  UNL     1      15.448  71.543  30.314  1.00  0.00     0.225 C 
HETATM   26  O2  UNL     1      16.372  71.592  29.483  1.00  0.00    -0.645 OA
HETATM   27  O3  UNL     1      14.536  72.567  30.389  1.00  0.00    -0.645 OA
ENDBRANCH  18  25
ENDBRANCH  12  16
BRANCH   1  28
HETATM   28  N1  UNL     1      20.808  68.406  35.461  1.00  0.00    -0.382 N 
ATOM     29  H12 UNL     1      21.595  67.785  35.275  1.00  0.00     0.157 HD
ATOM     30  H11 UNL     1      20.826  69.374  35.141  1.00  0.00     0.157 HD
ENDBRANCH   1  28
TORSDOF 3
ENDMDL
MODEL 2
REMARK VINA RESULT: -7.917339320      0.937      1.056
REMARK  3 active torsions:
REMARK  status: ('A' for Active; 'I' for Inactive)
REMARK    1  A    between atoms: N1_1  and  C1_4 
REMARK    2  A    between atoms: C5_15  and  C6_16 
REMARK    3  A    between atoms: C7_20  and  C8_21 
ROOT
HETATM    1  C1  UNL     1      19.668  68.048  36.198  1.00  0.00     0.146 A 
HETATM    2  N2  UNL     1      19.719  67.465  37.411  1.00  0.00    -0.335 N 
ATOM      3  H2  UNL     1      20.593  67.406  37.933  1.00  0.00     0.168 HD
HETATM    4  C2  UNL     1      18.575  66.962  37.910  1.00  0.00     0.199 A 
HETATM    5  N3  UNL     1      17.399  67.027  37.236  1.00  0.00    -0.285 N 
ATOM      6  H3  UNL     1      16.556  66.632  37.651  1.00  0.00     0.188 HD
HETATM    7  N4  UNL     1      17.338  67.602  36.038  1.00  0.00    -0.197 N 
HETATM    8  C3  UNL     1      16.144  67.647  35.399  1.00  0.00     0.294 A 
HETATM    9  O1  UNL     1      15.101  67.168  35.895  1.00  0.00    -0.264 OA
HETATM   10  C4  UNL     1      16.097  68.250  34.147  1.00  0.00     0.141 A 
HETATM   11  N5  UNL     1      14.898  68.350  33.395  1.00  0.00    -0.094 NA
HETATM   12  C5  UNL     1      17.250  68.775  33.609  1.00  0.00     0.081 A 
HETATM   13  N8  UNL     1      18.408  68.707  34.279  1.00  0.00    -0.337 N 
ATOM     14  H8  UNL     1      19.255  69.099  33.869  1.00  0.00     0.167 HD
HETATM   15  C10 UNL     1      18.461  68.121  35.497  1.00  0.00     0.175 A 
ENDROOT
BRANCH  12  16
HETATM   16  C6  UNL     1      17.238  69.418  32.292  1.00  0.00     0.331 C 
HETATM   17  N6  UNL     1      15.954  69.783  31.791  1.00  0.00    -0.026 N 
HETATM   18  C7  UNL     1      15.867  69.396  30.411  1.00  0.00     0.389 C 
ATOM     19  H62 UNL     1      15.193  69.399  32.352  1.00  0.00     0.281 HD
ATOM     20  H61 UNL     1      15.748  70.772  31.932  1.00  0.00     0.281 HD
HETATM   21  N7  UNL     1      17.169  68.883  30.034  1.00  0.00    -0.323 N 
HETATM   22  C9  UNL     1      17.841  68.541  31.240  1.00  0.00     0.256 C 
ATOM     23  H7  UNL     1      17.534  68.787  29.086  1.00  0.00     0.165 HD
HETATM   24  O4  UNL     1      18.753  67.674  31.368  1.00  0.00    -0.271 OA
BRANCH  18  25
HETATM   25  C8  UNL     1      15.555  70.520  29.512  1.00  0.00     0.225 C 
HETATM   26  O2  UNL     1      14.507  70.506  28.843  1.00  0.00    -0.645 OA
HETATM   27  O3  UNL     1      16.419  71.583  29.413  1.00  0.00    -0.645 OA
ENDBRANCH  18  25
ENDBRANCH  12  16
BRANCH   1  28
HETATM   28  N1  UNL     1      20.728  68.552  35.661  1.00  0.00    -0.382 N 
ATOM     29  H12 UNL     1      21.537  68.736  36.253  1.00  0.00     0.157 HD
ATOM     30  H11 UNL     1      20.759  68.761  34.663  1.00  0.00     0.157 HD
ENDBRANCH   1  28
TORSDOF 3
ENDMDL
MODEL 3
REMARK VINA RESULT: -7.907490074      1.745      2.670
REMARK  3 active torsions:
REMARK  status: ('A' for Active; 'I' for Inactive)
REMARK    1  A    between atoms: N1_1  and  C1_4 
REMARK    2  A    between atoms: C5_15  and  C6_16 
REMARK    3  A    between atoms: C7_20  and  C8_21 
ROOT
HETATM    1  C1  UNL     1      16.155  67.234  37.038  1.00  0.00     0.146 A 
HETATM    2  N2  UNL     1      16.636  66.689  38.172  1.00  0.00    -0.335 N 
ATOM      3  H2  UNL     1      16.026  66.502  38.968  1.00  0.00     0.168 HD
HETATM    4  C2  UNL     1      17.950  66.402  38.218  1.00  0.00     0.199 A 
HETATM    5  N3  UNL     1      18.781  66.642  37.173  1.00  0.00    -0.285 N 
ATOM      6  H3  UNL     1      19.771  66.409  37.251  1.00  0.00     0.188 HD
HETATM    7  N4  UNL     1      18.316  67.179  36.048  1.00  0.00    -0.197 N 
HETATM    8  C3  UNL     1      19.180  67.402  35.029  1.00  0.00     0.294 A 
HETATM    9  O1  UNL     1      20.396  67.121  35.108  1.00  0.00    -0.264 OA
HETATM   10  C4  UNL     1      18.678  67.964  33.860  1.00  0.00     0.141 A 
HETATM   11  N5  UNL     1      19.498  68.237  32.734  1.00  0.00    -0.094 NA
HETATM   12  C5  UNL     1      17.339  68.269  33.781  1.00  0.00     0.081 A 
HETATM   13  N8  UNL     1      16.522  68.030  34.816  1.00  0.00    -0.337 N 
ATOM     14  H8  UNL     1      15.532  68.262  34.745  1.00  0.00     0.167 HD
HETATM   15  C10 UNL     1      17.004  67.484  35.955  1.00  0.00     0.175 A 
ENDROOT
BRANCH  12  16
HETATM   16  C6  UNL     1      16.775  68.863  32.566  1.00  0.00     0.331 C 
HETATM   17  N6  UNL     1      16.796  70.288  32.504  1.00  0.00    -0.026 N 
HETATM   18  C7  UNL     1      15.522  70.750  32.029  1.00  0.00     0.389 C 
ATOM     19  H62 UNL     1      17.058  70.713  33.394  1.00  0.00     0.281 HD
ATOM     20  H61 UNL     1      17.572  70.642  31.944  1.00  0.00     0.281 HD
HETATM   21  N7  UNL     1      14.746  69.574  31.690  1.00  0.00    -0.323 N 
HETATM   22  C9  UNL     1      15.342  68.477  32.372  1.00  0.00     0.256 C 
ATOM     23  H7  UNL     1      13.930  69.539  31.079  1.00  0.00     0.165 HD
HETATM   24  O4  UNL     1      14.761  67.412  32.727  1.00  0.00    -0.271 OA
BRANCH  18  25
HETATM   25  C8  UNL     1      15.622  71.582  30.818  1.00  0.00     0.225 C 
HETATM   26  O2  UNL     1      16.608  71.469  30.068  1.00  0.00    -0.645 OA
HETATM   27  O3  UNL     1      14.629  72.481  30.515  1.00  0.00    -0.645 OA
ENDBRANCH  18  25
ENDBRANCH  12  16
BRANCH   1  28
HETATM   28  N1  UNL     1      14.905  67.534  36.926  1.00  0.00    -0.382 N 
ATOM     29  H12 UNL     1      14.567  68.392  37.360  1.00  0.00     0.157 HD
ATOM     30  H11 UNL     1      14.265  66.927  36.413  1.00  0.00     0.157 HD
ENDBRANCH   1  28
TORSDOF 3
ENDMDL
MODEL 4
REMARK VINA RESULT: -7.865610436      1.519      2.208
REMARK  3 active torsions:
REMARK  status: ('A' for Active; 'I' for Inactive)
REMARK    1  A    between atoms: N1_1  and  C1_4 
REMARK    2  A    between atoms: C5_15  and  C6_16 
REMARK    3  A    between atoms: C7_20  and  C8_21 
ROOT
HETATM    1  C1  UNL     1      19.643  67.978  36.165  1.00  0.00     0.146 A 
HETATM    2  N2  UNL     1      20.004  67.709  37.434  1.00  0.00    -0.335 N 
ATOM      3  H2  UNL     1      20.974  67.798  37.738  1.00  0.00     0.168 HD
HETATM    4  C2  UNL     1      19.040  67.317  38.288  1.00  0.00     0.199 A 
HETATM    5  N3  UNL     1      17.744  67.191  37.909  1.00  0.00    -0.285 N 
ATOM      6  H3  UNL     1      17.045  66.891  38.588  1.00  0.00     0.188 HD
HETATM    7  N4  UNL     1      17.376  67.456  36.657  1.00  0.00    -0.197 N 
HETATM    8  C3  UNL     1      16.072  67.317  36.320  1.00  0.00     0.294 A 
HETATM    9  O1  UNL     1      15.203  66.951  37.142  1.00  0.00    -0.264 OA
HETATM   10  C4  UNL     1      15.704  67.597  35.008  1.00  0.00     0.141 A 
HETATM   11  N5  UNL     1      14.364  67.484  34.554  1.00  0.00    -0.094 NA
HETATM   12  C5  UNL     1      16.666  67.999  34.111  1.00  0.00     0.081 A 
HETATM   13  N8  UNL     1      17.945  68.122  34.492  1.00  0.00    -0.337 N 
ATOM     14  H8  UNL     1      18.648  68.421  33.816  1.00  0.00     0.167 HD
HETATM   15  C10 UNL     1      18.309  67.852  35.766  1.00  0.00     0.175 A 
ENDROOT
BRANCH  12  16
HETATM   16  C6  UNL     1      16.315  68.302  32.721  1.00  0.00     0.331 C 
HETATM   17  N6  UNL     1      17.121  67.673  31.727  1.00  0.00    -0.026 N 
HETATM   18  C7  UNL     1      17.461  68.643  30.723  1.00  0.00     0.389 C 
ATOM     19  H62 UNL     1      17.944  67.217  32.123  1.00  0.00     0.281 HD
ATOM     20  H61 UNL     1      16.677  66.844  31.333  1.00  0.00     0.281 HD
HETATM   21  N7  UNL     1      16.753  69.862  31.058  1.00  0.00    -0.323 N 
HETATM   22  C9  UNL     1      16.400  69.768  32.433  1.00  0.00     0.256 C 
ATOM     23  H7  UNL     1      16.547  70.638  30.430  1.00  0.00     0.165 HD
HETATM   24  O4  UNL     1      16.204  70.736  33.223  1.00  0.00    -0.271 OA
BRANCH  18  25
HETATM   25  C8  UNL     1      17.044  68.245  29.368  1.00  0.00     0.225 C 
HETATM   26  O2  UNL     1      16.842  69.113  28.501  1.00  0.00    -0.645 OA
HETATM   27  O3  UNL     1      16.877  66.916  29.061  1.00  0.00    -0.645 OA
ENDBRANCH  18  25
ENDBRANCH  12  16
BRANCH   1  28
HETATM   28  N1  UNL     1      20.516  68.359  35.294  1.00  0.00    -0.382 N 
ATOM     29  H12 UNL     1      20.314  68.219  34.305  1.00  0.00     0.157 HD
ATOM     30  H11 UNL     1      21.392  68.791  35.587  1.00  0.00     0.157 HD
ENDBRANCH   1  28
TORSDOF 3
ENDMDL
MODEL 5
REMARK VINA RESULT: -7.861946987      2.696      6.170
REMARK  3 active torsions:
REMARK  status: ('A' for Active; 'I' for Inactive)
REMARK    1  A    between atoms: N1_1  and  C1_4 
REMARK    2  A    between atoms: C5_15  and  C6_16 
REMARK    3  A    between atoms: C7_20  and  C8_21 
ROOT
HETATM    1  C1  UNL     1      19.472  66.716  30.605  1.00  0.00     0.146 A 
HETATM    2  N2  UNL     1      19.422  66.546  29.269  1.00  0.00    -0.335 N 
ATOM      3  H2  UNL     1      20.051  65.899  28.795  1.00  0.00     0.168 HD
HETATM    4  C2  UNL     1      18.511  67.261  28.583  1.00  0.00     0.199 A 
HETATM    5  N3  UNL     1      17.663  68.128  29.191  1.00  0.00    -0.285 N 
ATOM      6  H3  UNL     1      16.989  68.651  28.632  1.00  0.00     0.188 HD
HETATM    7  N4  UNL     1      17.704  68.303  30.509  1.00  0.00    -0.197 N 
HETATM    8  C3  UNL     1      16.839  69.178  31.076  1.00  0.00     0.294 A 
HETATM    9  O1  UNL     1      16.006  69.825  30.405  1.00  0.00    -0.264 OA
HETATM   10  C4  UNL     1      16.895  69.350  32.455  1.00  0.00     0.141 A 
HETATM   11  N5  UNL     1      16.034  70.241  33.146  1.00  0.00    -0.094 NA
HETATM   12  C5  UNL     1      17.815  68.633  33.185  1.00  0.00     0.081 A 
HETATM   13  N8  UNL     1      18.650  67.778  32.580  1.00  0.00    -0.337 N 
ATOM     14  H8  UNL     1      19.327  67.253  33.133  1.00  0.00     0.167 HD
HETATM   15  C10 UNL     1      18.601  67.607  31.239  1.00  0.00     0.175 A 
ENDROOT
BRANCH  12  16
HETATM   16  C6  UNL     1      17.903  68.788  34.640  1.00  0.00     0.331 C 
HETATM   17  N6  UNL     1      19.200  68.611  35.205  1.00  0.00    -0.026 N 
HETATM   18  C7  UNL     1      19.086  67.791  36.379  1.00  0.00     0.389 C 
ATOM     19  H62 UNL     1      19.871  68.238  34.533  1.00  0.00     0.281 HD
ATOM     20  H61 UNL     1      19.667  69.497  35.394  1.00  0.00     0.281 HD
HETATM   21  N7  UNL     1      17.672  67.556  36.594  1.00  0.00    -0.323 N 
HETATM   22  C9  UNL     1      17.019  67.816  35.357  1.00  0.00     0.256 C 
ATOM     23  H7  UNL     1      17.229  67.262  37.464  1.00  0.00     0.165 HD
HETATM   24  O4  UNL     1      15.923  67.318  34.970  1.00  0.00    -0.271 OA
BRANCH  18  25
HETATM   25  C8  UNL     1      19.618  68.436  37.591  1.00  0.00     0.225 C 
HETATM   26  O2  UNL     1      19.378  67.949  38.710  1.00  0.00    -0.645 OA
HETATM   27  O3  UNL     1      20.378  69.576  37.487  1.00  0.00    -0.645 OA
ENDBRANCH  18  25
ENDBRANCH  12  16
BRANCH   1  28
HETATM   28  N1  UNL     1      20.321  66.062  31.324  1.00  0.00    -0.382 N 
ATOM     29  H12 UNL     1      21.262  66.437  31.432  1.00  0.00     0.157 HD
ATOM     30  H11 UNL     1      20.057  65.187  31.777  1.00  0.00     0.157 HD
ENDBRANCH   1  28
TORSDOF 3
ENDMDL
