MODEL 1
REMARK VINA RESULT: -6.728532636      0.000      0.000
REMARK  2 active torsions:
REMARK  status: ('A' for Active; 'I' for Inactive)
REMARK    1  A    between atoms: C6_14  and  N7_15 
REMARK    2  A    between atoms: C6_14  and  C8_22 
REMARK       I    between atoms: N7_15  and  C7_17 
ROOT
HETATM    1  N1  UNL     1     -68.578  16.299  49.143  1.00  0.00    -0.195 NA
HETATM    2  C1  UNL     1     -67.682  15.854  49.681  1.00  0.00     0.097 C 
HETATM    3  C2  UNL     1     -66.534  15.272  50.339  1.00  0.00     0.241 C 
HETATM    4  C3  UNL     1     -66.049  14.109  49.472  1.00  0.00     0.097 C 
HETATM    5  N2  UNL     1     -65.710  13.223  48.791  1.00  0.00    -0.195 NA
HETATM    6  C4  UNL     1     -67.022  14.464  51.511  1.00  0.00     0.137 C 
HETATM    7  N3  UNL     1     -68.327  13.878  51.419  1.00  0.00    -0.084 NA
HETATM    8  N4  UNL     1     -66.371  14.338  52.578  1.00  0.00    -0.320 N 
ATOM      9  H4  UNL     1     -66.746  13.749  53.322  1.00  0.00     0.169 HD
HETATM   10  C5  UNL     1     -65.144  14.984  52.772  1.00  0.00     0.191 C 
HETATM   11  N5  UNL     1     -64.351  14.752  53.928  1.00  0.00    -0.063 NA
HETATM   12  N6  UNL     1     -64.717  15.769  51.880  1.00  0.00    -0.330 N 
ATOM     13  H6  UNL     1     -63.807  16.202  52.040  1.00  0.00     0.165 HD
HETATM   14  C6  UNL     1     -65.393  16.104  50.665  1.00  0.00     0.193 C 
ENDROOT
BRANCH  14  15
HETATM   15  N7  UNL     1     -66.072  17.429  51.020  1.00  0.00    -0.330 N 
HETATM   16  C7  UNL     1     -65.431  18.485  51.698  1.00  0.00     0.184 C 
HETATM   17  N8  UNL     1     -65.489  18.652  52.957  1.00  0.00    -0.374 N 
HETATM   18  N9  UNL     1     -64.685  19.448  50.972  1.00  0.00    -0.064 NA
ATOM     19  H82 UNL     1     -66.026  17.960  53.479  1.00  0.00     0.158 HD
ATOM     20  H81 UNL     1     -65.025  19.416  53.447  1.00  0.00     0.158 HD
ATOM     21  H7  UNL     1     -67.047  17.556  50.749  1.00  0.00     0.165 HD
ENDBRANCH  14  15
BRANCH  14  22
HETATM   22  C8  UNL     1     -64.367  16.398  49.640  1.00  0.00     0.061 A 
HETATM   23  C9  UNL     1     -63.098  15.866  49.605  1.00  0.00     0.029 A 
HETATM   24  C10 UNL     1     -62.199  16.217  48.569  1.00  0.00     0.003 A 
HETATM   25  C11 UNL     1     -62.615  17.096  47.611  1.00  0.00     0.017 A 
HETATM   26  C12 UNL     1     -63.869  17.615  47.660  1.00  0.00     0.088 A 
HETATM   27  N10 UNL     1     -64.691  17.252  48.653  1.00  0.00    -0.366 N 
ATOM     28  H10 UNL     1     -65.629  17.651  48.661  1.00  0.00     0.165 HD
ENDBRANCH  14  22
TORSDOF 2
ENDMDL
MODEL 2
REMARK VINA RESULT: -6.600367818      1.643      4.098
REMARK  2 active torsions:
REMARK  status: ('A' for Active; 'I' for Inactive)
REMARK    1  A    between atoms: C6_14  and  N7_15 
REMARK    2  A    between atoms: C6_14  and  C8_22 
REMARK       I    between atoms: N7_15  and  C7_17 
ROOT
HETATM    1  N1  UNL     1     -62.980  14.356  52.026  1.00  0.00    -0.195 NA
HETATM    2  C1  UNL     1     -63.834  15.011  51.661  1.00  0.00     0.097 C 
HETATM    3  C2  UNL     1     -64.909  15.868  51.215  1.00  0.00     0.241 C 
HETATM    4  C3  UNL     1     -64.966  17.064  52.166  1.00  0.00     0.097 C 
HETATM    5  N2  UNL     1     -64.988  17.960  52.915  1.00  0.00    -0.195 NA
HETATM    6  C4  UNL     1     -66.214  15.230  51.609  1.00  0.00     0.137 C 
HETATM    7  N3  UNL     1     -66.225  14.405  52.781  1.00  0.00    -0.084 NA
HETATM    8  N4  UNL     1     -67.264  15.335  50.927  1.00  0.00    -0.320 N 
ATOM      9  H4  UNL     1     -68.123  14.904  51.268  1.00  0.00     0.169 HD
HETATM   10  C5  UNL     1     -67.285  16.030  49.711  1.00  0.00     0.191 C 
HETATM   11  N5  UNL     1     -68.493  16.249  48.996  1.00  0.00    -0.063 NA
HETATM   12  N6  UNL     1     -66.206  16.501  49.256  1.00  0.00    -0.330 N 
ATOM     13  H6  UNL     1     -66.261  17.024  48.382  1.00  0.00     0.165 HD
HETATM   14  C6  UNL     1     -64.914  16.367  49.855  1.00  0.00     0.193 C 
ENDROOT
BRANCH  14  15
HETATM   15  N7  UNL     1     -64.318  15.182  49.091  1.00  0.00    -0.330 N 
HETATM   16  C7  UNL     1     -65.037  14.398  48.168  1.00  0.00     0.184 C 
HETATM   17  N8  UNL     1     -65.622  13.311  48.471  1.00  0.00    -0.374 N 
HETATM   18  N9  UNL     1     -65.123  14.797  46.810  1.00  0.00    -0.064 NA
ATOM     19  H82 UNL     1     -65.560  13.023  49.448  1.00  0.00     0.158 HD
ATOM     20  H81 UNL     1     -66.142  12.743  47.803  1.00  0.00     0.158 HD
ATOM     21  H7  UNL     1     -63.340  14.946  49.261  1.00  0.00     0.165 HD
ENDBRANCH  14  15
BRANCH  14  22
HETATM   22  C8  UNL     1     -64.121  17.563  49.495  1.00  0.00     0.061 A 
HETATM   23  C9  UNL     1     -62.972  17.561  48.738  1.00  0.00     0.029 A 
HETATM   24  C10 UNL     1     -62.296  18.772  48.452  1.00  0.00     0.003 A 
HETATM   25  C11 UNL     1     -62.806  19.939  48.945  1.00  0.00     0.017 A 
HETATM   26  C12 UNL     1     -63.939  19.925  49.693  1.00  0.00     0.088 A 
HETATM   27  N10 UNL     1     -64.551  18.759  49.935  1.00  0.00    -0.366 N 
ATOM     28  H10 UNL     1     -65.404  18.779  50.493  1.00  0.00     0.165 HD
ENDBRANCH  14  22
TORSDOF 2
ENDMDL
MODEL 3
REMARK VINA RESULT: -6.352749145      1.685      2.899
REMARK  2 active torsions:
REMARK  status: ('A' for Active; 'I' for Inactive)
REMARK    1  A    between atoms: C6_14  and  N7_15 
REMARK    2  A    between atoms: C6_14  and  C8_22 
REMARK       I    between atoms: N7_15  and  C7_17 
ROOT
HETATM    1  N1  UNL     1     -68.500  16.404  49.163  1.00  0.00    -0.195 NA
HETATM    2  C1  UNL     1     -67.416  16.068  49.110  1.00  0.00     0.097 C 
HETATM    3  C2  UNL     1     -66.032  15.658  49.017  1.00  0.00     0.241 C 
HETATM    4  C3  UNL     1     -65.543  16.013  47.612  1.00  0.00     0.097 C 
HETATM    5  N2  UNL     1     -65.204  16.289  46.529  1.00  0.00    -0.195 NA
HETATM    6  C4  UNL     1     -65.993  14.160  48.875  1.00  0.00     0.137 C 
HETATM    7  N3  UNL     1     -67.107  13.523  48.236  1.00  0.00    -0.084 NA
HETATM    8  N4  UNL     1     -65.071  13.449  49.346  1.00  0.00    -0.320 N 
ATOM      9  H4  UNL     1     -65.089  12.442  49.187  1.00  0.00     0.169 HD
HETATM   10  C5  UNL     1     -64.018  14.004  50.084  1.00  0.00     0.191 C 
HETATM   11  N5  UNL     1     -62.915  13.220  50.518  1.00  0.00    -0.063 NA
HETATM   12  N6  UNL     1     -64.034  15.240  50.341  1.00  0.00    -0.330 N 
ATOM     13  H6  UNL     1     -63.239  15.617  50.857  1.00  0.00     0.165 HD
HETATM   14  C6  UNL     1     -65.067  16.159  49.975  1.00  0.00     0.193 C 
ENDROOT
BRANCH  14  15
HETATM   15  N7  UNL     1     -65.911  16.233  51.250  1.00  0.00    -0.330 N 
HETATM   16  C7  UNL     1     -65.702  15.418  52.380  1.00  0.00     0.184 C 
HETATM   17  N8  UNL     1     -66.323  14.328  52.587  1.00  0.00    -0.374 N 
HETATM   18  N9  UNL     1     -64.771  15.807  53.375  1.00  0.00    -0.064 NA
ATOM     19  H82 UNL     1     -66.993  14.047  51.872  1.00  0.00     0.158 HD
ATOM     20  H81 UNL     1     -66.171  13.738  53.406  1.00  0.00     0.158 HD
ATOM     21  H7  UNL     1     -66.670  16.913  51.283  1.00  0.00     0.165 HD
ENDBRANCH  14  15
BRANCH  14  22
HETATM   22  C8  UNL     1     -64.446  17.488  49.783  1.00  0.00     0.061 A 
HETATM   23  C9  UNL     1     -64.828  18.646  50.421  1.00  0.00     0.029 A 
HETATM   24  C10 UNL     1     -64.154  19.865  50.162  1.00  0.00     0.003 A 
HETATM   25  C11 UNL     1     -63.124  19.867  49.267  1.00  0.00     0.017 A 
HETATM   26  C12 UNL     1     -62.760  18.716  48.643  1.00  0.00     0.088 A 
HETATM   27  N10 UNL     1     -63.418  17.584  48.921  1.00  0.00    -0.366 N 
ATOM     28  H10 UNL     1     -63.120  16.734  48.444  1.00  0.00     0.165 HD
ENDBRANCH  14  22
TORSDOF 2
ENDMDL
MODEL 4
REMARK VINA RESULT: -6.085766614      2.355      4.855
REMARK  2 active torsions:
REMARK  status: ('A' for Active; 'I' for Inactive)
REMARK    1  A    between atoms: C6_14  and  N7_15 
REMARK    2  A    between atoms: C6_14  and  C8_22 
REMARK       I    between atoms: N7_15  and  C7_17 
ROOT
HETATM    1  N1  UNL     1     -65.571  13.073  55.539  1.00  0.00    -0.195 NA
HETATM    2  C1  UNL     1     -64.951  13.833  54.966  1.00  0.00     0.097 C 
HETATM    3  C2  UNL     1     -64.137  14.779  54.235  1.00  0.00     0.241 C 
HETATM    4  C3  UNL     1     -62.699  14.259  54.255  1.00  0.00     0.097 C 
HETATM    5  N2  UNL     1     -61.610  13.838  54.297  1.00  0.00    -0.195 NA
HETATM    6  C4  UNL     1     -63.929  15.991  55.103  1.00  0.00     0.137 C 
HETATM    7  N3  UNL     1     -63.930  15.801  56.523  1.00  0.00    -0.084 NA
HETATM    8  N4  UNL     1     -63.823  17.155  54.643  1.00  0.00    -0.320 N 
ATOM      9  H4  UNL     1     -63.652  17.929  55.285  1.00  0.00     0.169 HD
HETATM   10  C5  UNL     1     -63.935  17.418  53.272  1.00  0.00     0.191 C 
HETATM   11  N5  UNL     1     -63.701  18.714  52.738  1.00  0.00    -0.063 NA
HETATM   12  N6  UNL     1     -64.218  16.471  52.488  1.00  0.00    -0.330 N 
ATOM     13  H6  UNL     1     -64.265  16.691  51.493  1.00  0.00     0.165 HD
HETATM   14  C6  UNL     1     -64.480  15.118  52.868  1.00  0.00     0.193 C 
ENDROOT
BRANCH  14  15
HETATM   15  N7  UNL     1     -66.009  15.078  52.917  1.00  0.00    -0.330 N 
HETATM   16  C7  UNL     1     -66.834  15.096  51.774  1.00  0.00     0.184 C 
HETATM   17  N8  UNL     1     -67.340  16.156  51.287  1.00  0.00    -0.374 N 
HETATM   18  N9  UNL     1     -67.158  13.885  51.112  1.00  0.00    -0.064 NA
ATOM     19  H82 UNL     1     -67.106  17.027  51.763  1.00  0.00     0.158 HD
ATOM     20  H81 UNL     1     -67.936  16.169  50.460  1.00  0.00     0.158 HD
ATOM     21  H7  UNL     1     -66.458  15.036  53.831  1.00  0.00     0.165 HD
ENDBRANCH  14  15
BRANCH  14  22
HETATM   22  C8  UNL     1     -64.055  14.242  51.753  1.00  0.00     0.061 A 
HETATM   23  C9  UNL     1     -63.420  14.662  50.606  1.00  0.00     0.029 A 
HETATM   24  C10 UNL     1     -63.054  13.730  49.605  1.00  0.00     0.003 A 
HETATM   25  C11 UNL     1     -63.346  12.411  49.799  1.00  0.00     0.017 A 
HETATM   26  C12 UNL     1     -63.975  12.012  50.935  1.00  0.00     0.088 A 
HETATM   27  N10 UNL     1     -64.298  12.924  51.860  1.00  0.00    -0.366 N 
ATOM     28  H10 UNL     1     -64.763  12.596  52.707  1.00  0.00     0.165 HD
ENDBRANCH  14  22
TORSDOF 2
ENDMDL
MODEL 5
REMARK VINA RESULT: -6.057640294      1.729      4.273
REMARK  2 active torsions:
REMARK  status: ('A' for Active; 'I' for Inactive)
REMARK    1  A    between atoms: C6_14  and  N7_15 
REMARK    2  A    between atoms: C6_14  and  C8_22 
REMARK       I    between atoms: N7_15  and  C7_17 
ROOT
HETATM    1  N1  UNL     1     -62.601  13.818  50.996  1.00  0.00    -0.195 NA
HETATM    2  C1  UNL     1     -63.632  14.286  51.090  1.00  0.00     0.097 C 
HETATM    3  C2  UNL     1     -64.943  14.876  51.240  1.00  0.00     0.241 C 
HETATM    4  C3  UNL     1     -65.481  14.454  52.608  1.00  0.00     0.097 C 
HETATM    5  N2  UNL     1     -65.866  14.108  53.655  1.00  0.00    -0.195 NA
HETATM    6  C4  UNL     1     -65.911  14.096  50.391  1.00  0.00     0.137 C 
HETATM    7  N3  UNL     1     -65.631  12.709  50.166  1.00  0.00    -0.084 NA
HETATM    8  N4  UNL     1     -66.903  14.619  49.823  1.00  0.00    -0.320 N 
ATOM      9  H4  UNL     1     -67.537  14.026  49.287  1.00  0.00     0.169 HD
HETATM   10  C5  UNL     1     -67.160  15.993  49.908  1.00  0.00     0.191 C 
HETATM   11  N5  UNL     1     -68.341  16.567  49.366  1.00  0.00    -0.063 NA
HETATM   12  N6  UNL     1     -66.335  16.734  50.511  1.00  0.00    -0.330 N 
ATOM     13  H6  UNL     1     -66.566  17.726  50.578  1.00  0.00     0.165 HD
HETATM   14  C6  UNL     1     -65.107  16.310  51.109  1.00  0.00     0.193 C 
ENDROOT
BRANCH  14  15
HETATM   15  N7  UNL     1     -64.081  16.636  50.021  1.00  0.00    -0.330 N 
HETATM   16  C7  UNL     1     -64.357  17.430  48.890  1.00  0.00     0.184 C 
HETATM   17  N8  UNL     1     -64.709  16.955  47.765  1.00  0.00    -0.374 N 
HETATM   18  N9  UNL     1     -64.231  18.841  48.963  1.00  0.00    -0.064 NA
ATOM     19  H82 UNL     1     -64.801  15.941  47.712  1.00  0.00     0.158 HD
ATOM     20  H81 UNL     1     -64.910  17.531  46.947  1.00  0.00     0.158 HD
ATOM     21  H7  UNL     1     -63.139  16.256  50.121  1.00  0.00     0.165 HD
ENDBRANCH  14  15
BRANCH  14  22
HETATM   22  C8  UNL     1     -64.828  17.201  52.256  1.00  0.00     0.061 A 
HETATM   23  C9  UNL     1     -63.755  17.090  53.111  1.00  0.00     0.029 A 
HETATM   24  C10 UNL     1     -63.585  18.007  54.176  1.00  0.00     0.003 A 
HETATM   25  C11 UNL     1     -64.509  18.999  54.339  1.00  0.00     0.017 A 
HETATM   26  C12 UNL     1     -65.564  19.095  53.490  1.00  0.00     0.088 A 
HETATM   27  N10 UNL     1     -65.684  18.211  52.491  1.00  0.00    -0.366 N 
ATOM     28  H10 UNL     1     -66.482  18.311  51.864  1.00  0.00     0.165 HD
ENDBRANCH  14  22
TORSDOF 2
ENDMDL
