MODEL 1
REMARK VINA RESULT: -6.681298066      0.000      0.000
REMARK  4 active torsions:
REMARK  status: ('A' for Active; 'I' for Inactive)
REMARK    1  A    between atoms: N1_1  and  C1_4 
REMARK    2  A    between atoms: C4_14  and  S1_15 
REMARK    3  A    between atoms: S1_15  and  N5_18 
REMARK    4  A    between atoms: C6_21  and  N6_22 
ROOT
HETATM    1  C1  UNL     1     -65.505  19.604  54.840  1.00  0.00     0.694 A 
HETATM    2  N2  UNL     1     -64.715  19.482  55.946  1.00  0.00    -0.152 N 
ATOM      3  H2  UNL     1     -64.756  20.179  56.690  1.00  0.00     0.188 HD
HETATM    4  C2  UNL     1     -63.884  18.432  56.044  1.00  0.00     0.307 A 
HETATM    5  O1  UNL     1     -63.150  18.297  57.047  1.00  0.00    -0.263 OA
HETATM    6  C3  UNL     1     -63.881  17.527  55.005  1.00  0.00     0.214 A 
HETATM    7  N3  UNL     1     -63.165  16.394  54.813  1.00  0.00    -0.277 N 
ATOM      8  H3  UNL     1     -62.473  16.007  55.455  1.00  0.00     0.189 HD
HETATM    9  N4  UNL     1     -63.520  15.877  53.648  1.00  0.00    -0.272 N 
ATOM     10  H4  UNL     1     -63.137  15.020  53.251  1.00  0.00     0.189 HD
HETATM   11  C4  UNL     1     -64.450  16.636  53.066  1.00  0.00     0.257 A 
HETATM   12  N7  UNL     1     -64.677  17.658  53.901  1.00  0.00    -0.190 N 
HETATM   13  N8  UNL     1     -65.480  18.708  53.845  1.00  0.00    -0.121 N 
ATOM     14  H8  UNL     1     -66.087  18.837  53.034  1.00  0.00     0.206 HD
ENDROOT
BRANCH  11  15
HETATM   15  S1  UNL     1     -65.200  16.374  51.520  1.00  0.00     0.282 S 
HETATM   16  O2  UNL     1     -66.622  15.840  51.745  1.00  0.00    -0.203 OA
HETATM   17  O3  UNL     1     -64.526  15.283  50.737  1.00  0.00    -0.203 OA
BRANCH  15  18
HETATM   18  N5  UNL     1     -65.235  17.786  50.579  1.00  0.00    -0.156 NA
HETATM   19  C5  UNL     1     -63.941  18.411  50.458  1.00  0.00     0.188 C 
HETATM   20  S2  UNL     1     -63.439  17.155  49.250  1.00  0.00    -0.105 SA
HETATM   21  C6  UNL     1     -65.197  17.584  49.141  1.00  0.00     0.336 C 
BRANCH  21  22
HETATM   22  N6  UNL     1     -66.063  16.523  48.688  1.00  0.00    -0.053 N 
ATOM     23  H63 UNL     1     -66.282  15.884  49.452  1.00  0.00     0.277 HD
ATOM     24  H62 UNL     1     -66.999  16.879  48.492  1.00  0.00     0.277 HD
ATOM     25  H61 UNL     1     -65.695  16.014  47.885  1.00  0.00     0.277 HD
ENDBRANCH  21  22
ENDBRANCH  15  18
ENDBRANCH  11  15
BRANCH   1  26
HETATM   26  N1  UNL     1     -66.316  20.617  54.731  1.00  0.00    -0.233 N 
ATOM     27  H12 UNL     1     -67.237  20.542  55.165  1.00  0.00     0.174 HD
ATOM     28  H11 UNL     1     -66.022  21.451  54.224  1.00  0.00     0.174 HD
ENDBRANCH   1  26
TORSDOF 4
ENDMDL
MODEL 2
REMARK VINA RESULT: -6.678907061      1.543      2.163
REMARK  4 active torsions:
REMARK  status: ('A' for Active; 'I' for Inactive)
REMARK    1  A    between atoms: N1_1  and  C1_4 
REMARK    2  A    between atoms: C4_14  and  S1_15 
REMARK    3  A    between atoms: S1_15  and  N5_18 
REMARK    4  A    between atoms: C6_21  and  N6_22 
ROOT
HETATM    1  C1  UNL     1     -65.535  19.636  54.907  1.00  0.00     0.694 A 
HETATM    2  N2  UNL     1     -64.845  19.509  56.078  1.00  0.00    -0.152 N 
ATOM      3  H2  UNL     1     -64.978  20.182  56.832  1.00  0.00     0.188 HD
HETATM    4  C2  UNL     1     -63.987  18.487  56.223  1.00  0.00     0.307 A 
HETATM    5  O1  UNL     1     -63.342  18.348  57.285  1.00  0.00    -0.263 OA
HETATM    6  C3  UNL     1     -63.856  17.613  55.165  1.00  0.00     0.214 A 
HETATM    7  N3  UNL     1     -63.084  16.512  55.010  1.00  0.00    -0.277 N 
ATOM      8  H3  UNL     1     -62.439  16.130  55.702  1.00  0.00     0.189 HD
HETATM    9  N4  UNL     1     -63.313  16.018  53.805  1.00  0.00    -0.272 N 
ATOM     10  H4  UNL     1     -62.865  15.186  53.422  1.00  0.00     0.189 HD
HETATM   11  C4  UNL     1     -64.215  16.761  53.160  1.00  0.00     0.257 A 
HETATM   12  N7  UNL     1     -64.554  17.749  53.997  1.00  0.00    -0.190 N 
HETATM   13  N8  UNL     1     -65.387  18.772  53.895  1.00  0.00    -0.121 N 
ATOM     14  H8  UNL     1     -65.923  18.903  53.037  1.00  0.00     0.206 HD
ENDROOT
BRANCH  11  15
HETATM   15  S1  UNL     1     -64.812  16.518  51.546  1.00  0.00     0.282 S 
HETATM   16  O2  UNL     1     -63.755  17.016  50.548  1.00  0.00    -0.203 OA
HETATM   17  O3  UNL     1     -66.014  17.370  51.249  1.00  0.00    -0.203 OA
BRANCH  15  18
HETATM   18  N5  UNL     1     -65.199  14.894  51.244  1.00  0.00    -0.156 NA
HETATM   19  C5  UNL     1     -66.092  14.339  52.231  1.00  0.00     0.188 C 
HETATM   20  S2  UNL     1     -67.487  15.215  51.473  1.00  0.00    -0.105 SA
HETATM   21  C6  UNL     1     -66.249  14.670  50.265  1.00  0.00     0.336 C 
BRANCH  21  22
HETATM   22  N6  UNL     1     -66.126  15.499  49.092  1.00  0.00    -0.053 N 
ATOM     23  H63 UNL     1     -65.684  16.389  49.323  1.00  0.00     0.277 HD
ATOM     24  H62 UNL     1     -65.425  15.122  48.454  1.00  0.00     0.277 HD
ATOM     25  H61 UNL     1     -67.011  15.650  48.607  1.00  0.00     0.277 HD
ENDBRANCH  21  22
ENDBRANCH  15  18
ENDBRANCH  11  15
BRANCH   1  26
HETATM   26  N1  UNL     1     -66.371  20.623  54.751  1.00  0.00    -0.233 N 
ATOM     27  H12 UNL     1     -66.009  21.574  54.831  1.00  0.00     0.174 HD
ATOM     28  H11 UNL     1     -67.353  20.431  54.555  1.00  0.00     0.174 HD
ENDBRANCH   1  26
TORSDOF 4
ENDMDL
MODEL 3
REMARK VINA RESULT: -6.661031413      3.266      6.061
REMARK  4 active torsions:
REMARK  status: ('A' for Active; 'I' for Inactive)
REMARK    1  A    between atoms: N1_1  and  C1_4 
REMARK    2  A    between atoms: C4_14  and  S1_15 
REMARK    3  A    between atoms: S1_15  and  N5_18 
REMARK    4  A    between atoms: C6_21  and  N6_22 
ROOT
HETATM    1  C1  UNL     1     -65.424  19.375  54.945  1.00  0.00     0.694 A 
HETATM    2  N2  UNL     1     -65.740  19.016  53.666  1.00  0.00    -0.152 N 
ATOM      3  H2  UNL     1     -66.430  19.549  53.136  1.00  0.00     0.188 HD
HETATM    4  C2  UNL     1     -65.132  17.954  53.116  1.00  0.00     0.307 A 
HETATM    5  O1  UNL     1     -65.403  17.605  51.946  1.00  0.00    -0.263 OA
HETATM    6  C3  UNL     1     -64.209  17.281  53.886  1.00  0.00     0.214 A 
HETATM    7  N3  UNL     1     -63.450  16.192  53.620  1.00  0.00    -0.277 N 
ATOM      8  H3  UNL     1     -63.440  15.668  52.744  1.00  0.00     0.189 HD
HETATM    9  N4  UNL     1     -62.723  15.927  54.692  1.00  0.00    -0.272 N 
ATOM     10  H4  UNL     1     -62.059  15.156  54.769  1.00  0.00     0.189 HD
HETATM   11  C4  UNL     1     -62.980  16.809  55.659  1.00  0.00     0.257 A 
HETATM   12  N7  UNL     1     -63.899  17.649  55.166  1.00  0.00    -0.190 N 
HETATM   13  N8  UNL     1     -64.523  18.701  55.671  1.00  0.00    -0.121 N 
ATOM     14  H8  UNL     1     -64.315  19.002  56.624  1.00  0.00     0.206 HD
ENDROOT
BRANCH  11  15
HETATM   15  S1  UNL     1     -62.288  16.849  57.253  1.00  0.00     0.282 S 
HETATM   16  O2  UNL     1     -62.920  18.009  58.037  1.00  0.00    -0.203 OA
HETATM   17  O3  UNL     1     -60.824  17.186  57.230  1.00  0.00    -0.203 OA
BRANCH  15  18
HETATM   18  N5  UNL     1     -62.502  15.383  58.081  1.00  0.00    -0.156 NA
HETATM   19  C5  UNL     1     -62.521  14.241  57.201  1.00  0.00     0.188 C 
HETATM   20  S2  UNL     1     -60.718  14.329  57.034  1.00  0.00    -0.105 SA
HETATM   21  C6  UNL     1     -61.305  14.818  58.679  1.00  0.00     0.336 C 
BRANCH  21  22
HETATM   22  N6  UNL     1     -60.489  15.793  59.360  1.00  0.00    -0.053 N 
ATOM     23  H63 UNL     1     -60.412  16.648  58.809  1.00  0.00     0.277 HD
ATOM     24  H62 UNL     1     -60.973  16.162  60.178  1.00  0.00     0.277 HD
ATOM     25  H61 UNL     1     -59.565  15.443  59.614  1.00  0.00     0.277 HD
ENDBRANCH  21  22
ENDBRANCH  15  18
ENDBRANCH  11  15
BRANCH   1  26
HETATM   26  N1  UNL     1     -66.006  20.403  55.493  1.00  0.00    -0.233 N 
ATOM     27  H12 UNL     1     -65.742  21.333  55.166  1.00  0.00     0.174 HD
ATOM     28  H11 UNL     1     -66.702  20.262  56.224  1.00  0.00     0.174 HD
ENDBRANCH   1  26
TORSDOF 4
ENDMDL
MODEL 4
REMARK VINA RESULT: -6.632632033      1.520      2.601
REMARK  4 active torsions:
REMARK  status: ('A' for Active; 'I' for Inactive)
REMARK    1  A    between atoms: N1_1  and  C1_4 
REMARK    2  A    between atoms: C4_14  and  S1_15 
REMARK    3  A    between atoms: S1_15  and  N5_18 
REMARK    4  A    between atoms: C6_21  and  N6_22 
ROOT
HETATM    1  C1  UNL     1     -63.995  16.591  54.942  1.00  0.00     0.694 A 
HETATM    2  N2  UNL     1     -64.089  17.578  55.880  1.00  0.00    -0.152 N 
ATOM      3  H2  UNL     1     -63.911  17.375  56.864  1.00  0.00     0.188 HD
HETATM    4  C2  UNL     1     -64.419  18.820  55.492  1.00  0.00     0.307 A 
HETATM    5  O1  UNL     1     -64.512  19.742  56.331  1.00  0.00    -0.263 OA
HETATM    6  C3  UNL     1     -64.643  19.027  54.148  1.00  0.00     0.214 A 
HETATM    7  N3  UNL     1     -64.989  20.142  53.464  1.00  0.00    -0.277 N 
ATOM      8  H3  UNL     1     -65.144  21.067  53.865  1.00  0.00     0.189 HD
HETATM    9  N4  UNL     1     -65.092  19.822  52.184  1.00  0.00    -0.272 N 
ATOM     10  H4  UNL     1     -65.342  20.473  51.440  1.00  0.00     0.189 HD
HETATM   11  C4  UNL     1     -64.824  18.528  52.004  1.00  0.00     0.257 A 
HETATM   12  N7  UNL     1     -64.545  18.031  53.216  1.00  0.00    -0.190 N 
HETATM   13  N8  UNL     1     -64.219  16.821  53.642  1.00  0.00    -0.121 N 
ATOM     14  H8  UNL     1     -64.138  16.055  52.973  1.00  0.00     0.206 HD
ENDROOT
BRANCH  11  15
HETATM   15  S1  UNL     1     -64.856  17.649  50.505  1.00  0.00     0.282 S 
HETATM   16  O2  UNL     1     -66.225  16.967  50.362  1.00  0.00    -0.203 OA
HETATM   17  O3  UNL     1     -63.882  16.505  50.495  1.00  0.00    -0.203 OA
BRANCH  15  18
HETATM   18  N5  UNL     1     -64.545  18.649  49.170  1.00  0.00    -0.156 NA
HETATM   19  C5  UNL     1     -63.172  19.082  49.103  1.00  0.00     0.188 C 
HETATM   20  S2  UNL     1     -62.680  17.450  48.484  1.00  0.00    -0.105 SA
HETATM   21  C6  UNL     1     -64.321  17.963  47.909  1.00  0.00     0.336 C 
BRANCH  21  22
HETATM   22  N6  UNL     1     -65.253  16.889  47.667  1.00  0.00    -0.053 N 
ATOM     23  H63 UNL     1     -66.203  17.250  47.571  1.00  0.00     0.277 HD
ATOM     24  H62 UNL     1     -65.124  16.502  46.733  1.00  0.00     0.277 HD
ATOM     25  H61 UNL     1     -65.216  16.153  48.372  1.00  0.00     0.277 HD
ENDBRANCH  21  22
ENDBRANCH  15  18
ENDBRANCH  11  15
BRANCH   1  26
HETATM   26  N1  UNL     1     -63.676  15.382  55.303  1.00  0.00    -0.233 N 
ATOM     27  H12 UNL     1     -62.686  15.153  55.391  1.00  0.00     0.174 HD
ATOM     28  H11 UNL     1     -64.409  14.697  55.489  1.00  0.00     0.174 HD
ENDBRANCH   1  26
TORSDOF 4
ENDMDL
MODEL 5
REMARK VINA RESULT: -6.630623216      1.541      1.935
REMARK  4 active torsions:
REMARK  status: ('A' for Active; 'I' for Inactive)
REMARK    1  A    between atoms: N1_1  and  C1_4 
REMARK    2  A    between atoms: C4_14  and  S1_15 
REMARK    3  A    between atoms: S1_15  and  N5_18 
REMARK    4  A    between atoms: C6_21  and  N6_22 
ROOT
HETATM    1  C1  UNL     1     -65.379  19.576  54.688  1.00  0.00     0.694 A 
HETATM    2  N2  UNL     1     -64.762  19.499  55.903  1.00  0.00    -0.152 N 
ATOM      3  H2  UNL     1     -64.914  20.222  56.606  1.00  0.00     0.188 HD
HETATM    4  C2  UNL     1     -63.953  18.459  56.160  1.00  0.00     0.307 A 
HETATM    5  O1  UNL     1     -63.376  18.365  57.266  1.00  0.00    -0.263 OA
HETATM    6  C3  UNL     1     -63.794  17.517  55.167  1.00  0.00     0.214 A 
HETATM    7  N3  UNL     1     -63.056  16.384  55.125  1.00  0.00    -0.277 N 
ATOM      8  H3  UNL     1     -62.466  16.024  55.875  1.00  0.00     0.189 HD
HETATM    9  N4  UNL     1     -63.233  15.823  53.940  1.00  0.00    -0.272 N 
ATOM     10  H4  UNL     1     -62.795  14.955  53.635  1.00  0.00     0.189 HD
HETATM   11  C4  UNL     1     -64.068  16.554  53.199  1.00  0.00     0.257 A 
HETATM   12  N7  UNL     1     -64.418  17.604  53.954  1.00  0.00    -0.190 N 
HETATM   13  N8  UNL     1     -65.205  18.646  53.741  1.00  0.00    -0.121 N 
ATOM     14  H8  UNL     1     -65.686  18.741  52.845  1.00  0.00     0.206 HD
ENDROOT
BRANCH  11  15
HETATM   15  S1  UNL     1     -64.580  16.233  51.569  1.00  0.00     0.282 S 
HETATM   16  O2  UNL     1     -64.252  14.771  51.229  1.00  0.00    -0.203 OA
HETATM   17  O3  UNL     1     -63.795  17.021  50.559  1.00  0.00    -0.203 OA
BRANCH  15  18
HETATM   18  N5  UNL     1     -66.233  16.542  51.345  1.00  0.00    -0.156 NA
HETATM   19  C5  UNL     1     -66.583  16.740  49.961  1.00  0.00     0.188 C 
HETATM   20  S2  UNL     1     -66.483  14.953  49.672  1.00  0.00    -0.105 SA
HETATM   21  C6  UNL     1     -67.095  15.373  51.327  1.00  0.00     0.336 C 
BRANCH  21  22
HETATM   22  N6  UNL     1     -66.785  14.415  52.360  1.00  0.00    -0.053 N 
ATOM     23  H63 UNL     1     -67.232  13.518  52.168  1.00  0.00     0.277 HD
ATOM     24  H62 UNL     1     -65.806  14.131  52.308  1.00  0.00     0.277 HD
ATOM     25  H61 UNL     1     -67.017  14.741  53.298  1.00  0.00     0.277 HD
ENDBRANCH  21  22
ENDBRANCH  15  18
ENDBRANCH  11  15
BRANCH   1  26
HETATM   26  N1  UNL     1     -66.167  20.579  54.424  1.00  0.00    -0.233 N 
ATOM     27  H12 UNL     1     -65.787  21.522  54.511  1.00  0.00     0.174 HD
ATOM     28  H11 UNL     1     -67.130  20.406  54.138  1.00  0.00     0.174 HD
ENDBRANCH   1  26
TORSDOF 4
ENDMDL
