MODEL 1
REMARK VINA RESULT: -7.566760147      0.000      0.000
REMARK  6 active torsions:
REMARK  status: ('A' for Active; 'I' for Inactive)
REMARK    1  A    between atoms: S1_2  and  N1_5 
REMARK    2  A    between atoms: C4_11  and  C5_12 
REMARK    3  A    between atoms: C6_15  and  N5_16 
REMARK    4  A    between atoms: C7_21  and  N7_22 
REMARK    5  A    between atoms: N7_22  and  O3_24 
REMARK    6  A    between atoms: N8_26  and  O4_27 
ROOT
HETATM    1  C5  UNL     1     -64.059  17.253  54.854  1.00  0.00     0.196 A 
HETATM    2  N4  UNL     1     -63.912  17.336  53.514  1.00  0.00    -0.171 N 
ATOM      3  H4  UNL     1     -63.428  16.569  53.047  1.00  0.00     0.186 HD
HETATM    4  C6  UNL     1     -64.350  18.343  52.748  1.00  0.00     0.692 A 
HETATM    5  N6  UNL     1     -64.985  19.349  53.370  1.00  0.00    -0.019 N 
ATOM      6  H6  UNL     1     -65.339  20.143  52.837  1.00  0.00     0.203 HD
HETATM    7  C7  UNL     1     -65.148  19.295  54.699  1.00  0.00     0.744 A 
HETATM    8  N8  UNL     1     -64.700  18.262  55.465  1.00  0.00    -0.030 N 
ENDROOT
BRANCH   1   9
HETATM    9  C4  UNL     1     -63.620  16.050  55.527  1.00  0.00     0.119 A 
HETATM   10  N1  UNL     1     -62.781  15.868  56.519  1.00  0.00    -0.176 N 
HETATM   11  N2  UNL     1     -62.650  14.530  56.768  1.00  0.00    -0.271 N 
HETATM   12  C2  UNL     1     -63.399  13.832  55.935  1.00  0.00     0.134 A 
ATOM     13  H2  UNL     1     -62.056  14.128  57.494  1.00  0.00     0.189 HD
HETATM   14  N3  UNL     1     -63.540  12.420  55.865  1.00  0.00    -0.081 NA
HETATM   15  C3  UNL     1     -64.025  14.756  55.134  1.00  0.00     0.083 A 
BRANCH  10  16
HETATM   16  S1  UNL     1     -61.829  16.979  57.416  1.00  0.00     0.246 S 
HETATM   17  C1  UNL     1     -60.656  16.045  58.438  1.00  0.00     0.188 C 
HETATM   18  O1  UNL     1     -62.639  17.791  58.365  1.00  0.00    -0.204 OA
HETATM   19  O2  UNL     1     -61.025  17.915  56.566  1.00  0.00    -0.204 OA
ENDBRANCH  10  16
ENDBRANCH   1   9
BRANCH   8  20
HETATM   20  O4  UNL     1     -65.007  18.250  56.830  1.00  0.00    -0.268 OA
ATOM     21  H4  UNL     1     -64.910  19.013  57.387  1.00  0.00     0.246 HD
ENDBRANCH   8  20
BRANCH   4  22
HETATM   22  N5  UNL     1     -64.168  18.350  51.454  1.00  0.00    -0.234 N 
ATOM     23  H52 UNL     1     -63.958  19.213  50.952  1.00  0.00     0.174 HD
ATOM     24  H51 UNL     1     -64.229  17.496  50.900  1.00  0.00     0.174 HD
ENDBRANCH   4  22
BRANCH   7  25
HETATM   25  N7  UNL     1     -65.760  20.250  55.346  1.00  0.00    -0.096 N 
ATOM     26  H7  UNL     1     -65.470  20.489  56.294  1.00  0.00     0.213 HD
BRANCH  25  27
HETATM   27  O3  UNL     1     -66.794  20.933  54.751  1.00  0.00    -0.276 OA
ATOM     28  H3  UNL     1     -66.995  21.822  55.021  1.00  0.00     0.245 HD
ENDBRANCH  25  27
ENDBRANCH   7  25
TORSDOF 6
ENDMDL
MODEL 2
REMARK VINA RESULT: -7.485065615      2.145      3.032
REMARK  6 active torsions:
REMARK  status: ('A' for Active; 'I' for Inactive)
REMARK    1  A    between atoms: S1_2  and  N1_5 
REMARK    2  A    between atoms: C4_11  and  C5_12 
REMARK    3  A    between atoms: C6_15  and  N5_16 
REMARK    4  A    between atoms: C7_21  and  N7_22 
REMARK    5  A    between atoms: N7_22  and  O3_24 
REMARK    6  A    between atoms: N8_26  and  O4_27 
ROOT
HETATM    1  C5  UNL     1     -63.657  17.776  54.732  1.00  0.00     0.196 A 
HETATM    2  N4  UNL     1     -63.469  18.053  53.424  1.00  0.00    -0.171 N 
ATOM      3  H4  UNL     1     -62.810  17.468  52.911  1.00  0.00     0.186 HD
HETATM    4  C6  UNL     1     -64.078  19.032  52.745  1.00  0.00     0.692 A 
HETATM    5  N6  UNL     1     -64.945  19.798  53.426  1.00  0.00    -0.019 N 
ATOM      6  H6  UNL     1     -65.437  20.560  52.961  1.00  0.00     0.203 HD
HETATM    7  C7  UNL     1     -65.153  19.547  54.727  1.00  0.00     0.744 A 
HETATM    8  N8  UNL     1     -64.528  18.546  55.404  1.00  0.00    -0.030 N 
ENDROOT
BRANCH   1   9
HETATM    9  C4  UNL     1     -62.999  16.618  55.298  1.00  0.00     0.119 A 
HETATM   10  N1  UNL     1     -63.248  15.335  55.180  1.00  0.00    -0.176 N 
HETATM   11  N2  UNL     1     -62.375  14.626  55.957  1.00  0.00    -0.271 N 
HETATM   12  C2  UNL     1     -61.554  15.445  56.590  1.00  0.00     0.134 A 
ATOM     13  H2  UNL     1     -62.359  13.609  56.037  1.00  0.00     0.189 HD
HETATM   14  N3  UNL     1     -60.509  15.105  57.489  1.00  0.00    -0.081 NA
HETATM   15  C3  UNL     1     -61.919  16.710  56.201  1.00  0.00     0.083 A 
BRANCH  10  16
HETATM   16  S1  UNL     1     -64.478  14.493  54.329  1.00  0.00     0.246 S 
HETATM   17  C1  UNL     1     -63.706  13.178  53.344  1.00  0.00     0.188 C 
HETATM   18  O1  UNL     1     -65.198  15.360  53.357  1.00  0.00    -0.204 OA
HETATM   19  O2  UNL     1     -65.493  13.840  55.216  1.00  0.00    -0.204 OA
ENDBRANCH  10  16
ENDBRANCH   1   9
BRANCH   8  20
HETATM   20  O4  UNL     1     -64.888  18.301  56.733  1.00  0.00    -0.268 OA
ATOM     21  H4  UNL     1     -64.260  18.043  57.399  1.00  0.00     0.246 HD
ENDBRANCH   8  20
BRANCH   4  22
HETATM   22  N5  UNL     1     -63.843  19.237  51.476  1.00  0.00    -0.234 N 
ATOM     23  H52 UNL     1     -63.315  18.564  50.919  1.00  0.00     0.174 HD
ATOM     24  H51 UNL     1     -64.176  20.073  50.997  1.00  0.00     0.174 HD
ENDBRANCH   4  22
BRANCH   7  25
HETATM   25  N7  UNL     1     -65.987  20.266  55.430  1.00  0.00    -0.096 N 
ATOM     26  H7  UNL     1     -65.986  20.196  56.447  1.00  0.00     0.213 HD
BRANCH  25  27
HETATM   27  O3  UNL     1     -66.864  21.118  54.801  1.00  0.00    -0.276 OA
ATOM     28  H3  UNL     1     -66.558  21.951  54.462  1.00  0.00     0.245 HD
ENDBRANCH  25  27
ENDBRANCH   7  25
TORSDOF 6
ENDMDL
MODEL 3
REMARK VINA RESULT: -7.465355437      2.269      3.018
REMARK  6 active torsions:
REMARK  status: ('A' for Active; 'I' for Inactive)
REMARK    1  A    between atoms: S1_2  and  N1_5 
REMARK    2  A    between atoms: C4_11  and  C5_12 
REMARK    3  A    between atoms: C6_15  and  N5_16 
REMARK    4  A    between atoms: C7_21  and  N7_22 
REMARK    5  A    between atoms: N7_22  and  O3_24 
REMARK    6  A    between atoms: N8_26  and  O4_27 
ROOT
HETATM    1  C5  UNL     1     -63.470  18.050  54.851  1.00  0.00     0.196 A 
HETATM    2  N4  UNL     1     -63.266  18.326  53.545  1.00  0.00    -0.171 N 
ATOM      3  H4  UNL     1     -62.517  17.822  53.071  1.00  0.00     0.186 HD
HETATM    4  C6  UNL     1     -63.967  19.207  52.821  1.00  0.00     0.692 A 
HETATM    5  N6  UNL     1     -64.952  19.866  53.451  1.00  0.00    -0.019 N 
ATOM      6  H6  UNL     1     -65.519  20.550  52.950  1.00  0.00     0.203 HD
HETATM    7  C7  UNL     1     -65.180  19.614  54.748  1.00  0.00     0.744 A 
HETATM    8  N8  UNL     1     -64.460  18.713  55.472  1.00  0.00    -0.030 N 
ENDROOT
BRANCH   1   9
HETATM    9  C4  UNL     1     -62.693  16.997  55.468  1.00  0.00     0.119 A 
HETATM   10  N1  UNL     1     -62.576  15.723  55.179  1.00  0.00    -0.176 N 
HETATM   11  N2  UNL     1     -61.759  15.119  56.094  1.00  0.00    -0.271 N 
HETATM   12  C2  UNL     1     -61.343  15.998  56.988  1.00  0.00     0.134 A 
ATOM     13  H2  UNL     1     -61.508  14.131  56.088  1.00  0.00     0.189 HD
HETATM   14  N3  UNL     1     -60.487  15.770  58.098  1.00  0.00    -0.081 NA
HETATM   15  C3  UNL     1     -61.914  17.193  56.628  1.00  0.00     0.083 A 
BRANCH  10  16
HETATM   16  S1  UNL     1     -63.320  14.763  53.966  1.00  0.00     0.246 S 
HETATM   17  C1  UNL     1     -64.868  14.087  54.629  1.00  0.00     0.188 C 
HETATM   18  O1  UNL     1     -62.493  13.585  53.582  1.00  0.00    -0.204 OA
HETATM   19  O2  UNL     1     -63.666  15.518  52.720  1.00  0.00    -0.204 OA
ENDBRANCH  10  16
ENDBRANCH   1   9
BRANCH   8  20
HETATM   20  O4  UNL     1     -64.840  18.447  56.791  1.00  0.00    -0.268 OA
ATOM     21  H4  UNL     1     -64.936  19.128  57.447  1.00  0.00     0.246 HD
ENDBRANCH   8  20
BRANCH   4  22
HETATM   22  N5  UNL     1     -63.708  19.417  51.557  1.00  0.00    -0.234 N 
ATOM     23  H52 UNL     1     -64.241  20.095  51.012  1.00  0.00     0.174 HD
ATOM     24  H51 UNL     1     -62.966  18.913  51.071  1.00  0.00     0.174 HD
ENDBRANCH   4  22
BRANCH   7  25
HETATM   25  N7  UNL     1     -66.127  20.231  55.402  1.00  0.00    -0.096 N 
ATOM     26  H7  UNL     1     -66.302  20.002  56.380  1.00  0.00     0.213 HD
BRANCH  25  27
HETATM   27  O3  UNL     1     -66.887  21.190  54.774  1.00  0.00    -0.276 OA
ATOM     28  H3  UNL     1     -66.662  22.109  54.862  1.00  0.00     0.245 HD
ENDBRANCH  25  27
ENDBRANCH   7  25
TORSDOF 6
ENDMDL
MODEL 4
REMARK VINA RESULT: -7.219113922      3.336      6.239
REMARK  6 active torsions:
REMARK  status: ('A' for Active; 'I' for Inactive)
REMARK    1  A    between atoms: S1_2  and  N1_5 
REMARK    2  A    between atoms: C4_11  and  C5_12 
REMARK    3  A    between atoms: C6_15  and  N5_16 
REMARK    4  A    between atoms: C7_21  and  N7_22 
REMARK    5  A    between atoms: N7_22  and  O3_24 
REMARK    6  A    between atoms: N8_26  and  O4_27 
ROOT
HETATM    1  C5  UNL     1     -64.412  18.352  52.751  1.00  0.00     0.196 A 
HETATM    2  N4  UNL     1     -63.890  17.187  53.193  1.00  0.00    -0.171 N 
ATOM      3  H4  UNL     1     -63.588  16.512  52.491  1.00  0.00     0.186 HD
HETATM    4  C6  UNL     1     -63.737  16.847  54.478  1.00  0.00     0.692 A 
HETATM    5  N6  UNL     1     -64.137  17.740  55.397  1.00  0.00    -0.019 N 
ATOM      6  H6  UNL     1     -64.046  17.534  56.392  1.00  0.00     0.203 HD
HETATM    7  C7  UNL     1     -64.659  18.906  54.989  1.00  0.00     0.744 A 
HETATM    8  N8  UNL     1     -64.806  19.240  53.678  1.00  0.00    -0.030 N 
ENDROOT
BRANCH   1   9
HETATM    9  C4  UNL     1     -64.417  18.614  51.328  1.00  0.00     0.119 A 
HETATM   10  N1  UNL     1     -65.014  17.998  50.335  1.00  0.00    -0.176 N 
HETATM   11  N2  UNL     1     -64.666  18.592  49.153  1.00  0.00    -0.271 N 
HETATM   12  C2  UNL     1     -63.837  19.597  49.370  1.00  0.00     0.134 A 
ATOM     13  H2  UNL     1     -65.000  18.301  48.234  1.00  0.00     0.189 HD
HETATM   14  N3  UNL     1     -63.247  20.461  48.410  1.00  0.00    -0.081 NA
HETATM   15  C3  UNL     1     -63.654  19.640  50.730  1.00  0.00     0.083 A 
BRANCH  10  16
HETATM   16  S1  UNL     1     -66.014  16.603  50.303  1.00  0.00     0.246 S 
HETATM   17  C1  UNL     1     -64.997  15.171  49.846  1.00  0.00     0.188 C 
HETATM   18  O1  UNL     1     -67.082  16.690  49.270  1.00  0.00    -0.204 OA
HETATM   19  O2  UNL     1     -66.657  16.286  51.618  1.00  0.00    -0.204 OA
ENDBRANCH  10  16
ENDBRANCH   1   9
BRANCH   8  20
HETATM   20  O4  UNL     1     -65.267  20.520  53.354  1.00  0.00    -0.268 OA
ATOM     21  H4  UNL     1     -65.073  21.286  53.881  1.00  0.00     0.246 HD
ENDBRANCH   8  20
BRANCH   4  22
HETATM   22  N5  UNL     1     -63.221  15.698  54.827  1.00  0.00    -0.234 N 
ATOM     23  H52 UNL     1     -63.769  15.002  55.333  1.00  0.00     0.174 HD
ATOM     24  H51 UNL     1     -62.255  15.455  54.606  1.00  0.00     0.174 HD
ENDBRANCH   4  22
BRANCH   7  25
HETATM   25  N7  UNL     1     -65.061  19.804  55.847  1.00  0.00    -0.096 N 
ATOM     26  H7  UNL     1     -64.414  20.166  56.546  1.00  0.00     0.213 HD
BRANCH  25  27
HETATM   27  O3  UNL     1     -66.357  20.264  55.807  1.00  0.00    -0.276 OA
ATOM     28  H3  UNL     1     -66.845  20.382  56.614  1.00  0.00     0.245 HD
ENDBRANCH  25  27
ENDBRANCH   7  25
TORSDOF 6
ENDMDL
MODEL 5
REMARK VINA RESULT: -7.156418542      2.290      3.078
REMARK  6 active torsions:
REMARK  status: ('A' for Active; 'I' for Inactive)
REMARK    1  A    between atoms: S1_2  and  N1_5 
REMARK    2  A    between atoms: C4_11  and  C5_12 
REMARK    3  A    between atoms: C6_15  and  N5_16 
REMARK    4  A    between atoms: C7_21  and  N7_22 
REMARK    5  A    between atoms: N7_22  and  O3_24 
REMARK    6  A    between atoms: N8_26  and  O4_27 
ROOT
HETATM    1  C5  UNL     1     -64.024  17.292  54.695  1.00  0.00     0.196 A 
HETATM    2  N4  UNL     1     -64.401  16.599  53.600  1.00  0.00    -0.171 N 
ATOM      3  H4  UNL     1     -64.122  15.619  53.545  1.00  0.00     0.186 HD
HETATM    4  C6  UNL     1     -65.112  17.092  52.579  1.00  0.00     0.692 A 
HETATM    5  N6  UNL     1     -65.476  18.381  52.657  1.00  0.00    -0.019 N 
ATOM      6  H6  UNL     1     -66.018  18.812  51.908  1.00  0.00     0.203 HD
HETATM    7  C7  UNL     1     -65.117  19.096  53.733  1.00  0.00     0.744 A 
HETATM    8  N8  UNL     1     -64.395  18.580  54.766  1.00  0.00    -0.030 N 
ENDROOT
BRANCH   1   9
HETATM    9  C4  UNL     1     -63.343  16.589  55.761  1.00  0.00     0.119 A 
HETATM   10  N1  UNL     1     -63.264  15.310  56.045  1.00  0.00    -0.176 N 
HETATM   11  N2  UNL     1     -62.545  15.140  57.195  1.00  0.00    -0.271 N 
HETATM   12  C2  UNL     1     -62.156  16.309  57.670  1.00  0.00     0.134 A 
ATOM     13  H2  UNL     1     -62.340  14.239  57.626  1.00  0.00     0.189 HD
HETATM   14  N3  UNL     1     -61.394  16.562  58.842  1.00  0.00    -0.081 NA
HETATM   15  C3  UNL     1     -62.642  17.247  56.794  1.00  0.00     0.083 A 
BRANCH  10  16
HETATM   16  S1  UNL     1     -63.961  13.936  55.288  1.00  0.00     0.246 S 
HETATM   17  C1  UNL     1     -63.469  12.453  56.211  1.00  0.00     0.188 C 
HETATM   18  O1  UNL     1     -63.464  13.735  53.899  1.00  0.00    -0.204 OA
HETATM   19  O2  UNL     1     -65.458  13.956  55.251  1.00  0.00    -0.204 OA
ENDBRANCH  10  16
ENDBRANCH   1   9
BRANCH   8  20
HETATM   20  O4  UNL     1     -64.158  19.378  55.890  1.00  0.00    -0.268 OA
ATOM     21  H4  UNL     1     -64.334  20.312  55.905  1.00  0.00     0.246 HD
ENDBRANCH   8  20
BRANCH   4  22
HETATM   22  N5  UNL     1     -65.440  16.354  51.551  1.00  0.00    -0.234 N 
ATOM     23  H52 UNL     1     -64.730  15.965  50.930  1.00  0.00     0.174 HD
ATOM     24  H51 UNL     1     -66.413  16.142  51.332  1.00  0.00     0.174 HD
ENDBRANCH   4  22
BRANCH   7  25
HETATM   25  N7  UNL     1     -65.449  20.354  53.852  1.00  0.00    -0.096 N 
ATOM     26  H7  UNL     1     -64.925  21.068  53.346  1.00  0.00     0.213 HD
BRANCH  25  27
HETATM   27  O3  UNL     1     -66.503  20.716  54.657  1.00  0.00    -0.276 OA
ATOM     28  H3  UNL     1     -66.343  21.185  55.468  1.00  0.00     0.245 HD
ENDBRANCH  25  27
ENDBRANCH   7  25
TORSDOF 6
ENDMDL
