MODEL 1
REMARK VINA RESULT: -6.353497354      0.000      0.000
REMARK  15 active torsions:
REMARK  status: ('A' for Active; 'I' for Inactive)
REMARK       I    between atoms: C1_4  and  N3_6 
REMARK    1  A    between atoms: N3_6  and  C2_8 
REMARK    2  A    between atoms: C2_8  and  C3_9 
REMARK    3  A    between atoms: C3_9  and  C4_10 
REMARK    4  A    between atoms: C4_10  and  C5_11 
REMARK    5  A    between atoms: C5_11  and  C6_12 
REMARK    6  A    between atoms: C6_12  and  N4_13 
REMARK    7  A    between atoms: C6_12  and  C20_47 
REMARK    8  A    between atoms: N4_13  and  C7_15 
REMARK    9  A    between atoms: C8_18  and  C9_19 
REMARK       I    between atoms: C9_19  and  N6_21 
REMARK   10  A    between atoms: N6_21  and  C10_23 
REMARK   11  A    between atoms: C10_23  and  C11_24 
REMARK   12  A    between atoms: C16_30  and  N7_31 
REMARK   13  A    between atoms: N7_31  and  C17_33 
REMARK   14  A    between atoms: C19_39  and  N10_40 
REMARK       I    between atoms: C20_47  and  N13_49 
REMARK   15  A    between atoms: N13_49  and  C21_51 
ROOT
HETATM    1  C7  UNL     1     -10.075  25.163  12.479  1.00  0.00     0.681 A 
HETATM    2  N5  UNL     1     -10.915  24.536  13.315  1.00  0.00    -0.186 N 
ATOM      3  H5  UNL     1     -11.784  24.153  12.943  1.00  0.00     0.184 HD
HETATM    4  C8  UNL     1     -10.655  24.397  14.619  1.00  0.00     0.120 A 
HETATM    5  C15 UNL     1      -9.462  24.936  15.076  1.00  0.00     0.085 A 
HETATM    6  C16 UNL     1      -8.564  25.592  14.248  1.00  0.00     0.139 A 
HETATM    7  N12 UNL     1      -8.927  25.673  12.960  1.00  0.00    -0.176 N 
ATOM      8  H12 UNL     1      -8.300  26.146  12.310  1.00  0.00     0.186 HD
ENDROOT
BRANCH   1   9
HETATM    9  N4  UNL     1     -10.293  25.312  11.247  1.00  0.00    -0.213 N 
ATOM     10  H4  UNL     1     -11.234  25.122  10.901  1.00  0.00     0.178 HD
BRANCH   9  11
HETATM   11  C6  UNL     1      -9.256  25.753  10.257  1.00  0.00     0.192 C 
BRANCH  11  12
HETATM   12  C5  UNL     1      -9.837  26.996   9.680  1.00  0.00     0.035 C 
BRANCH  12  13
HETATM   13  C4  UNL     1      -9.051  28.224   9.575  1.00  0.00     0.004 C 
BRANCH  13  14
HETATM   14  C3  UNL     1      -7.668  28.229  10.108  1.00  0.00     0.020 C 
BRANCH  14  15
HETATM   15  C2  UNL     1      -6.655  28.340   8.951  1.00  0.00     0.122 C 
BRANCH  15  16
HETATM   16  N3  UNL     1      -6.559  27.058   8.269  1.00  0.00    -0.365 N 
HETATM   17  C1  UNL     1      -5.309  26.611   7.797  1.00  0.00     0.181 C 
HETATM   18  N1  UNL     1      -4.915  26.764   6.585  1.00  0.00    -0.374 N 
HETATM   19  N2  UNL     1      -4.437  25.957   8.713  1.00  0.00    -0.064 NA
ATOM     20  H12 UNL     1      -4.010  26.440   6.244  1.00  0.00     0.158 HD
ATOM     21  H11 UNL     1      -5.540  27.232   5.928  1.00  0.00     0.158 HD
ATOM     22  H3  UNL     1      -7.393  26.487   8.132  1.00  0.00     0.162 HD
ENDBRANCH  15  16
ENDBRANCH  14  15
ENDBRANCH  13  14
ENDBRANCH  12  13
ENDBRANCH  11  12
BRANCH  11  23
HETATM   23  C20 UNL     1      -9.295  24.651   9.273  1.00  0.00     0.259 C 
HETATM   24  O2  UNL     1     -10.410  24.501   8.655  1.00  0.00    -0.270 OA
HETATM   25  N13 UNL     1      -8.271  23.787   8.969  1.00  0.00    -0.155 N 
ATOM     26  H13 UNL     1      -8.529  23.100   8.260  1.00  0.00     0.187 HD
BRANCH  25  27
HETATM   27  C21 UNL     1      -7.084  23.655   9.371  1.00  0.00     0.716 A 
HETATM   28  N14 UNL     1      -6.478  24.174  10.442  1.00  0.00    -0.115 N 
HETATM   29  N15 UNL     1      -5.226  23.758  10.458  1.00  0.00    -0.213 N 
ATOM     30  H14 UNL     1      -6.911  24.789  11.132  1.00  0.00     0.207 HD
HETATM   31  N16 UNL     1      -4.989  22.981   9.426  1.00  0.00    -0.213 N 
ATOM     32  H15 UNL     1      -4.540  24.005  11.170  1.00  0.00     0.210 HD
HETATM   33  N17 UNL     1      -6.116  22.910   8.755  1.00  0.00    -0.115 N 
ATOM     34  H16 UNL     1      -4.108  22.523   9.194  1.00  0.00     0.210 HD
ATOM     35  H17 UNL     1      -6.250  22.376   7.896  1.00  0.00     0.207 HD
ENDBRANCH  25  27
ENDBRANCH  11  23
ENDBRANCH   9  11
ENDBRANCH   1   9
BRANCH   4  36
HETATM   36  C9  UNL     1     -11.530  23.712  15.552  1.00  0.00     0.268 C 
HETATM   37  O1  UNL     1     -12.579  24.360  15.878  1.00  0.00    -0.266 OA
HETATM   38  N6  UNL     1     -11.241  22.448  16.050  1.00  0.00    -0.355 N 
ATOM     39  H6  UNL     1     -10.358  22.063  15.715  1.00  0.00     0.162 HD
BRANCH  38  40
HETATM   40  C10 UNL     1     -11.942  21.593  16.938  1.00  0.00     0.138 C 
BRANCH  40  41
HETATM   41  C11 UNL     1     -12.688  20.491  16.343  1.00  0.00     0.065 C 
HETATM   42  C12 UNL     1     -12.625  20.203  14.888  1.00  0.00     0.017 C 
HETATM   43  C13 UNL     1     -13.761  19.189  14.637  1.00  0.00     0.011 C 
HETATM   44  C14 UNL     1     -15.028  19.939  14.941  1.00  0.00     0.074 C 
HETATM   45  S1  UNL     1     -14.522  20.823  16.465  1.00  0.00    -0.163 SA
ENDBRANCH  40  41
ENDBRANCH  38  40
ENDBRANCH   4  36
BRANCH   6  46
HETATM   46  N7  UNL     1      -7.458  26.083  14.702  1.00  0.00    -0.175 N 
ATOM     47  H7  UNL     1      -7.491  26.596  15.583  1.00  0.00     0.186 HD
BRANCH  46  48
HETATM   48  C17 UNL     1      -6.213  25.958  14.065  1.00  0.00     0.699 A 
HETATM   49  N8  UNL     1      -5.337  24.981  14.393  1.00  0.00    -0.186 N 
HETATM   50  C18 UNL     1      -4.163  24.913  13.746  1.00  0.00     0.215 A 
ATOM     51  H8  UNL     1      -5.565  24.305  15.122  1.00  0.00     0.185 HD
HETATM   52  N9  UNL     1      -3.804  25.781  12.772  1.00  0.00    -0.187 N 
HETATM   53  C19 UNL     1      -4.680  26.740  12.460  1.00  0.00     0.691 A 
ATOM     54  H9  UNL     1      -2.904  25.705  12.297  1.00  0.00     0.185 HD
HETATM   55  N11 UNL     1      -5.874  26.831  13.100  1.00  0.00    -0.022 N 
ATOM     56  H11 UNL     1      -6.525  27.573  12.844  1.00  0.00     0.203 HD
BRANCH  53  57
HETATM   57  N10 UNL     1      -4.342  27.568  11.535  1.00  0.00    -0.234 N 
ATOM     58 2H10 UNL     1      -3.364  27.754  11.311  1.00  0.00     0.174 HD
ATOM     59 1H10 UNL     1      -5.093  28.036  11.029  1.00  0.00     0.174 HD
ENDBRANCH  53  57
ENDBRANCH  46  48
ENDBRANCH   6  46
TORSDOF 15
ENDMDL
MODEL 2
REMARK VINA RESULT: -6.231967028      2.887      5.510
REMARK  15 active torsions:
REMARK  status: ('A' for Active; 'I' for Inactive)
REMARK       I    between atoms: C1_4  and  N3_6 
REMARK    1  A    between atoms: N3_6  and  C2_8 
REMARK    2  A    between atoms: C2_8  and  C3_9 
REMARK    3  A    between atoms: C3_9  and  C4_10 
REMARK    4  A    between atoms: C4_10  and  C5_11 
REMARK    5  A    between atoms: C5_11  and  C6_12 
REMARK    6  A    between atoms: C6_12  and  N4_13 
REMARK    7  A    between atoms: C6_12  and  C20_47 
REMARK    8  A    between atoms: N4_13  and  C7_15 
REMARK    9  A    between atoms: C8_18  and  C9_19 
REMARK       I    between atoms: C9_19  and  N6_21 
REMARK   10  A    between atoms: N6_21  and  C10_23 
REMARK   11  A    between atoms: C10_23  and  C11_24 
REMARK   12  A    between atoms: C16_30  and  N7_31 
REMARK   13  A    between atoms: N7_31  and  C17_33 
REMARK   14  A    between atoms: C19_39  and  N10_40 
REMARK       I    between atoms: C20_47  and  N13_49 
REMARK   15  A    between atoms: N13_49  and  C21_51 
ROOT
HETATM    1  C7  UNL     1      -8.103  25.004   9.898  1.00  0.00     0.681 A 
HETATM    2  N5  UNL     1      -8.780  24.502  10.940  1.00  0.00    -0.186 N 
ATOM      3  H5  UNL     1      -8.386  23.708  11.445  1.00  0.00     0.184 HD
HETATM    4  C8  UNL     1      -9.952  25.003  11.340  1.00  0.00     0.120 A 
HETATM    5  C15 UNL     1     -10.445  26.080  10.620  1.00  0.00     0.085 A 
HETATM    6  C16 UNL     1      -9.780  26.633   9.536  1.00  0.00     0.139 A 
HETATM    7  N12 UNL     1      -8.614  26.050   9.224  1.00  0.00    -0.176 N 
ATOM      8  H12 UNL     1      -8.086  26.419   8.433  1.00  0.00     0.186 HD
ENDROOT
BRANCH   1   9
HETATM    9  N4  UNL     1      -6.997  24.552   9.495  1.00  0.00    -0.213 N 
ATOM     10  H4  UNL     1      -7.011  23.782   8.825  1.00  0.00     0.178 HD
BRANCH   9  11
HETATM   11  C6  UNL     1      -5.663  25.074   9.937  1.00  0.00     0.192 C 
BRANCH  11  12
HETATM   12  C5  UNL     1      -5.081  25.634   8.687  1.00  0.00     0.035 C 
BRANCH  12  13
HETATM   13  C4  UNL     1      -4.714  27.045   8.585  1.00  0.00     0.004 C 
BRANCH  13  14
HETATM   14  C3  UNL     1      -5.727  28.068   8.936  1.00  0.00     0.020 C 
BRANCH  14  15
HETATM   15  C2  UNL     1      -5.768  28.271  10.465  1.00  0.00     0.122 C 
BRANCH  15  16
HETATM   16  N3  UNL     1      -4.511  28.858  10.907  1.00  0.00    -0.365 N 
HETATM   17  C1  UNL     1      -3.797  28.259  11.965  1.00  0.00     0.181 C 
HETATM   18  N1  UNL     1      -3.878  28.654  13.183  1.00  0.00    -0.374 N 
HETATM   19  N2  UNL     1      -2.943  27.160  11.666  1.00  0.00    -0.064 NA
ATOM     20  H12 UNL     1      -3.361  28.221  13.948  1.00  0.00     0.158 HD
ATOM     21  H11 UNL     1      -4.489  29.442  13.398  1.00  0.00     0.158 HD
ATOM     22  H3  UNL     1      -4.150  29.697  10.454  1.00  0.00     0.162 HD
ENDBRANCH  15  16
ENDBRANCH  14  15
ENDBRANCH  13  14
ENDBRANCH  12  13
ENDBRANCH  11  12
BRANCH  11  23
HETATM   23  C20 UNL     1      -4.969  23.829  10.328  1.00  0.00     0.259 C 
HETATM   24  O2  UNL     1      -4.781  22.982   9.382  1.00  0.00    -0.270 OA
HETATM   25  N13 UNL     1      -4.521  23.499  11.584  1.00  0.00    -0.155 N 
ATOM     26  H13 UNL     1      -4.075  22.583  11.618  1.00  0.00     0.187 HD
BRANCH  25  27
HETATM   27  C21 UNL     1      -4.538  24.079  12.702  1.00  0.00     0.716 A 
HETATM   28  N14 UNL     1      -5.512  24.157  13.614  1.00  0.00    -0.115 N 
HETATM   29  N15 UNL     1      -5.074  24.870  14.634  1.00  0.00    -0.213 N 
ATOM     30  H14 UNL     1      -6.438  23.735  13.534  1.00  0.00     0.207 HD
HETATM   31  N16 UNL     1      -3.841  25.266  14.420  1.00  0.00    -0.213 N 
ATOM     32  H15 UNL     1      -5.618  25.084  15.470  1.00  0.00     0.210 HD
HETATM   33  N17 UNL     1      -3.502  24.789  13.244  1.00  0.00    -0.115 N 
ATOM     34  H16 UNL     1      -3.262  25.830  15.042  1.00  0.00     0.210 HD
ATOM     35  H17 UNL     1      -2.595  24.929  12.798  1.00  0.00     0.207 HD
ENDBRANCH  25  27
ENDBRANCH  11  23
ENDBRANCH   9  11
ENDBRANCH   1   9
BRANCH   4  36
HETATM   36  C9  UNL     1     -10.706  24.499  12.472  1.00  0.00     0.268 C 
HETATM   37  O1  UNL     1     -11.400  23.455  12.232  1.00  0.00    -0.266 OA
HETATM   38  N6  UNL     1     -10.674  25.109  13.718  1.00  0.00    -0.355 N 
ATOM     39  H6  UNL     1     -10.090  25.946  13.755  1.00  0.00     0.162 HD
BRANCH  38  40
HETATM   40  C10 UNL     1     -11.298  24.790  14.951  1.00  0.00     0.138 C 
BRANCH  40  41
HETATM   41  C11 UNL     1     -10.473  24.865  16.150  1.00  0.00     0.065 C 
HETATM   42  C12 UNL     1     -10.459  26.074  17.011  1.00  0.00     0.017 C 
HETATM   43  C13 UNL     1      -9.263  25.864  17.964  1.00  0.00     0.011 C 
HETATM   44  C14 UNL     1      -8.050  25.872  17.077  1.00  0.00     0.074 C 
HETATM   45  S1  UNL     1      -8.665  24.855  15.681  1.00  0.00    -0.163 SA
ENDBRANCH  40  41
ENDBRANCH  38  40
ENDBRANCH   4  36
BRANCH   6  46
HETATM   46  N7  UNL     1     -10.263  27.639   8.885  1.00  0.00    -0.175 N 
ATOM     47  H7  UNL     1     -10.788  27.446   8.033  1.00  0.00     0.186 HD
BRANCH  46  48
HETATM   48  C17 UNL     1     -10.115  28.980   9.272  1.00  0.00     0.699 A 
HETATM   49  N8  UNL     1     -11.086  29.642   9.943  1.00  0.00    -0.186 N 
HETATM   50  C18 UNL     1     -10.884  30.923  10.287  1.00  0.00     0.215 A 
ATOM     51  H8  UNL     1     -11.960  29.174  10.183  1.00  0.00     0.185 HD
HETATM   52  N9  UNL     1      -9.747  31.597   9.996  1.00  0.00    -0.187 N 
HETATM   53  C19 UNL     1      -8.798  30.930   9.334  1.00  0.00     0.691 A 
ATOM     54  H9  UNL     1      -9.620  32.571  10.270  1.00  0.00     0.185 HD
HETATM   55  N11 UNL     1      -8.978  29.633   8.973  1.00  0.00    -0.022 N 
ATOM     56  H11 UNL     1      -8.239  29.145   8.467  1.00  0.00     0.203 HD
BRANCH  53  57
HETATM   57  N10 UNL     1      -7.716  31.567   9.054  1.00  0.00    -0.234 N 
ATOM     58 2H10 UNL     1      -7.656  32.583   9.125  1.00  0.00     0.174 HD
ATOM     59 1H10 UNL     1      -6.911  31.014   8.757  1.00  0.00     0.174 HD
ENDBRANCH  53  57
ENDBRANCH  46  48
ENDBRANCH   6  46
TORSDOF 15
ENDMDL
MODEL 3
REMARK VINA RESULT: -6.206953905      1.135      1.596
REMARK  15 active torsions:
REMARK  status: ('A' for Active; 'I' for Inactive)
REMARK       I    between atoms: C1_4  and  N3_6 
REMARK    1  A    between atoms: N3_6  and  C2_8 
REMARK    2  A    between atoms: C2_8  and  C3_9 
REMARK    3  A    between atoms: C3_9  and  C4_10 
REMARK    4  A    between atoms: C4_10  and  C5_11 
REMARK    5  A    between atoms: C5_11  and  C6_12 
REMARK    6  A    between atoms: C6_12  and  N4_13 
REMARK    7  A    between atoms: C6_12  and  C20_47 
REMARK    8  A    between atoms: N4_13  and  C7_15 
REMARK    9  A    between atoms: C8_18  and  C9_19 
REMARK       I    between atoms: C9_19  and  N6_21 
REMARK   10  A    between atoms: N6_21  and  C10_23 
REMARK   11  A    between atoms: C10_23  and  C11_24 
REMARK   12  A    between atoms: C16_30  and  N7_31 
REMARK   13  A    between atoms: N7_31  and  C17_33 
REMARK   14  A    between atoms: C19_39  and  N10_40 
REMARK       I    between atoms: C20_47  and  N13_49 
REMARK   15  A    between atoms: N13_49  and  C21_51 
ROOT
HETATM    1  C7  UNL     1      -9.976  25.228  13.219  1.00  0.00     0.681 A 
HETATM    2  N5  UNL     1     -10.893  24.533  13.907  1.00  0.00    -0.186 N 
ATOM      3  H5  UNL     1     -11.771  24.288  13.448  1.00  0.00     0.184 HD
HETATM    4  C8  UNL     1     -10.699  24.150  15.173  1.00  0.00     0.120 A 
HETATM    5  C15 UNL     1      -9.490  24.508  15.752  1.00  0.00     0.085 A 
HETATM    6  C16 UNL     1      -8.513  25.226  15.078  1.00  0.00     0.139 A 
HETATM    7  N12 UNL     1      -8.816  25.557  13.815  1.00  0.00    -0.176 N 
ATOM      8  H12 UNL     1      -8.130  26.086  13.277  1.00  0.00     0.186 HD
ENDROOT
BRANCH   1   9
HETATM    9  N4  UNL     1     -10.131  25.606  12.026  1.00  0.00    -0.213 N 
ATOM     10  H4  UNL     1     -11.043  25.978  11.757  1.00  0.00     0.178 HD
BRANCH   9  11
HETATM   11  C6  UNL     1      -9.061  25.543  10.979  1.00  0.00     0.192 C 
BRANCH  11  12
HETATM   12  C5  UNL     1      -9.229  26.823  10.237  1.00  0.00     0.035 C 
BRANCH  12  13
HETATM   13  C4  UNL     1      -8.674  27.002   8.898  1.00  0.00     0.004 C 
BRANCH  13  14
HETATM   14  C3  UNL     1      -7.757  28.142   8.655  1.00  0.00     0.020 C 
BRANCH  14  15
HETATM   15  C2  UNL     1      -6.314  27.631   8.471  1.00  0.00     0.122 C 
BRANCH  15  16
HETATM   16  N3  UNL     1      -5.491  28.102   9.575  1.00  0.00    -0.365 N 
HETATM   17  C1  UNL     1      -5.323  27.290  10.716  1.00  0.00     0.181 C 
HETATM   18  N1  UNL     1      -6.022  27.423  11.785  1.00  0.00    -0.374 N 
HETATM   19  N2  UNL     1      -4.330  26.271  10.679  1.00  0.00    -0.064 NA
ATOM     20  H12 UNL     1      -5.900  26.836  12.610  1.00  0.00     0.158 HD
ATOM     21  H11 UNL     1      -6.733  28.154  11.811  1.00  0.00     0.158 HD
ATOM     22  H3  UNL     1      -5.038  29.015   9.524  1.00  0.00     0.162 HD
ENDBRANCH  15  16
ENDBRANCH  14  15
ENDBRANCH  13  14
ENDBRANCH  12  13
ENDBRANCH  11  12
BRANCH  11  23
HETATM   23  C20 UNL     1      -9.512  24.399  10.158  1.00  0.00     0.259 C 
HETATM   24  O2  UNL     1     -10.784  24.259  10.057  1.00  0.00    -0.270 OA
HETATM   25  N13 UNL     1      -8.713  23.487   9.513  1.00  0.00    -0.155 N 
ATOM     26  H13 UNL     1      -9.246  22.778   9.010  1.00  0.00     0.187 HD
BRANCH  25  27
HETATM   27  C21 UNL     1      -7.467  23.333   9.404  1.00  0.00     0.716 A 
HETATM   28  N14 UNL     1      -6.471  24.185   9.663  1.00  0.00    -0.115 N 
HETATM   29  N15 UNL     1      -5.326  23.583   9.400  1.00  0.00    -0.213 N 
ATOM     30  H14 UNL     1      -6.577  25.140  10.006  1.00  0.00     0.207 HD
HETATM   31  N16 UNL     1      -5.540  22.359   8.974  1.00  0.00    -0.213 N 
ATOM     32  H15 UNL     1      -4.406  24.008   9.512  1.00  0.00     0.210 HD
HETATM   33  N17 UNL     1      -6.843  22.194   8.971  1.00  0.00    -0.115 N 
ATOM     34  H16 UNL     1      -4.835  21.674   8.700  1.00  0.00     0.210 HD
ATOM     35  H17 UNL     1      -7.322  21.340   8.688  1.00  0.00     0.207 HD
ENDBRANCH  25  27
ENDBRANCH  11  23
ENDBRANCH   9  11
ENDBRANCH   1   9
BRANCH   4  36
HETATM   36  C9  UNL     1     -11.657  23.383  15.945  1.00  0.00     0.268 C 
HETATM   37  O1  UNL     1     -12.767  23.975  16.163  1.00  0.00    -0.266 OA
HETATM   38  N6  UNL     1     -11.384  22.104  16.410  1.00  0.00    -0.355 N 
ATOM     39  H6  UNL     1     -10.450  21.768  16.175  1.00  0.00     0.162 HD
BRANCH  38  40
HETATM   40  C10 UNL     1     -12.159  21.175  17.151  1.00  0.00     0.138 C 
BRANCH  40  41
HETATM   41  C11 UNL     1     -12.909  20.184  16.391  1.00  0.00     0.065 C 
HETATM   42  C12 UNL     1     -12.678  19.977  14.940  1.00  0.00     0.017 C 
HETATM   43  C13 UNL     1     -13.852  19.089  14.476  1.00  0.00     0.011 C 
HETATM   44  C14 UNL     1     -15.081  19.934  14.668  1.00  0.00     0.074 C 
HETATM   45  S1  UNL     1     -14.709  20.676  16.303  1.00  0.00    -0.163 SA
ENDBRANCH  40  41
ENDBRANCH  38  40
ENDBRANCH   4  36
BRANCH   6  46
HETATM   46  N7  UNL     1      -7.396  25.544  15.644  1.00  0.00    -0.175 N 
ATOM     47  H7  UNL     1      -7.420  25.816  16.626  1.00  0.00     0.186 HD
BRANCH  46  48
HETATM   48  C17 UNL     1      -6.149  25.539  14.997  1.00  0.00     0.699 A 
HETATM   49  N8  UNL     1      -5.234  26.514  15.204  1.00  0.00    -0.186 N 
HETATM   50  C18 UNL     1      -4.059  26.452  14.558  1.00  0.00     0.215 A 
ATOM     51  H8  UNL     1      -5.433  27.284  15.842  1.00  0.00     0.185 HD
HETATM   52  N9  UNL     1      -3.738  25.457  13.699  1.00  0.00    -0.187 N 
HETATM   53  C19 UNL     1      -4.653  24.503  13.505  1.00  0.00     0.691 A 
ATOM     54  H9  UNL     1      -2.837  25.436  13.221  1.00  0.00     0.185 HD
HETATM   55  N11 UNL     1      -5.849  24.542  14.147  1.00  0.00    -0.022 N 
ATOM     56  H11 UNL     1      -6.531  23.801  13.982  1.00  0.00     0.203 HD
BRANCH  53  57
HETATM   57  N10 UNL     1      -4.352  23.555  12.689  1.00  0.00    -0.234 N 
ATOM     58 2H10 UNL     1      -3.390  23.237  12.565  1.00  0.00     0.174 HD
ATOM     59 1H10 UNL     1      -5.116  23.127  12.167  1.00  0.00     0.174 HD
ENDBRANCH  53  57
ENDBRANCH  46  48
ENDBRANCH   6  46
TORSDOF 15
ENDMDL
MODEL 4
REMARK VINA RESULT: -6.177846279      4.122      8.234
REMARK  15 active torsions:
REMARK  status: ('A' for Active; 'I' for Inactive)
REMARK       I    between atoms: C1_4  and  N3_6 
REMARK    1  A    between atoms: N3_6  and  C2_8 
REMARK    2  A    between atoms: C2_8  and  C3_9 
REMARK    3  A    between atoms: C3_9  and  C4_10 
REMARK    4  A    between atoms: C4_10  and  C5_11 
REMARK    5  A    between atoms: C5_11  and  C6_12 
REMARK    6  A    between atoms: C6_12  and  N4_13 
REMARK    7  A    between atoms: C6_12  and  C20_47 
REMARK    8  A    between atoms: N4_13  and  C7_15 
REMARK    9  A    between atoms: C8_18  and  C9_19 
REMARK       I    between atoms: C9_19  and  N6_21 
REMARK   10  A    between atoms: N6_21  and  C10_23 
REMARK   11  A    between atoms: C10_23  and  C11_24 
REMARK   12  A    between atoms: C16_30  and  N7_31 
REMARK   13  A    between atoms: N7_31  and  C17_33 
REMARK   14  A    between atoms: C19_39  and  N10_40 
REMARK       I    between atoms: C20_47  and  N13_49 
REMARK   15  A    between atoms: N13_49  and  C21_51 
ROOT
HETATM    1  C7  UNL     1      -5.304  25.637  11.602  1.00  0.00     0.681 A 
HETATM    2  N5  UNL     1      -4.227  25.758  12.390  1.00  0.00    -0.186 N 
ATOM      3  H5  UNL     1      -3.311  25.512  12.012  1.00  0.00     0.184 HD
HETATM    4  C8  UNL     1      -4.308  26.189  13.652  1.00  0.00     0.120 A 
HETATM    5  C15 UNL     1      -5.575  26.509  14.119  1.00  0.00     0.085 A 
HETATM    6  C16 UNL     1      -6.716  26.400  13.339  1.00  0.00     0.139 A 
HETATM    7  N12 UNL     1      -6.516  25.958  12.090  1.00  0.00    -0.176 N 
ATOM      8  H12 UNL     1      -7.325  25.860  11.477  1.00  0.00     0.186 HD
ENDROOT
BRANCH   1   9
HETATM    9  N4  UNL     1      -5.259  25.232  10.409  1.00  0.00    -0.213 N 
ATOM     10  H4  UNL     1      -4.503  24.599  10.147  1.00  0.00     0.178 HD
BRANCH   9  11
HETATM   11  C6  UNL     1      -6.249  25.620   9.351  1.00  0.00     0.192 C 
BRANCH  11  12
HETATM   12  C5  UNL     1      -6.499  24.344   8.628  1.00  0.00     0.035 C 
BRANCH  12  13
HETATM   13  C4  UNL     1      -7.342  23.298   9.203  1.00  0.00     0.004 C 
BRANCH  13  14
HETATM   14  C3  UNL     1      -8.562  23.697   9.944  1.00  0.00     0.020 C 
BRANCH  14  15
HETATM   15  C2  UNL     1      -9.767  23.765   8.985  1.00  0.00     0.122 C 
BRANCH  15  16
HETATM   16  N3  UNL     1     -10.625  24.877   9.365  1.00  0.00    -0.365 N 
HETATM   17  C1  UNL     1     -10.071  26.165   9.513  1.00  0.00     0.181 C 
HETATM   18  N1  UNL     1      -9.714  26.654  10.645  1.00  0.00    -0.374 N 
HETATM   19  N2  UNL     1      -9.897  26.964   8.347  1.00  0.00    -0.064 NA
ATOM     20  H12 UNL     1      -9.314  27.586  10.751  1.00  0.00     0.158 HD
ATOM     21  H11 UNL     1      -9.839  26.082  11.481  1.00  0.00     0.158 HD
ATOM     22  H3  UNL     1     -11.621  24.726   9.523  1.00  0.00     0.162 HD
ENDBRANCH  15  16
ENDBRANCH  14  15
ENDBRANCH  13  14
ENDBRANCH  12  13
ENDBRANCH  11  12
BRANCH  11  23
HETATM   23  C20 UNL     1      -5.449  26.546   8.520  1.00  0.00     0.259 C 
HETATM   24  O2  UNL     1      -4.295  26.112   8.165  1.00  0.00    -0.270 OA
HETATM   25  N13 UNL     1      -5.818  27.803   8.107  1.00  0.00    -0.155 N 
ATOM     26  H13 UNL     1      -5.101  28.262   7.545  1.00  0.00     0.187 HD
BRANCH  25  27
HETATM   27  C21 UNL     1      -6.846  28.514   8.268  1.00  0.00     0.716 A 
HETATM   28  N14 UNL     1      -7.451  28.905   9.392  1.00  0.00    -0.115 N 
HETATM   29  N15 UNL     1      -8.497  29.643   9.070  1.00  0.00    -0.213 N 
ATOM     30  H14 UNL     1      -7.156  28.673  10.340  1.00  0.00     0.207 HD
HETATM   31  N16 UNL     1      -8.598  29.748   7.764  1.00  0.00    -0.213 N 
ATOM     32  H15 UNL     1      -9.135  30.071   9.739  1.00  0.00     0.210 HD
HETATM   33  N17 UNL     1      -7.595  29.063   7.263  1.00  0.00    -0.115 N 
ATOM     34  H16 UNL     1      -9.311  30.259   7.245  1.00  0.00     0.210 HD
ATOM     35  H17 UNL     1      -7.403  28.955   6.267  1.00  0.00     0.207 HD
ENDBRANCH  25  27
ENDBRANCH  11  23
ENDBRANCH   9  11
ENDBRANCH   1   9
BRANCH   4  36
HETATM   36  C9  UNL     1      -3.166  26.349  14.531  1.00  0.00     0.268 C 
HETATM   37  O1  UNL     1      -2.692  25.260  14.999  1.00  0.00    -0.266 OA
HETATM   38  N6  UNL     1      -2.633  27.594  14.838  1.00  0.00    -0.355 N 
ATOM     39  H6  UNL     1      -3.128  28.374  14.407  1.00  0.00     0.162 HD
BRANCH  38  40
HETATM   40  C10 UNL     1      -1.530  27.985  15.639  1.00  0.00     0.138 C 
BRANCH  40  41
HETATM   41  C11 UNL     1      -0.535  28.850  15.018  1.00  0.00     0.065 C 
HETATM   42  C12 UNL     1      -0.203  30.183  15.578  1.00  0.00     0.017 C 
HETATM   43  C13 UNL     1       0.638  30.873  14.484  1.00  0.00     0.011 C 
HETATM   44  C14 UNL     1      -0.298  31.042  13.319  1.00  0.00     0.074 C 
HETATM   45  S1  UNL     1      -1.137  29.412  13.341  1.00  0.00    -0.163 SA
ENDBRANCH  40  41
ENDBRANCH  38  40
ENDBRANCH   4  36
BRANCH   6  46
HETATM   46  N7  UNL     1      -7.884  26.708  13.801  1.00  0.00    -0.175 N 
ATOM     47  H7  UNL     1      -8.437  27.388  13.279  1.00  0.00     0.186 HD
BRANCH  46  48
HETATM   48  C17 UNL     1      -8.442  26.171  14.972  1.00  0.00     0.699 A 
HETATM   49  N8  UNL     1      -8.385  26.825  16.155  1.00  0.00    -0.186 N 
HETATM   50  C18 UNL     1      -8.940  26.260  17.239  1.00  0.00     0.215 A 
ATOM     51  H8  UNL     1      -7.927  27.733  16.223  1.00  0.00     0.185 HD
HETATM   52  N9  UNL     1      -9.560  25.057  17.211  1.00  0.00    -0.187 N 
HETATM   53  C19 UNL     1      -9.607  24.425  16.035  1.00  0.00     0.691 A 
ATOM     54  H9  UNL     1      -9.972  24.652  18.051  1.00  0.00     0.185 HD
HETATM   55  N11 UNL     1      -9.053  24.975  14.924  1.00  0.00    -0.022 N 
ATOM     56  H11 UNL     1      -9.102  24.472  14.038  1.00  0.00     0.203 HD
BRANCH  53  57
HETATM   57  N10 UNL     1     -10.195  23.281  16.005  1.00  0.00    -0.234 N 
ATOM     58 2H10 UNL     1     -11.093  23.126  16.462  1.00  0.00     0.174 HD
ATOM     59 1H10 UNL     1      -9.726  22.528  15.501  1.00  0.00     0.174 HD
ENDBRANCH  53  57
ENDBRANCH  46  48
ENDBRANCH   6  46
TORSDOF 15
ENDMDL
MODEL 5
REMARK VINA RESULT: -6.160489766      3.676      7.935
REMARK  15 active torsions:
REMARK  status: ('A' for Active; 'I' for Inactive)
REMARK       I    between atoms: C1_4  and  N3_6 
REMARK    1  A    between atoms: N3_6  and  C2_8 
REMARK    2  A    between atoms: C2_8  and  C3_9 
REMARK    3  A    between atoms: C3_9  and  C4_10 
REMARK    4  A    between atoms: C4_10  and  C5_11 
REMARK    5  A    between atoms: C5_11  and  C6_12 
REMARK    6  A    between atoms: C6_12  and  N4_13 
REMARK    7  A    between atoms: C6_12  and  C20_47 
REMARK    8  A    between atoms: N4_13  and  C7_15 
REMARK    9  A    between atoms: C8_18  and  C9_19 
REMARK       I    between atoms: C9_19  and  N6_21 
REMARK   10  A    between atoms: N6_21  and  C10_23 
REMARK   11  A    between atoms: C10_23  and  C11_24 
REMARK   12  A    between atoms: C16_30  and  N7_31 
REMARK   13  A    between atoms: N7_31  and  C17_33 
REMARK   14  A    between atoms: C19_39  and  N10_40 
REMARK       I    between atoms: C20_47  and  N13_49 
REMARK   15  A    between atoms: N13_49  and  C21_51 
ROOT
HETATM    1  C7  UNL     1      -8.960  26.756   9.141  1.00  0.00     0.681 A 
HETATM    2  N5  UNL     1      -7.750  26.976   9.673  1.00  0.00    -0.186 N 
ATOM      3  H5  UNL     1      -7.322  26.244  10.242  1.00  0.00     0.184 HD
HETATM    4  C8  UNL     1      -7.082  28.118   9.484  1.00  0.00     0.120 A 
HETATM    5  C15 UNL     1      -7.706  29.081   8.705  1.00  0.00     0.085 A 
HETATM    6  C16 UNL     1      -8.957  28.897   8.136  1.00  0.00     0.139 A 
HETATM    7  N12 UNL     1      -9.533  27.714   8.391  1.00  0.00    -0.176 N 
ATOM      8  H12 UNL     1     -10.455  27.530   7.995  1.00  0.00     0.186 HD
ENDROOT
BRANCH   1   9
HETATM    9  N4  UNL     1      -9.615  25.691   9.303  1.00  0.00    -0.213 N 
ATOM     10  H4  UNL     1     -10.436  25.540   8.716  1.00  0.00     0.178 HD
BRANCH   9  11
HETATM   11  C6  UNL     1      -9.263  24.632  10.304  1.00  0.00     0.192 C 
BRANCH  11  12
HETATM   12  C5  UNL     1      -9.060  23.419   9.465  1.00  0.00     0.035 C 
BRANCH  12  13
HETATM   13  C4  UNL     1      -7.737  22.821   9.304  1.00  0.00     0.004 C 
BRANCH  13  14
HETATM   14  C3  UNL     1      -6.662  23.631   8.682  1.00  0.00     0.020 C 
BRANCH  14  15
HETATM   15  C2  UNL     1      -5.472  23.767   9.654  1.00  0.00     0.122 C 
BRANCH  15  16
HETATM   16  N3  UNL     1      -4.777  25.019   9.392  1.00  0.00    -0.365 N 
HETATM   17  C1  UNL     1      -3.475  25.212   9.898  1.00  0.00     0.181 C 
HETATM   18  N1  UNL     1      -3.230  25.838  10.992  1.00  0.00    -0.374 N 
HETATM   19  N2  UNL     1      -2.379  24.685   9.159  1.00  0.00    -0.064 NA
ATOM     20  H12 UNL     1      -2.288  25.978  11.357  1.00  0.00     0.158 HD
ATOM     21  H11 UNL     1      -4.015  26.216  11.521  1.00  0.00     0.158 HD
ATOM     22  H3  UNL     1      -5.229  25.752   8.846  1.00  0.00     0.162 HD
ENDBRANCH  15  16
ENDBRANCH  14  15
ENDBRANCH  13  14
ENDBRANCH  12  13
ENDBRANCH  11  12
BRANCH  11  23
HETATM   23  C20 UNL     1     -10.516  24.527  11.082  1.00  0.00     0.259 C 
HETATM   24  O2  UNL     1     -11.401  23.732  10.600  1.00  0.00    -0.270 OA
HETATM   25  N13 UNL     1     -10.817  25.192  12.246  1.00  0.00    -0.155 N 
ATOM     26  H13 UNL     1     -11.746  24.968  12.602  1.00  0.00     0.187 HD
BRANCH  25  27
HETATM   27  C21 UNL     1     -10.200  26.019  12.970  1.00  0.00     0.716 A 
HETATM   28  N14 UNL     1      -9.911  27.304  12.751  1.00  0.00    -0.115 N 
HETATM   29  N15 UNL     1      -9.247  27.768  13.793  1.00  0.00    -0.213 N 
ATOM     30  H14 UNL     1     -10.161  27.838  11.918  1.00  0.00     0.207 HD
HETATM   31  N16 UNL     1      -9.089  26.823  14.692  1.00  0.00    -0.213 N 
ATOM     32  H15 UNL     1      -8.906  28.724  13.887  1.00  0.00     0.210 HD
HETATM   33  N17 UNL     1      -9.667  25.750  14.201  1.00  0.00    -0.115 N 
ATOM     34  H16 UNL     1      -8.615  26.907  15.591  1.00  0.00     0.210 HD
ATOM     35  H17 UNL     1      -9.711  24.846  14.671  1.00  0.00     0.207 HD
ENDBRANCH  25  27
ENDBRANCH  11  23
ENDBRANCH   9  11
ENDBRANCH   1   9
BRANCH   4  36
HETATM   36  C9  UNL     1      -5.765  28.387  10.028  1.00  0.00     0.268 C 
HETATM   37  O1  UNL     1      -4.796  28.135   9.236  1.00  0.00    -0.266 OA
HETATM   38  N6  UNL     1      -5.577  28.881  11.312  1.00  0.00    -0.355 N 
ATOM     39  H6  UNL     1      -6.442  29.016  11.834  1.00  0.00     0.162 HD
BRANCH  38  40
HETATM   40  C10 UNL     1      -4.408  29.233  12.034  1.00  0.00     0.138 C 
BRANCH  40  41
HETATM   41  C11 UNL     1      -4.288  28.715  13.391  1.00  0.00     0.065 C 
HETATM   42  C12 UNL     1      -3.041  28.068  13.870  1.00  0.00     0.017 C 
HETATM   43  C13 UNL     1      -3.429  27.408  15.210  1.00  0.00     0.011 C 
HETATM   44  C14 UNL     1      -4.432  26.348  14.848  1.00  0.00     0.074 C 
HETATM   45  S1  UNL     1      -5.443  27.265  13.624  1.00  0.00    -0.163 SA
ENDBRANCH  40  41
ENDBRANCH  38  40
ENDBRANCH   4  36
BRANCH   6  46
HETATM   46  N7  UNL     1      -9.513  29.812   7.412  1.00  0.00    -0.175 N 
ATOM     47  H7  UNL     1      -9.500  29.691   6.399  1.00  0.00     0.186 HD
BRANCH  46  48
HETATM   48  C17 UNL     1     -10.133  30.962   7.924  1.00  0.00     0.699 A 
HETATM   49  N8  UNL     1     -10.000  32.171   7.331  1.00  0.00    -0.186 N 
HETATM   50  C18 UNL     1     -10.620  33.233   7.868  1.00  0.00     0.215 A 
ATOM     51  H8  UNL     1      -9.436  32.274   6.488  1.00  0.00     0.185 HD
HETATM   52  N9  UNL     1     -11.381  33.159   8.985  1.00  0.00    -0.187 N 
HETATM   53  C19 UNL     1     -11.502  31.959   9.559  1.00  0.00     0.691 A 
ATOM     54  H9  UNL     1     -11.840  33.984   9.372  1.00  0.00     0.185 HD
HETATM   55  N11 UNL     1     -10.884  30.868   9.036  1.00  0.00    -0.022 N 
ATOM     56  H11 UNL     1     -10.992  29.963   9.493  1.00  0.00     0.203 HD
BRANCH  53  57
HETATM   57  N10 UNL     1     -12.223  31.884  10.622  1.00  0.00    -0.234 N 
ATOM     58 2H10 UNL     1     -12.004  32.424  11.460  1.00  0.00     0.174 HD
ATOM     59 1H10 UNL     1     -13.030  31.261  10.597  1.00  0.00     0.174 HD
ENDBRANCH  53  57
ENDBRANCH  46  48
ENDBRANCH   6  46
TORSDOF 15
ENDMDL
