MODEL 1
REMARK VINA RESULT: -7.199928884      0.000      0.000
REMARK  15 active torsions:
REMARK  status: ('A' for Active; 'I' for Inactive)
REMARK    1  A    between atoms: C2_2  and  N2_4 
REMARK    2  A    between atoms: N2_4  and  N3_5 
REMARK    3  A    between atoms: N3_5  and  C3_7 
REMARK    4  A    between atoms: C4_10  and  C5_11 
REMARK       I    between atoms: C5_11  and  N5_13 
REMARK       I    between atoms: C6_15  and  N7_17 
REMARK    5  A    between atoms: N7_17  and  N8_19 
REMARK    6  A    between atoms: C7_21  and  C8_22 
REMARK    7  A    between atoms: C7_21  and  C11_27 
REMARK    8  A    between atoms: C8_22  and  C9_23 
REMARK    9  A    between atoms: C9_23  and  C10_24 
REMARK       I    between atoms: C11_27  and  N9_29 
REMARK   10  A    between atoms: N9_29  and  N10_31 
REMARK   11  A    between atoms: N10_31  and  C12_33 
REMARK   12  A    between atoms: C12_33  and  N11_35 
REMARK   13  A    between atoms: N11_35  and  C13_37 
REMARK   14  A    between atoms: C13_37  and  C14_38 
REMARK   15  A    between atoms: C18_46  and  N13_47 
ROOT
HETATM    1  N8  UNL     1      -5.466  25.438  12.564  1.00  0.00    -0.297 N 
ATOM      2  H8  UNL     1      -6.224  26.119  12.510  1.00  0.00     0.187 HD
HETATM    3  C7  UNL     1      -5.643  24.693  11.616  1.00  0.00     0.095 C 
ENDROOT
BRANCH   1   4
HETATM    4  N7  UNL     1      -4.760  25.792  13.636  1.00  0.00    -0.273 N 
HETATM    5  C6  UNL     1      -5.105  26.599  14.693  1.00  0.00     0.210 C 
HETATM    6  N5  UNL     1      -4.676  27.798  14.938  1.00  0.00    -0.294 N 
HETATM    7  N6  UNL     1      -6.054  26.034  15.633  1.00  0.00    -0.062 NA
HETATM    8  C5  UNL     1      -3.675  28.127  13.760  1.00  0.00     0.275 C 
ATOM      9  H5  UNL     1      -4.930  28.399  15.722  1.00  0.00     0.172 HD
HETATM   10  O1  UNL     1      -4.229  28.291  12.775  1.00  0.00    -0.266 OA
ATOM     11  H7  UNL     1      -3.817  25.403  13.679  1.00  0.00     0.189 HD
BRANCH   8  12
HETATM   12  C4  UNL     1      -2.360  28.147  14.380  1.00  0.00     0.120 A 
HETATM   13  N4  UNL     1      -2.071  27.463  15.495  1.00  0.00    -0.184 N 
HETATM   14  C3  UNL     1      -0.933  27.587  16.194  1.00  0.00     0.709 A 
ATOM     15  H4  UNL     1      -2.767  26.801  15.837  1.00  0.00     0.184 HD
HETATM   16  N14 UNL     1       0.052  28.445  15.776  1.00  0.00    -0.175 N 
HETATM   17  C18 UNL     1      -0.204  29.122  14.663  1.00  0.00     0.117 A 
ATOM     18  H14 UNL     1       0.927  28.556  16.289  1.00  0.00     0.186 HD
HETATM   19  C17 UNL     1      -1.374  29.004  13.959  1.00  0.00     0.084 A 
BRANCH  14  20
HETATM   20  N3  UNL     1      -0.853  26.890  17.317  1.00  0.00    -0.064 N 
ATOM     21  H3  UNL     1      -1.329  27.215  18.159  1.00  0.00     0.221 HD
BRANCH  20  22
HETATM   22  N2  UNL     1      -0.191  25.835  17.337  1.00  0.00    -0.301 NA
BRANCH  22  23
HETATM   23  C2  UNL     1       0.431  24.777  17.387  1.00  0.00     0.186 C 
HETATM   24  C1  UNL     1       1.730  24.699  18.148  1.00  0.00     0.104 C 
HETATM   25  N1  UNL     1      -0.180  23.597  16.766  1.00  0.00    -0.070 NA
ENDBRANCH  22  23
ENDBRANCH  20  22
ENDBRANCH  14  20
BRANCH  17  26
HETATM   26  N13 UNL     1       0.657  30.014  14.170  1.00  0.00    -0.385 N 
ATOM     27 2H13 UNL     1       1.658  29.824  14.123  1.00  0.00     0.157 HD
ATOM     28 1H13 UNL     1       0.238  30.899  13.883  1.00  0.00     0.157 HD
ENDBRANCH  17  26
ENDBRANCH   8  12
ENDBRANCH   1   4
BRANCH   3  29
HETATM   29  C8  UNL     1      -4.663  23.480  11.366  1.00  0.00     0.075 C 
BRANCH  29  30
HETATM   30  C9  UNL     1      -3.964  23.865  10.050  1.00  0.00     0.119 C 
BRANCH  30  31
HETATM   31  C10 UNL     1      -2.966  24.894  10.164  1.00  0.00     0.172 C 
HETATM   32  O2  UNL     1      -2.245  24.923   8.970  1.00  0.00    -0.648 OA
HETATM   33  O3  UNL     1      -2.556  25.775  11.063  1.00  0.00    -0.648 OA
ENDBRANCH  30  31
ENDBRANCH  29  30
ENDBRANCH   3  29
BRANCH   3  34
HETATM   34  C11 UNL     1      -6.397  24.993  10.385  1.00  0.00     0.283 C 
HETATM   35  O4  UNL     1      -7.265  24.118  10.007  1.00  0.00    -0.265 OA
HETATM   36  N9  UNL     1      -6.227  26.179   9.657  1.00  0.00    -0.263 N 
ATOM     37  H9  UNL     1      -5.387  26.691   9.929  1.00  0.00     0.190 HD
BRANCH  36  38
HETATM   38  N10 UNL     1      -6.917  26.797   8.681  1.00  0.00    -0.274 N 
ATOM     39  H10 UNL     1      -6.635  26.526   7.740  1.00  0.00     0.189 HD
BRANCH  38  40
HETATM   40  C12 UNL     1      -7.948  27.742   8.716  1.00  0.00     0.186 C 
HETATM   41  S1  UNL     1      -7.819  29.353   8.810  1.00  0.00    -0.040 SA
BRANCH  40  42
HETATM   42  N11 UNL     1      -9.304  27.189   8.639  1.00  0.00    -0.360 N 
ATOM     43  H11 UNL     1      -9.693  26.932   7.732  1.00  0.00     0.162 HD
BRANCH  42  44
HETATM   44  C13 UNL     1     -10.072  27.010   9.803  1.00  0.00     0.179 C 
BRANCH  44  45
HETATM   45  C14 UNL     1     -10.353  25.487  10.030  1.00  0.00     0.037 A 
HETATM   46  C15 UNL     1     -10.734  24.997  11.238  1.00  0.00     0.081 A 
HETATM   47  S2  UNL     1     -10.969  23.335  10.932  1.00  0.00    -0.039 SA
HETATM   48  C16 UNL     1     -10.551  23.356   9.258  1.00  0.00     0.288 A 
HETATM   49  O5  UNL     1     -10.529  22.369   8.456  1.00  0.00    -0.260 OA
HETATM   50  N12 UNL     1     -10.258  24.644   9.026  1.00  0.00    -0.319 N 
ATOM     51  H12 UNL     1      -9.972  24.960   8.099  1.00  0.00     0.169 HD
ENDBRANCH  44  45
ENDBRANCH  42  44
ENDBRANCH  40  42
ENDBRANCH  38  40
ENDBRANCH  36  38
ENDBRANCH   3  34
TORSDOF 15
ENDMDL
MODEL 2
REMARK VINA RESULT: -7.010237782      3.932      6.883
REMARK  15 active torsions:
REMARK  status: ('A' for Active; 'I' for Inactive)
REMARK    1  A    between atoms: C2_2  and  N2_4 
REMARK    2  A    between atoms: N2_4  and  N3_5 
REMARK    3  A    between atoms: N3_5  and  C3_7 
REMARK    4  A    between atoms: C4_10  and  C5_11 
REMARK       I    between atoms: C5_11  and  N5_13 
REMARK       I    between atoms: C6_15  and  N7_17 
REMARK    5  A    between atoms: N7_17  and  N8_19 
REMARK    6  A    between atoms: C7_21  and  C8_22 
REMARK    7  A    between atoms: C7_21  and  C11_27 
REMARK    8  A    between atoms: C8_22  and  C9_23 
REMARK    9  A    between atoms: C9_23  and  C10_24 
REMARK       I    between atoms: C11_27  and  N9_29 
REMARK   10  A    between atoms: N9_29  and  N10_31 
REMARK   11  A    between atoms: N10_31  and  C12_33 
REMARK   12  A    between atoms: C12_33  and  N11_35 
REMARK   13  A    between atoms: N11_35  and  C13_37 
REMARK   14  A    between atoms: C13_37  and  C14_38 
REMARK   15  A    between atoms: C18_46  and  N13_47 
ROOT
HETATM    1  N8  UNL     1      -8.612  26.347   9.851  1.00  0.00    -0.297 N 
ATOM      2  H8  UNL     1      -9.464  26.908   9.865  1.00  0.00     0.187 HD
HETATM    3  C7  UNL     1      -7.915  26.853   8.989  1.00  0.00     0.095 C 
ENDROOT
BRANCH   1   4
HETATM    4  N7  UNL     1      -8.798  25.415  10.783  1.00  0.00    -0.273 N 
HETATM    5  C6  UNL     1      -9.760  24.439  10.875  1.00  0.00     0.210 C 
HETATM    6  N5  UNL     1     -10.763  24.399  11.699  1.00  0.00    -0.294 N 
HETATM    7  N6  UNL     1      -9.629  23.334   9.946  1.00  0.00    -0.062 NA
HETATM    8  C5  UNL     1     -10.635  25.714  12.567  1.00  0.00     0.275 C 
ATOM      9  H5  UNL     1     -11.479  23.676  11.769  1.00  0.00     0.172 HD
HETATM   10  O1  UNL     1     -10.891  26.644  11.955  1.00  0.00    -0.266 OA
ATOM     11  H7  UNL     1      -8.121  25.427  11.546  1.00  0.00     0.189 HD
BRANCH   8  12
HETATM   12  C4  UNL     1     -10.265  25.251  13.894  1.00  0.00     0.120 A 
HETATM   13  N4  UNL     1      -9.176  25.687  14.539  1.00  0.00    -0.184 N 
HETATM   14  C3  UNL     1      -8.704  25.165  15.681  1.00  0.00     0.709 A 
ATOM     15  H4  UNL     1      -8.668  26.472  14.132  1.00  0.00     0.184 HD
HETATM   16  N14 UNL     1      -9.352  24.121  16.291  1.00  0.00    -0.175 N 
HETATM   17  C18 UNL     1     -10.446  23.683  15.679  1.00  0.00     0.117 A 
ATOM     18  H14 UNL     1      -9.014  23.708  17.161  1.00  0.00     0.186 HD
HETATM   19  C17 UNL     1     -10.918  24.209  14.505  1.00  0.00     0.084 A 
BRANCH  14  20
HETATM   20  N3  UNL     1      -7.567  25.670  16.134  1.00  0.00    -0.064 N 
ATOM     21  H3  UNL     1      -7.528  26.100  17.059  1.00  0.00     0.221 HD
BRANCH  20  22
HETATM   22  N2  UNL     1      -6.546  25.616  15.423  1.00  0.00    -0.301 NA
BRANCH  22  23
HETATM   23  C2  UNL     1      -5.522  25.531  14.750  1.00  0.00     0.186 C 
HETATM   24  C1  UNL     1      -5.543  24.803  13.430  1.00  0.00     0.104 C 
HETATM   25  N1  UNL     1      -4.328  26.233  15.233  1.00  0.00    -0.070 NA
ENDBRANCH  22  23
ENDBRANCH  20  22
ENDBRANCH  14  20
BRANCH  17  26
HETATM   26  N13 UNL     1     -11.148  22.651  16.151  1.00  0.00    -0.385 N 
ATOM     27 2H13 UNL     1     -12.093  22.767  16.518  1.00  0.00     0.157 HD
ATOM     28 1H13 UNL     1     -10.653  21.759  16.144  1.00  0.00     0.157 HD
ENDBRANCH  17  26
ENDBRANCH   8  12
ENDBRANCH   1   4
BRANCH   3  29
HETATM   29  C8  UNL     1      -6.496  26.245   8.658  1.00  0.00     0.075 C 
BRANCH  29  30
HETATM   30  C9  UNL     1      -6.840  24.875   8.045  1.00  0.00     0.119 C 
BRANCH  30  31
HETATM   31  C10 UNL     1      -6.224  23.745   8.685  1.00  0.00     0.172 C 
HETATM   32  O2  UNL     1      -6.305  23.940  10.064  1.00  0.00    -0.648 OA
HETATM   33  O3  UNL     1      -5.615  22.623   8.335  1.00  0.00    -0.648 OA
ENDBRANCH  30  31
ENDBRANCH  29  30
ENDBRANCH   3  29
BRANCH   3  34
HETATM   34  C11 UNL     1      -8.001  28.233   8.480  1.00  0.00     0.283 C 
HETATM   35  O4  UNL     1      -6.895  28.793   8.124  1.00  0.00    -0.265 OA
HETATM   36  N9  UNL     1      -9.216  28.921   8.344  1.00  0.00    -0.263 N 
ATOM     37  H9  UNL     1      -9.983  28.465   8.837  1.00  0.00     0.190 HD
BRANCH  36  38
HETATM   38  N10 UNL     1      -9.601  30.044   7.712  1.00  0.00    -0.274 N 
ATOM     39  H10 UNL     1     -10.019  29.882   6.796  1.00  0.00     0.189 HD
BRANCH  38  40
HETATM   40  C12 UNL     1      -9.535  31.394   8.074  1.00  0.00     0.186 C 
HETATM   41  S1  UNL     1     -10.607  32.565   7.752  1.00  0.00    -0.040 SA
BRANCH  40  42
HETATM   42  N11 UNL     1      -8.355  31.774   8.856  1.00  0.00    -0.360 N 
ATOM     43  H11 UNL     1      -7.467  31.939   8.382  1.00  0.00     0.162 HD
BRANCH  42  44
HETATM   44  C13 UNL     1      -8.434  31.912  10.253  1.00  0.00     0.179 C 
BRANCH  44  45
HETATM   45  C14 UNL     1      -7.600  30.785  10.951  1.00  0.00     0.037 A 
HETATM   46  C15 UNL     1      -6.247  30.847  11.052  1.00  0.00     0.081 A 
HETATM   47  S2  UNL     1      -5.854  29.441  11.935  1.00  0.00    -0.039 SA
HETATM   48  C16 UNL     1      -7.460  28.838  12.120  1.00  0.00     0.288 A 
HETATM   49  O5  UNL     1      -7.820  27.770  12.710  1.00  0.00    -0.260 OA
HETATM   50  N12 UNL     1      -8.212  29.756  11.495  1.00  0.00    -0.319 N 
ATOM     51  H12 UNL     1      -9.226  29.660  11.443  1.00  0.00     0.169 HD
ENDBRANCH  44  45
ENDBRANCH  42  44
ENDBRANCH  40  42
ENDBRANCH  38  40
ENDBRANCH  36  38
ENDBRANCH   3  34
TORSDOF 15
ENDMDL
MODEL 3
REMARK VINA RESULT: -6.997829070      5.408      7.857
REMARK  15 active torsions:
REMARK  status: ('A' for Active; 'I' for Inactive)
REMARK    1  A    between atoms: C2_2  and  N2_4 
REMARK    2  A    between atoms: N2_4  and  N3_5 
REMARK    3  A    between atoms: N3_5  and  C3_7 
REMARK    4  A    between atoms: C4_10  and  C5_11 
REMARK       I    between atoms: C5_11  and  N5_13 
REMARK       I    between atoms: C6_15  and  N7_17 
REMARK    5  A    between atoms: N7_17  and  N8_19 
REMARK    6  A    between atoms: C7_21  and  C8_22 
REMARK    7  A    between atoms: C7_21  and  C11_27 
REMARK    8  A    between atoms: C8_22  and  C9_23 
REMARK    9  A    between atoms: C9_23  and  C10_24 
REMARK       I    between atoms: C11_27  and  N9_29 
REMARK   10  A    between atoms: N9_29  and  N10_31 
REMARK   11  A    between atoms: N10_31  and  C12_33 
REMARK   12  A    between atoms: C12_33  and  N11_35 
REMARK   13  A    between atoms: N11_35  and  C13_37 
REMARK   14  A    between atoms: C13_37  and  C14_38 
REMARK   15  A    between atoms: C18_46  and  N13_47 
ROOT
HETATM    1  N8  UNL     1      -8.645  26.286   9.763  1.00  0.00    -0.297 N 
ATOM      2  H8  UNL     1      -9.499  26.841   9.815  1.00  0.00     0.187 HD
HETATM    3  C7  UNL     1      -7.951  26.850   8.935  1.00  0.00     0.095 C 
ENDROOT
BRANCH   1   4
HETATM    4  N7  UNL     1      -8.825  25.294  10.633  1.00  0.00    -0.273 N 
HETATM    5  C6  UNL     1      -9.794  24.322  10.674  1.00  0.00     0.210 C 
HETATM    6  N5  UNL     1     -10.784  24.234  11.508  1.00  0.00    -0.294 N 
HETATM    7  N6  UNL     1      -9.686  23.282   9.669  1.00  0.00    -0.062 NA
HETATM    8  C5  UNL     1     -10.633  25.485  12.461  1.00  0.00     0.275 C 
ATOM      9  H5  UNL     1     -11.505  23.513  11.540  1.00  0.00     0.172 HD
HETATM   10  O1  UNL     1     -10.890  26.457  11.918  1.00  0.00    -0.266 OA
ATOM     11  H7  UNL     1      -8.137  25.249  11.385  1.00  0.00     0.189 HD
BRANCH   8  12
HETATM   12  C4  UNL     1     -10.247  24.931  13.748  1.00  0.00     0.120 A 
HETATM   13  N4  UNL     1     -10.973  24.007  14.389  1.00  0.00    -0.184 N 
HETATM   14  C3  UNL     1     -10.749  23.597  15.647  1.00  0.00     0.709 A 
ATOM     15  H4  UNL     1     -11.752  23.585  13.886  1.00  0.00     0.184 HD
HETATM   16  N14 UNL     1      -9.705  24.110  16.373  1.00  0.00    -0.175 N 
HETATM   17  C18 UNL     1      -8.959  25.016  15.751  1.00  0.00     0.117 A 
ATOM     18  H14 UNL     1      -9.512  23.814  17.330  1.00  0.00     0.186 HD
HETATM   19  C17 UNL     1      -9.198  25.444  14.471  1.00  0.00     0.084 A 
BRANCH  14  20
HETATM   20  N3  UNL     1     -11.618  22.733  16.148  1.00  0.00    -0.064 N 
ATOM     21  H3  UNL     1     -11.942  22.830  17.111  1.00  0.00     0.221 HD
BRANCH  20  22
HETATM   22  N2  UNL     1     -12.037  21.801  15.435  1.00  0.00    -0.301 NA
BRANCH  22  23
HETATM   23  C2  UNL     1     -12.410  20.859  14.741  1.00  0.00     0.186 C 
HETATM   24  C1  UNL     1     -12.848  19.571  15.388  1.00  0.00     0.104 C 
HETATM   25  N1  UNL     1     -12.497  21.073  13.292  1.00  0.00    -0.070 NA
ENDBRANCH  22  23
ENDBRANCH  20  22
ENDBRANCH  14  20
BRANCH  17  26
HETATM   26  N13 UNL     1      -7.934  25.618  16.358  1.00  0.00    -0.385 N 
ATOM     27 2H13 UNL     1      -8.034  26.051  17.277  1.00  0.00     0.157 HD
ATOM     28 1H13 UNL     1      -7.069  25.637  15.818  1.00  0.00     0.157 HD
ENDBRANCH  17  26
ENDBRANCH   8  12
ENDBRANCH   1   4
BRANCH   3  29
HETATM   29  C8  UNL     1      -6.531  26.271   8.562  1.00  0.00     0.075 C 
BRANCH  29  30
HETATM   30  C9  UNL     1      -6.863  24.884   7.984  1.00  0.00     0.119 C 
BRANCH  30  31
HETATM   31  C10 UNL     1      -6.225  23.777   8.644  1.00  0.00     0.172 C 
HETATM   32  O2  UNL     1      -6.276  24.012  10.018  1.00  0.00    -0.648 OA
HETATM   33  O3  UNL     1      -5.617  22.648   8.313  1.00  0.00    -0.648 OA
ENDBRANCH  30  31
ENDBRANCH  29  30
ENDBRANCH   3  29
BRANCH   3  34
HETATM   34  C11 UNL     1      -8.045  28.261   8.518  1.00  0.00     0.283 C 
HETATM   35  O4  UNL     1      -6.934  28.899   8.371  1.00  0.00    -0.265 OA
HETATM   36  N9  UNL     1      -9.265  28.898   8.251  1.00  0.00    -0.263 N 
ATOM     37  H9  UNL     1     -10.068  28.368   8.591  1.00  0.00     0.190 HD
BRANCH  36  38
HETATM   38  N10 UNL     1      -9.621  30.048   7.649  1.00  0.00    -0.274 N 
ATOM     39  H10 UNL     1     -10.039  29.921   6.728  1.00  0.00     0.189 HD
BRANCH  38  40
HETATM   40  C12 UNL     1      -9.524  31.385   8.050  1.00  0.00     0.186 C 
HETATM   41  S1  UNL     1     -10.633  32.554   7.891  1.00  0.00    -0.040 SA
BRANCH  40  42
HETATM   42  N11 UNL     1      -8.266  31.750   8.708  1.00  0.00    -0.360 N 
ATOM     43  H11 UNL     1      -7.383  31.622   8.215  1.00  0.00     0.162 HD
BRANCH  42  44
HETATM   44  C13 UNL     1      -8.265  32.274  10.012  1.00  0.00     0.179 C 
BRANCH  44  45
HETATM   45  C14 UNL     1      -8.721  31.177  11.032  1.00  0.00     0.037 A 
HETATM   46  C15 UNL     1      -9.856  31.303  11.767  1.00  0.00     0.081 A 
HETATM   47  S2  UNL     1      -9.922  29.841  12.642  1.00  0.00    -0.039 SA
HETATM   48  C16 UNL     1      -8.471  29.143  12.021  1.00  0.00     0.288 A 
HETATM   49  O5  UNL     1      -7.968  28.014  12.320  1.00  0.00    -0.260 OA
HETATM   50  N12 UNL     1      -8.018  30.074  11.169  1.00  0.00    -0.319 N 
ATOM     51  H12 UNL     1      -7.155  29.932  10.643  1.00  0.00     0.169 HD
ENDBRANCH  44  45
ENDBRANCH  42  44
ENDBRANCH  40  42
ENDBRANCH  38  40
ENDBRANCH  36  38
ENDBRANCH   3  34
TORSDOF 15
ENDMDL
MODEL 4
REMARK VINA RESULT: -6.926215095      2.425      4.186
REMARK  15 active torsions:
REMARK  status: ('A' for Active; 'I' for Inactive)
REMARK    1  A    between atoms: C2_2  and  N2_4 
REMARK    2  A    between atoms: N2_4  and  N3_5 
REMARK    3  A    between atoms: N3_5  and  C3_7 
REMARK    4  A    between atoms: C4_10  and  C5_11 
REMARK       I    between atoms: C5_11  and  N5_13 
REMARK       I    between atoms: C6_15  and  N7_17 
REMARK    5  A    between atoms: N7_17  and  N8_19 
REMARK    6  A    between atoms: C7_21  and  C8_22 
REMARK    7  A    between atoms: C7_21  and  C11_27 
REMARK    8  A    between atoms: C8_22  and  C9_23 
REMARK    9  A    between atoms: C9_23  and  C10_24 
REMARK       I    between atoms: C11_27  and  N9_29 
REMARK   10  A    between atoms: N9_29  and  N10_31 
REMARK   11  A    between atoms: N10_31  and  C12_33 
REMARK   12  A    between atoms: C12_33  and  N11_35 
REMARK   13  A    between atoms: N11_35  and  C13_37 
REMARK   14  A    between atoms: C13_37  and  C14_38 
REMARK   15  A    between atoms: C18_46  and  N13_47 
ROOT
HETATM    1  N8  UNL     1      -5.787  26.926  10.089  1.00  0.00    -0.297 N 
ATOM      2  H8  UNL     1      -6.293  27.718  10.485  1.00  0.00     0.187 HD
HETATM    3  C7  UNL     1      -6.529  26.474   9.234  1.00  0.00     0.095 C 
ENDROOT
BRANCH   1   4
HETATM    4  N7  UNL     1      -4.636  26.883  10.755  1.00  0.00    -0.273 N 
HETATM    5  C6  UNL     1      -3.713  25.870  10.858  1.00  0.00     0.210 C 
HETATM    6  N5  UNL     1      -3.479  25.123  11.893  1.00  0.00    -0.294 N 
HETATM    7  N6  UNL     1      -2.917  25.620   9.673  1.00  0.00    -0.062 NA
HETATM    8  C5  UNL     1      -4.484  25.629  13.003  1.00  0.00     0.275 C 
ATOM      9  H5  UNL     1      -2.795  24.370  11.972  1.00  0.00     0.172 HD
HETATM   10  O1  UNL     1      -5.559  25.333  12.758  1.00  0.00    -0.266 OA
ATOM     11  H7  UNL     1      -4.402  27.733  11.268  1.00  0.00     0.189 HD
BRANCH   8  12
HETATM   12  C4  UNL     1      -3.646  26.278  13.998  1.00  0.00     0.120 A 
HETATM   13  N4  UNL     1      -3.348  27.583  13.958  1.00  0.00    -0.184 N 
HETATM   14  C3  UNL     1      -2.446  28.185  14.748  1.00  0.00     0.709 A 
ATOM     15  H4  UNL     1      -3.841  28.160  13.278  1.00  0.00     0.184 HD
HETATM   16  N14 UNL     1      -1.763  27.470  15.698  1.00  0.00    -0.175 N 
HETATM   17  C18 UNL     1      -2.054  26.176  15.768  1.00  0.00     0.117 A 
ATOM     18  H14 UNL     1      -1.073  27.904  16.312  1.00  0.00     0.186 HD
HETATM   19  C17 UNL     1      -2.966  25.561  14.950  1.00  0.00     0.084 A 
BRANCH  14  20
HETATM   20  N3  UNL     1      -2.222  29.469  14.514  1.00  0.00    -0.064 N 
ATOM     21  H3  UNL     1      -2.033  30.107  15.287  1.00  0.00     0.221 HD
BRANCH  20  22
HETATM   22  N2  UNL     1      -2.242  29.890  13.342  1.00  0.00    -0.301 NA
BRANCH  22  23
HETATM   23  C2  UNL     1      -2.231  30.272  12.174  1.00  0.00     0.186 C 
HETATM   24  C1  UNL     1      -1.804  31.679  11.844  1.00  0.00     0.104 C 
HETATM   25  N1  UNL     1      -2.556  29.291  11.133  1.00  0.00    -0.070 NA
ENDBRANCH  22  23
ENDBRANCH  20  22
ENDBRANCH  14  20
BRANCH  17  26
HETATM   26  N13 UNL     1      -1.435  25.362  16.626  1.00  0.00    -0.385 N 
ATOM     27 2H13 UNL     1      -1.887  25.039  17.481  1.00  0.00     0.157 HD
ATOM     28 1H13 UNL     1      -0.475  25.126  16.373  1.00  0.00     0.157 HD
ENDBRANCH  17  26
ENDBRANCH   8  12
ENDBRANCH   1   4
BRANCH   3  29
HETATM   29  C8  UNL     1      -6.095  25.209   8.395  1.00  0.00     0.075 C 
BRANCH  29  30
HETATM   30  C9  UNL     1      -6.399  24.039   9.349  1.00  0.00     0.119 C 
BRANCH  30  31
HETATM   31  C10 UNL     1      -5.414  22.992   9.367  1.00  0.00     0.172 C 
HETATM   32  O2  UNL     1      -5.515  22.291   8.166  1.00  0.00    -0.648 OA
HETATM   33  O3  UNL     1      -4.485  22.526  10.187  1.00  0.00    -0.648 OA
ENDBRANCH  30  31
ENDBRANCH  29  30
ENDBRANCH   3  29
BRANCH   3  34
HETATM   34  C11 UNL     1      -7.618  27.187   8.542  1.00  0.00     0.283 C 
HETATM   35  O4  UNL     1      -8.702  26.523   8.324  1.00  0.00    -0.265 OA
HETATM   36  N9  UNL     1      -7.524  28.532   8.158  1.00  0.00    -0.263 N 
ATOM     37  H9  UNL     1      -6.568  28.887   8.197  1.00  0.00     0.190 HD
BRANCH  36  38
HETATM   38  N10 UNL     1      -8.406  29.463   7.749  1.00  0.00    -0.274 N 
ATOM     39  H10 UNL     1      -8.265  29.773   6.788  1.00  0.00     0.189 HD
BRANCH  38  40
HETATM   40  C12 UNL     1      -9.480  30.085   8.395  1.00  0.00     0.186 C 
HETATM   41  S1  UNL     1      -9.937  31.635   8.299  1.00  0.00    -0.040 SA
BRANCH  40  42
HETATM   42  N11 UNL     1     -10.290  29.208   9.246  1.00  0.00    -0.360 N 
ATOM     43  H11 UNL     1     -10.967  28.576   8.819  1.00  0.00     0.162 HD
BRANCH  42  44
HETATM   44  C13 UNL     1     -10.143  29.230  10.644  1.00  0.00     0.179 C 
BRANCH  44  45
HETATM   45  C14 UNL     1      -9.906  27.778  11.181  1.00  0.00     0.037 A 
HETATM   46  C15 UNL     1      -8.940  27.495  12.092  1.00  0.00     0.081 A 
HETATM   47  S2  UNL     1      -9.147  25.826  12.380  1.00  0.00    -0.039 SA
HETATM   48  C16 UNL     1     -10.468  25.576  11.298  1.00  0.00     0.288 A 
HETATM   49  O5  UNL     1     -11.076  24.484  11.062  1.00  0.00    -0.260 OA
HETATM   50  N12 UNL     1     -10.679  26.794  10.777  1.00  0.00    -0.319 N 
ATOM     51  H12 UNL     1     -11.417  26.952  10.091  1.00  0.00     0.169 HD
ENDBRANCH  44  45
ENDBRANCH  42  44
ENDBRANCH  40  42
ENDBRANCH  38  40
ENDBRANCH  36  38
ENDBRANCH   3  34
TORSDOF 15
ENDMDL
MODEL 5
REMARK VINA RESULT: -6.820597128      4.833      9.533
REMARK  15 active torsions:
REMARK  status: ('A' for Active; 'I' for Inactive)
REMARK    1  A    between atoms: C2_2  and  N2_4 
REMARK    2  A    between atoms: N2_4  and  N3_5 
REMARK    3  A    between atoms: N3_5  and  C3_7 
REMARK    4  A    between atoms: C4_10  and  C5_11 
REMARK       I    between atoms: C5_11  and  N5_13 
REMARK       I    between atoms: C6_15  and  N7_17 
REMARK    5  A    between atoms: N7_17  and  N8_19 
REMARK    6  A    between atoms: C7_21  and  C8_22 
REMARK    7  A    between atoms: C7_21  and  C11_27 
REMARK    8  A    between atoms: C8_22  and  C9_23 
REMARK    9  A    between atoms: C9_23  and  C10_24 
REMARK       I    between atoms: C11_27  and  N9_29 
REMARK   10  A    between atoms: N9_29  and  N10_31 
REMARK   11  A    between atoms: N10_31  and  C12_33 
REMARK   12  A    between atoms: C12_33  and  N11_35 
REMARK   13  A    between atoms: N11_35  and  C13_37 
REMARK   14  A    between atoms: C13_37  and  C14_38 
REMARK   15  A    between atoms: C18_46  and  N13_47 
ROOT
HETATM    1  N8  UNL     1      -9.815  25.127  12.569  1.00  0.00    -0.297 N 
ATOM      2  H8  UNL     1      -9.050  25.394  13.188  1.00  0.00     0.187 HD
HETATM    3  C7  UNL     1      -9.339  25.157  11.447  1.00  0.00     0.095 C 
ENDROOT
BRANCH   1   4
HETATM    4  N7  UNL     1     -10.853  24.913  13.374  1.00  0.00    -0.273 N 
HETATM    5  C6  UNL     1     -11.253  25.596  14.497  1.00  0.00     0.210 C 
HETATM    6  N5  UNL     1     -11.169  25.200  15.730  1.00  0.00    -0.294 N 
HETATM    7  N6  UNL     1     -11.836  26.903  14.265  1.00  0.00    -0.062 NA
HETATM    8  C5  UNL     1     -10.506  23.767  15.658  1.00  0.00     0.275 C 
ATOM      9  H5  UNL     1     -11.465  25.705  16.565  1.00  0.00     0.172 HD
HETATM   10  O1  UNL     1      -9.402  23.832  15.373  1.00  0.00    -0.266 OA
ATOM     11  H7  UNL     1     -11.442  24.120  13.119  1.00  0.00     0.189 HD
BRANCH   8  12
HETATM   12  C4  UNL     1     -11.565  22.846  16.035  1.00  0.00     0.120 A 
HETATM   13  N4  UNL     1     -11.722  21.645  15.464  1.00  0.00    -0.184 N 
HETATM   14  C3  UNL     1     -12.777  20.840  15.655  1.00  0.00     0.709 A 
ATOM     15  H4  UNL     1     -10.985  21.318  14.840  1.00  0.00     0.184 HD
HETATM   16  N14 UNL     1     -13.794  21.210  16.499  1.00  0.00    -0.175 N 
HETATM   17  C18 UNL     1     -13.652  22.390  17.091  1.00  0.00     0.117 A 
ATOM     18  H14 UNL     1     -14.606  20.615  16.663  1.00  0.00     0.186 HD
HETATM   19  C17 UNL     1     -12.579  23.217  16.883  1.00  0.00     0.084 A 
BRANCH  14  20
HETATM   20  N3  UNL     1     -12.803  19.722  14.946  1.00  0.00    -0.064 N 
ATOM     21  H3  UNL     1     -12.125  18.982  15.128  1.00  0.00     0.221 HD
BRANCH  20  22
HETATM   22  N2  UNL     1     -13.661  19.583  14.053  1.00  0.00    -0.301 NA
BRANCH  22  23
HETATM   23  C2  UNL     1     -14.506  19.491  13.167  1.00  0.00     0.186 C 
HETATM   24  C1  UNL     1     -14.643  18.212  12.382  1.00  0.00     0.104 C 
HETATM   25  N1  UNL     1     -15.418  20.625  12.975  1.00  0.00    -0.070 NA
ENDBRANCH  22  23
ENDBRANCH  20  22
ENDBRANCH  14  20
BRANCH  17  26
HETATM   26  N13 UNL     1     -14.586  22.882  17.908  1.00  0.00    -0.385 N 
ATOM     27 2H13 UNL     1     -14.798  22.446  18.805  1.00  0.00     0.157 HD
ATOM     28 1H13 UNL     1     -15.084  23.696  17.546  1.00  0.00     0.157 HD
ENDBRANCH  17  26
ENDBRANCH   8  12
ENDBRANCH   1   4
BRANCH   3  29
HETATM   29  C8  UNL     1     -10.236  24.812  10.194  1.00  0.00     0.075 C 
BRANCH  29  30
HETATM   30  C9  UNL     1     -10.588  23.331  10.419  1.00  0.00     0.119 C 
BRANCH  30  31
HETATM   31  C10 UNL     1     -10.124  22.429   9.400  1.00  0.00     0.172 C 
HETATM   32  O2  UNL     1     -10.815  22.722   8.224  1.00  0.00    -0.648 OA
HETATM   33  O3  UNL     1      -9.262  21.431   9.284  1.00  0.00    -0.648 OA
ENDBRANCH  30  31
ENDBRANCH  29  30
ENDBRANCH   3  29
BRANCH   3  34
HETATM   34  C11 UNL     1      -7.913  25.051  11.090  1.00  0.00     0.283 C 
HETATM   35  O4  UNL     1      -7.640  24.792   9.856  1.00  0.00    -0.265 OA
HETATM   36  N9  UNL     1      -6.878  25.250  12.015  1.00  0.00    -0.263 N 
ATOM     37  H9  UNL     1      -7.207  25.247  12.980  1.00  0.00     0.190 HD
BRANCH  36  38
HETATM   38  N10 UNL     1      -5.550  25.446  11.921  1.00  0.00    -0.274 N 
ATOM     39  H10 UNL     1      -4.993  24.743  12.406  1.00  0.00     0.189 HD
BRANCH  38  40
HETATM   40  C12 UNL     1      -4.790  26.432  11.282  1.00  0.00     0.186 C 
HETATM   41  S1  UNL     1      -3.794  27.514  11.959  1.00  0.00    -0.040 SA
BRANCH  40  42
HETATM   42  N11 UNL     1      -4.908  26.463   9.821  1.00  0.00    -0.360 N 
ATOM     43  H11 UNL     1      -4.823  25.597   9.290  1.00  0.00     0.162 HD
BRANCH  42  44
HETATM   44  C13 UNL     1      -5.139  27.674   9.147  1.00  0.00     0.179 C 
BRANCH  44  45
HETATM   45  C14 UNL     1      -6.655  28.057   9.236  1.00  0.00     0.037 A 
HETATM   46  C15 UNL     1      -7.100  29.053  10.046  1.00  0.00     0.081 A 
HETATM   47  S2  UNL     1      -8.774  29.103   9.723  1.00  0.00    -0.039 SA
HETATM   48  C16 UNL     1      -8.816  27.826   8.563  1.00  0.00     0.288 A 
HETATM   49  O5  UNL     1      -9.833  27.377   7.946  1.00  0.00    -0.260 OA
HETATM   50  N12 UNL     1      -7.535  27.434   8.485  1.00  0.00    -0.319 N 
ATOM     51  H12 UNL     1      -7.254  26.677   7.863  1.00  0.00     0.169 HD
ENDBRANCH  44  45
ENDBRANCH  42  44
ENDBRANCH  40  42
ENDBRANCH  38  40
ENDBRANCH  36  38
ENDBRANCH   3  34
TORSDOF 15
ENDMDL
