MODEL 1
REMARK VINA RESULT: -6.113399319      0.000      0.000
REMARK  18 active torsions:
REMARK  status: ('A' for Active; 'I' for Inactive)
REMARK    1  A    between atoms: C1_4  and  C2_6 
REMARK       I    between atoms: C2_6  and  N3_8 
REMARK    2  A    between atoms: N3_8  and  C3_10 
REMARK    3  A    between atoms: C3_10  and  C4_11 
REMARK    4  A    between atoms: C4_11  and  O2_12 
REMARK    5  A    between atoms: O2_12  and  C5_13 
REMARK    6  A    between atoms: C7_17  and  N5_18 
REMARK    7  A    between atoms: C8_23  and  N7_24 
REMARK    8  A    between atoms: N7_24  and  C9_26 
REMARK    9  A    between atoms: C9_26  and  N8_28 
REMARK   10  A    between atoms: N8_28  and  N9_30 
REMARK       I    between atoms: N9_30  and  C10_32 
REMARK   11  A    between atoms: C10_32  and  C11_34 
REMARK   12  A    between atoms: C11_34  and  C12_35 
REMARK   13  A    between atoms: C12_35  and  C13_36 
REMARK   14  A    between atoms: C16_39  and  N10_40 
REMARK       I    between atoms: N10_40  and  C17_42 
REMARK   15  A    between atoms: C17_42  and  C18_44 
REMARK   16  A    between atoms: C18_44  and  N11_45 
REMARK   17  A    between atoms: N12_51  and  C21_52 
REMARK   18  A    between atoms: C21_52  and  O5_53 
ROOT
HETATM    1  C5  UNL     1      -6.802  30.386  10.336  1.00  0.00     0.225 A 
HETATM    2  N4  UNL     1      -7.491  30.399   9.174  1.00  0.00    -0.316 N 
ATOM      3  H4  UNL     1      -7.410  31.127   8.462  1.00  0.00     0.169 HD
HETATM    4  C6  UNL     1      -8.294  29.332   9.078  1.00  0.00     0.125 A 
HETATM    5  C7  UNL     1      -9.186  28.857   8.145  1.00  0.00     0.145 A 
HETATM    6  N6  UNL     1      -9.873  27.694   8.353  1.00  0.00    -0.174 N 
ATOM      7  H6  UNL     1     -10.532  27.355   7.651  1.00  0.00     0.186 HD
HETATM    8  C8  UNL     1      -9.678  27.001   9.485  1.00  0.00     0.691 A 
HETATM    9  N12 UNL     1      -8.812  27.445  10.410  1.00  0.00    -0.144 N 
HETATM   10  C22 UNL     1      -8.115  28.587  10.243  1.00  0.00     0.159 A 
HETATM   11  N13 UNL     1      -7.210  29.253  10.976  1.00  0.00    -0.305 N 
ATOM     12  H13 UNL     1      -6.872  28.952  11.891  1.00  0.00     0.171 HD
ENDROOT
BRANCH   8  13
HETATM   13  N7  UNL     1     -10.295  25.904   9.732  1.00  0.00    -0.164 N 
ATOM     14  H7  UNL     1     -11.116  25.902  10.337  1.00  0.00     0.186 HD
BRANCH  13  15
HETATM   15  C9  UNL     1      -9.833  24.703   9.164  1.00  0.00     0.205 C 
HETATM   16  S1  UNL     1     -10.868  23.468   8.974  1.00  0.00    -0.039 SA
BRANCH  15  17
HETATM   17  N8  UNL     1      -8.481  24.584   8.770  1.00  0.00    -0.273 N 
ATOM     18  H8  UNL     1      -8.154  25.121   7.967  1.00  0.00     0.189 HD
BRANCH  17  19
HETATM   19  N9  UNL     1      -7.571  23.749   9.445  1.00  0.00    -0.268 N 
HETATM   20  C10 UNL     1      -6.237  23.722   8.970  1.00  0.00     0.236 C 
HETATM   21  O3  UNL     1      -5.864  24.403   7.993  1.00  0.00    -0.272 OA
ATOM     22  H9  UNL     1      -7.860  23.187  10.245  1.00  0.00     0.190 HD
BRANCH  20  23
HETATM   23  C11 UNL     1      -5.281  22.823   9.707  1.00  0.00     0.109 C 
BRANCH  23  24
HETATM   24  C12 UNL     1      -3.928  23.489   9.870  1.00  0.00     0.048 C 
BRANCH  24  25
HETATM   25  C13 UNL     1      -4.037  24.442  10.990  1.00  0.00    -0.058 A 
HETATM   26  C14 UNL     1      -4.457  24.026  12.208  1.00  0.00     0.009 A 
HETATM   27  C15 UNL     1      -4.567  24.915  13.279  1.00  0.00     0.030 A 
HETATM   28  C16 UNL     1      -4.240  26.229  13.076  1.00  0.00     0.034 A 
HETATM   29  C19 UNL     1      -3.809  26.637  11.807  1.00  0.00     0.030 A 
HETATM   30  C20 UNL     1      -3.710  25.758  10.788  1.00  0.00     0.009 A 
BRANCH  28  31
HETATM   31  N10 UNL     1      -4.303  27.212  14.089  1.00  0.00    -0.326 N 
HETATM   32  C17 UNL     1      -5.333  28.120  14.347  1.00  0.00     0.247 C 
HETATM   33  O4  UNL     1      -6.395  28.215  13.709  1.00  0.00    -0.271 OA
ATOM     34  H10 UNL     1      -3.496  27.265  14.710  1.00  0.00     0.169 HD
BRANCH  32  35
HETATM   35  C18 UNL     1      -5.199  29.099  15.489  1.00  0.00     0.332 C 
BRANCH  35  36
HETATM   36  N11 UNL     1      -3.809  29.246  15.788  1.00  0.00    -0.071 N 
ATOM     37 3H11 UNL     1      -3.360  28.359  16.022  1.00  0.00     0.274 HD
ATOM     38 2H11 UNL     1      -3.250  29.470  14.964  1.00  0.00     0.274 HD
ATOM     39 1H11 UNL     1      -3.715  29.942  16.528  1.00  0.00     0.274 HD
ENDBRANCH  35  36
ENDBRANCH  32  35
ENDBRANCH  28  31
ENDBRANCH  24  25
ENDBRANCH  23  24
ENDBRANCH  20  23
ENDBRANCH  17  19
ENDBRANCH  15  17
ENDBRANCH  13  15
ENDBRANCH   8  13
BRANCH   9  40
HETATM   40  C21 UNL     1      -8.617  26.682  11.620  1.00  0.00     0.316 C 
BRANCH  40  41
HETATM   41  O5  UNL     1      -7.447  25.929  11.596  1.00  0.00    -0.381 OA
ATOM     42  H5  UNL     1      -6.668  26.457  11.725  1.00  0.00     0.211 HD
ENDBRANCH  40  41
ENDBRANCH   9  40
BRANCH   5  43
HETATM   43  N5  UNL     1      -9.398  29.492   7.056  1.00  0.00    -0.383 N 
ATOM     44  H52 UNL     1      -8.785  30.277   6.833  1.00  0.00     0.157 HD
ATOM     45  H51 UNL     1     -10.157  29.222   6.430  1.00  0.00     0.157 HD
ENDBRANCH   5  43
BRANCH   1  46
HETATM   46  O2  UNL     1      -5.883  31.256  10.855  1.00  0.00    -0.320 OA
BRANCH  46  47
HETATM   47  C4  UNL     1      -5.031  31.008  11.945  1.00  0.00     0.198 C 
BRANCH  47  48
HETATM   48  C3  UNL     1      -3.642  30.597  11.557  1.00  0.00     0.149 C 
BRANCH  48  49
HETATM   49  N3  UNL     1      -2.861  30.076  12.639  1.00  0.00    -0.353 N 
HETATM   50  C2  UNL     1      -1.498  29.698  12.546  1.00  0.00     0.282 C 
HETATM   51  O1  UNL     1      -0.934  29.831  11.408  1.00  0.00    -0.265 OA
ATOM     52  H3  UNL     1      -3.321  29.969  13.543  1.00  0.00     0.162 HD
BRANCH  50  53
HETATM   53  C1  UNL     1      -0.772  29.183  13.687  1.00  0.00     0.178 C 
HETATM   54  N1  UNL     1       0.345  29.703  14.025  1.00  0.00    -0.383 N 
ATOM     55  H12 UNL     1       0.857  29.341  14.829  1.00  0.00     0.157 HD
ATOM     56  H11 UNL     1       0.730  30.483  13.493  1.00  0.00     0.157 HD
HETATM   57  N2  UNL     1      -1.304  28.105  14.424  1.00  0.00    -0.077 NA
ENDBRANCH  50  53
ENDBRANCH  48  49
ENDBRANCH  47  48
ENDBRANCH  46  47
ENDBRANCH   1  46
TORSDOF 18
ENDMDL
MODEL 2
REMARK VINA RESULT: -5.967510470      3.842      6.619
REMARK  18 active torsions:
REMARK  status: ('A' for Active; 'I' for Inactive)
REMARK    1  A    between atoms: C1_4  and  C2_6 
REMARK       I    between atoms: C2_6  and  N3_8 
REMARK    2  A    between atoms: N3_8  and  C3_10 
REMARK    3  A    between atoms: C3_10  and  C4_11 
REMARK    4  A    between atoms: C4_11  and  O2_12 
REMARK    5  A    between atoms: O2_12  and  C5_13 
REMARK    6  A    between atoms: C7_17  and  N5_18 
REMARK    7  A    between atoms: C8_23  and  N7_24 
REMARK    8  A    between atoms: N7_24  and  C9_26 
REMARK    9  A    between atoms: C9_26  and  N8_28 
REMARK   10  A    between atoms: N8_28  and  N9_30 
REMARK       I    between atoms: N9_30  and  C10_32 
REMARK   11  A    between atoms: C10_32  and  C11_34 
REMARK   12  A    between atoms: C11_34  and  C12_35 
REMARK   13  A    between atoms: C12_35  and  C13_36 
REMARK   14  A    between atoms: C16_39  and  N10_40 
REMARK       I    between atoms: N10_40  and  C17_42 
REMARK   15  A    between atoms: C17_42  and  C18_44 
REMARK   16  A    between atoms: C18_44  and  N11_45 
REMARK   17  A    between atoms: N12_51  and  C21_52 
REMARK   18  A    between atoms: C21_52  and  O5_53 
ROOT
HETATM    1  C5  UNL     1      -6.920  24.421   8.607  1.00  0.00     0.225 A 
HETATM    2  N4  UNL     1      -8.125  24.207   9.179  1.00  0.00    -0.316 N 
ATOM      3  H4  UNL     1      -8.465  23.295   9.486  1.00  0.00     0.169 HD
HETATM    4  C6  UNL     1      -8.814  25.349   9.290  1.00  0.00     0.125 A 
HETATM    5  C7  UNL     1     -10.050  25.704   9.778  1.00  0.00     0.145 A 
HETATM    6  N6  UNL     1     -10.476  27.003   9.745  1.00  0.00    -0.174 N 
ATOM      7  H6  UNL     1     -11.396  27.250  10.111  1.00  0.00     0.186 HD
HETATM    8  C8  UNL     1      -9.679  27.950   9.228  1.00  0.00     0.691 A 
HETATM    9  N12 UNL     1      -8.468  27.626   8.746  1.00  0.00    -0.144 N 
HETATM   10  C22 UNL     1      -8.012  26.358   8.760  1.00  0.00     0.159 A 
HETATM   11  N13 UNL     1      -6.879  25.762   8.358  1.00  0.00    -0.305 N 
ATOM     12  H13 UNL     1      -6.092  26.246   7.925  1.00  0.00     0.171 HD
ENDROOT
BRANCH   8  13
HETATM   13  N7  UNL     1     -10.027  29.183   9.172  1.00  0.00    -0.164 N 
ATOM     14  H7  UNL     1     -10.190  29.629   8.270  1.00  0.00     0.186 HD
BRANCH  13  15
HETATM   15  C9  UNL     1     -10.183  29.916  10.362  1.00  0.00     0.205 C 
HETATM   16  S1  UNL     1     -11.551  30.754  10.603  1.00  0.00    -0.039 SA
BRANCH  15  17
HETATM   17  N8  UNL     1      -9.152  29.919  11.329  1.00  0.00    -0.273 N 
ATOM     18  H8  UNL     1      -8.402  30.605  11.246  1.00  0.00     0.189 HD
BRANCH  17  19
HETATM   19  N9  UNL     1      -9.124  29.007  12.401  1.00  0.00    -0.268 N 
HETATM   20  C10 UNL     1      -7.974  28.189  12.530  1.00  0.00     0.236 C 
HETATM   21  O3  UNL     1      -7.014  28.260  11.736  1.00  0.00    -0.272 OA
ATOM     22  H9  UNL     1      -9.900  28.938  13.059  1.00  0.00     0.190 HD
BRANCH  20  23
HETATM   23  C11 UNL     1      -7.965  27.222  13.683  1.00  0.00     0.109 C 
BRANCH  23  24
HETATM   24  C12 UNL     1      -9.033  27.583  14.698  1.00  0.00     0.048 C 
BRANCH  24  25
HETATM   25  C13 UNL     1      -9.685  26.329  15.118  1.00  0.00    -0.058 A 
HETATM   26  C14 UNL     1     -11.035  26.250  15.199  1.00  0.00     0.009 A 
HETATM   27  C15 UNL     1     -11.669  25.070  15.596  1.00  0.00     0.030 A 
HETATM   28  C16 UNL     1     -10.896  23.983  15.905  1.00  0.00     0.034 A 
HETATM   29  C19 UNL     1      -9.502  24.088  15.815  1.00  0.00     0.030 A 
HETATM   30  C20 UNL     1      -8.913  25.239  15.428  1.00  0.00     0.009 A 
BRANCH  28  31
HETATM   31  N10 UNL     1     -11.430  22.738  16.306  1.00  0.00    -0.326 N 
HETATM   32  C17 UNL     1     -12.010  21.751  15.507  1.00  0.00     0.247 C 
HETATM   33  O4  UNL     1     -12.155  21.806  14.274  1.00  0.00    -0.271 OA
ATOM     34  H10 UNL     1     -11.387  22.535  17.305  1.00  0.00     0.169 HD
BRANCH  32  35
HETATM   35  C18 UNL     1     -12.525  20.481  16.142  1.00  0.00     0.332 C 
BRANCH  35  36
HETATM   36  N11 UNL     1     -12.527  19.455  15.146  1.00  0.00    -0.071 N 
ATOM     37 3H11 UNL     1     -13.431  18.989  15.063  1.00  0.00     0.274 HD
ATOM     38 2H11 UNL     1     -12.476  19.827  14.198  1.00  0.00     0.274 HD
ATOM     39 1H11 UNL     1     -11.768  18.808  15.356  1.00  0.00     0.274 HD
ENDBRANCH  35  36
ENDBRANCH  32  35
ENDBRANCH  28  31
ENDBRANCH  24  25
ENDBRANCH  23  24
ENDBRANCH  20  23
ENDBRANCH  17  19
ENDBRANCH  15  17
ENDBRANCH  13  15
ENDBRANCH   8  13
BRANCH   9  40
HETATM   40  C21 UNL     1      -7.626  28.662   8.195  1.00  0.00     0.316 C 
BRANCH  40  41
HETATM   41  O5  UNL     1      -6.911  29.348   9.173  1.00  0.00    -0.381 OA
ATOM     42  H5  UNL     1      -6.651  30.218   8.893  1.00  0.00     0.211 HD
ENDBRANCH  40  41
ENDBRANCH   9  40
BRANCH   5  43
HETATM   43  N5  UNL     1     -10.837  24.828  10.276  1.00  0.00    -0.383 N 
ATOM     44  H52 UNL     1     -11.143  24.955  11.241  1.00  0.00     0.157 HD
ATOM     45  H51 UNL     1     -11.147  24.028   9.725  1.00  0.00     0.157 HD
ENDBRANCH   5  43
BRANCH   1  46
HETATM   46  O2  UNL     1      -5.897  23.566   8.299  1.00  0.00    -0.320 OA
BRANCH  46  47
HETATM   47  C4  UNL     1      -5.328  22.611   9.159  1.00  0.00     0.198 C 
BRANCH  47  48
HETATM   48  C3  UNL     1      -4.112  23.094   9.893  1.00  0.00     0.149 C 
BRANCH  48  49
HETATM   49  N3  UNL     1      -4.231  24.423  10.414  1.00  0.00    -0.353 N 
HETATM   50  C2  UNL     1      -3.528  25.552   9.924  1.00  0.00     0.282 C 
HETATM   51  O1  UNL     1      -2.726  25.358   8.949  1.00  0.00    -0.265 OA
ATOM     52  H3  UNL     1      -4.870  24.568  11.196  1.00  0.00     0.162 HD
BRANCH  50  53
HETATM   53  C1  UNL     1      -3.705  26.868  10.499  1.00  0.00     0.178 C 
HETATM   54  N1  UNL     1      -4.482  27.714   9.940  1.00  0.00    -0.383 N 
ATOM     55  H12 UNL     1      -4.607  28.642  10.345  1.00  0.00     0.157 HD
ATOM     56  H11 UNL     1      -4.981  27.466   9.085  1.00  0.00     0.157 HD
HETATM   57  N2  UNL     1      -3.015  27.211  11.680  1.00  0.00    -0.077 NA
ENDBRANCH  50  53
ENDBRANCH  48  49
ENDBRANCH  47  48
ENDBRANCH  46  47
ENDBRANCH   1  46
TORSDOF 18
ENDMDL
MODEL 3
REMARK VINA RESULT: -5.827459312      3.518      6.091
REMARK  18 active torsions:
REMARK  status: ('A' for Active; 'I' for Inactive)
REMARK    1  A    between atoms: C1_4  and  C2_6 
REMARK       I    between atoms: C2_6  and  N3_8 
REMARK    2  A    between atoms: N3_8  and  C3_10 
REMARK    3  A    between atoms: C3_10  and  C4_11 
REMARK    4  A    between atoms: C4_11  and  O2_12 
REMARK    5  A    between atoms: O2_12  and  C5_13 
REMARK    6  A    between atoms: C7_17  and  N5_18 
REMARK    7  A    between atoms: C8_23  and  N7_24 
REMARK    8  A    between atoms: N7_24  and  C9_26 
REMARK    9  A    between atoms: C9_26  and  N8_28 
REMARK   10  A    between atoms: N8_28  and  N9_30 
REMARK       I    between atoms: N9_30  and  C10_32 
REMARK   11  A    between atoms: C10_32  and  C11_34 
REMARK   12  A    between atoms: C11_34  and  C12_35 
REMARK   13  A    between atoms: C12_35  and  C13_36 
REMARK   14  A    between atoms: C16_39  and  N10_40 
REMARK       I    between atoms: N10_40  and  C17_42 
REMARK   15  A    between atoms: C17_42  and  C18_44 
REMARK   16  A    between atoms: C18_44  and  N11_45 
REMARK   17  A    between atoms: N12_51  and  C21_52 
REMARK   18  A    between atoms: C21_52  and  O5_53 
ROOT
HETATM    1  C5  UNL     1      -6.674  24.425   8.821  1.00  0.00     0.225 A 
HETATM    2  N4  UNL     1      -7.955  24.229   9.200  1.00  0.00    -0.316 N 
ATOM      3  H4  UNL     1      -8.354  23.322   9.442  1.00  0.00     0.169 HD
HETATM    4  C6  UNL     1      -8.634  25.384   9.216  1.00  0.00     0.125 A 
HETATM    5  C7  UNL     1      -9.923  25.758   9.513  1.00  0.00     0.145 A 
HETATM    6  N6  UNL     1     -10.317  27.065   9.429  1.00  0.00    -0.174 N 
ATOM      7  H6  UNL     1     -11.277  27.327   9.654  1.00  0.00     0.186 HD
HETATM    8  C8  UNL     1      -9.432  28.001   9.050  1.00  0.00     0.691 A 
HETATM    9  N12 UNL     1      -8.168  27.658   8.755  1.00  0.00    -0.144 N 
HETATM   10  C22 UNL     1      -7.742  26.381   8.826  1.00  0.00     0.159 A 
HETATM   11  N13 UNL     1      -6.572  25.767   8.596  1.00  0.00    -0.305 N 
ATOM     12  H13 UNL     1      -5.720  26.239   8.292  1.00  0.00     0.171 HD
ENDROOT
BRANCH   8  13
HETATM   13  N7  UNL     1      -9.747  29.241   8.954  1.00  0.00    -0.164 N 
ATOM     14  H7  UNL     1      -9.756  29.698   8.043  1.00  0.00     0.186 HD
BRANCH  13  15
HETATM   15  C9  UNL     1     -10.077  29.966  10.113  1.00  0.00     0.205 C 
HETATM   16  S1  UNL     1     -11.563  30.603  10.251  1.00  0.00    -0.039 SA
BRANCH  15  17
HETATM   17  N8  UNL     1      -9.119  30.133  11.138  1.00  0.00    -0.273 N 
ATOM     18  H8  UNL     1      -8.661  31.039  11.240  1.00  0.00     0.189 HD
BRANCH  17  19
HETATM   19  N9  UNL     1      -8.773  29.095  12.023  1.00  0.00    -0.268 N 
HETATM   20  C10 UNL     1      -7.394  28.858  12.241  1.00  0.00     0.236 C 
HETATM   21  O3  UNL     1      -6.505  29.532  11.683  1.00  0.00    -0.272 OA
ATOM     22  H9  UNL     1      -9.488  28.534  12.488  1.00  0.00     0.190 HD
BRANCH  20  23
HETATM   23  C11 UNL     1      -7.048  27.742  13.191  1.00  0.00     0.109 C 
BRANCH  23  24
HETATM   24  C12 UNL     1      -7.559  28.043  14.587  1.00  0.00     0.048 C 
BRANCH  24  25
HETATM   25  C13 UNL     1      -8.289  26.851  15.057  1.00  0.00    -0.058 A 
HETATM   26  C14 UNL     1      -7.637  25.681  15.260  1.00  0.00     0.009 A 
HETATM   27  C15 UNL     1      -8.314  24.543  15.704  1.00  0.00     0.030 A 
HETATM   28  C16 UNL     1      -9.661  24.629  15.932  1.00  0.00     0.034 A 
HETATM   29  C19 UNL     1     -10.314  25.849  15.715  1.00  0.00     0.030 A 
HETATM   30  C20 UNL     1      -9.638  26.936  15.286  1.00  0.00     0.009 A 
BRANCH  28  31
HETATM   31  N10 UNL     1     -10.442  23.546  16.392  1.00  0.00    -0.326 N 
HETATM   32  C17 UNL     1     -11.309  22.734  15.657  1.00  0.00     0.247 C 
HETATM   33  O4  UNL     1     -11.542  22.834  14.440  1.00  0.00    -0.271 OA
ATOM     34  H10 UNL     1     -10.363  23.329  17.385  1.00  0.00     0.169 HD
BRANCH  32  35
HETATM   35  C18 UNL     1     -12.059  21.620  16.348  1.00  0.00     0.332 C 
BRANCH  35  36
HETATM   36  N11 UNL     1     -12.582  20.747  15.344  1.00  0.00    -0.071 N 
ATOM     37 3H11 UNL     1     -12.415  21.090  14.397  1.00  0.00     0.274 HD
ATOM     38 2H11 UNL     1     -12.058  19.875  15.269  1.00  0.00     0.274 HD
ATOM     39 1H11 UNL     1     -13.572  20.596  15.539  1.00  0.00     0.274 HD
ENDBRANCH  35  36
ENDBRANCH  32  35
ENDBRANCH  28  31
ENDBRANCH  24  25
ENDBRANCH  23  24
ENDBRANCH  20  23
ENDBRANCH  17  19
ENDBRANCH  15  17
ENDBRANCH  13  15
ENDBRANCH   8  13
BRANCH   9  40
HETATM   40  C21 UNL     1      -7.234  28.682   8.350  1.00  0.00     0.316 C 
BRANCH  40  41
HETATM   41  O5  UNL     1      -5.995  28.553   8.971  1.00  0.00    -0.381 OA
ATOM     42  H5  UNL     1      -5.670  29.377   9.313  1.00  0.00     0.211 HD
ENDBRANCH  40  41
ENDBRANCH   9  40
BRANCH   5  43
HETATM   43  N5  UNL     1     -10.792  24.893   9.877  1.00  0.00    -0.383 N 
ATOM     44  H52 UNL     1     -10.783  23.984   9.414  1.00  0.00     0.157 HD
ATOM     45  H51 UNL     1     -11.471  25.107  10.606  1.00  0.00     0.157 HD
ENDBRANCH   5  43
BRANCH   1  46
HETATM   46  O2  UNL     1      -5.631  23.553   8.664  1.00  0.00    -0.320 OA
BRANCH  46  47
HETATM   47  C4  UNL     1      -4.821  23.037   9.690  1.00  0.00     0.198 C 
BRANCH  47  48
HETATM   48  C3  UNL     1      -3.507  23.742   9.848  1.00  0.00     0.149 C 
BRANCH  48  49
HETATM   49  N3  UNL     1      -3.520  24.796  10.817  1.00  0.00    -0.353 N 
HETATM   50  C2  UNL     1      -3.618  26.177  10.512  1.00  0.00     0.282 C 
HETATM   51  O1  UNL     1      -3.694  26.495   9.277  1.00  0.00    -0.265 OA
ATOM     52  H3  UNL     1      -3.454  24.533  11.801  1.00  0.00     0.162 HD
BRANCH  50  53
HETATM   53  C1  UNL     1      -3.632  27.187  11.548  1.00  0.00     0.178 C 
HETATM   54  N1  UNL     1      -3.877  28.405  11.254  1.00  0.00    -0.383 N 
ATOM     55  H12 UNL     1      -3.886  29.117  11.984  1.00  0.00     0.157 HD
ATOM     56  H11 UNL     1      -4.064  28.673  10.288  1.00  0.00     0.157 HD
HETATM   57  N2  UNL     1      -3.373  26.817  12.884  1.00  0.00    -0.077 NA
ENDBRANCH  50  53
ENDBRANCH  48  49
ENDBRANCH  47  48
ENDBRANCH  46  47
ENDBRANCH   1  46
TORSDOF 18
ENDMDL
MODEL 4
REMARK VINA RESULT: -5.768118874      2.873      6.558
REMARK  18 active torsions:
REMARK  status: ('A' for Active; 'I' for Inactive)
REMARK    1  A    between atoms: C1_4  and  C2_6 
REMARK       I    between atoms: C2_6  and  N3_8 
REMARK    2  A    between atoms: N3_8  and  C3_10 
REMARK    3  A    between atoms: C3_10  and  C4_11 
REMARK    4  A    between atoms: C4_11  and  O2_12 
REMARK    5  A    between atoms: O2_12  and  C5_13 
REMARK    6  A    between atoms: C7_17  and  N5_18 
REMARK    7  A    between atoms: C8_23  and  N7_24 
REMARK    8  A    between atoms: N7_24  and  C9_26 
REMARK    9  A    between atoms: C9_26  and  N8_28 
REMARK   10  A    between atoms: N8_28  and  N9_30 
REMARK       I    between atoms: N9_30  and  C10_32 
REMARK   11  A    between atoms: C10_32  and  C11_34 
REMARK   12  A    between atoms: C11_34  and  C12_35 
REMARK   13  A    between atoms: C12_35  and  C13_36 
REMARK   14  A    between atoms: C16_39  and  N10_40 
REMARK       I    between atoms: N10_40  and  C17_42 
REMARK   15  A    between atoms: C17_42  and  C18_44 
REMARK   16  A    between atoms: C18_44  and  N11_45 
REMARK   17  A    between atoms: N12_51  and  C21_52 
REMARK   18  A    between atoms: C21_52  and  O5_53 
ROOT
HETATM    1  C5  UNL     1      -5.580  26.361   9.181  1.00  0.00     0.225 A 
HETATM    2  N4  UNL     1      -5.319  27.323  10.092  1.00  0.00    -0.316 N 
ATOM      3  H4  UNL     1      -4.539  27.301  10.749  1.00  0.00     0.169 HD
HETATM    4  C6  UNL     1      -6.221  28.311  10.020  1.00  0.00     0.125 A 
HETATM    5  C7  UNL     1      -6.431  29.496  10.685  1.00  0.00     0.145 A 
HETATM    6  N6  UNL     1      -7.480  30.311  10.363  1.00  0.00    -0.174 N 
ATOM      7  H6  UNL     1      -7.622  31.188  10.865  1.00  0.00     0.186 HD
HETATM    8  C8  UNL     1      -8.322  29.952   9.381  1.00  0.00     0.691 A 
HETATM    9  N12 UNL     1      -8.136  28.799   8.719  1.00  0.00    -0.144 N 
HETATM   10  C22 UNL     1      -7.114  27.969   9.007  1.00  0.00     0.159 A 
HETATM   11  N13 UNL     1      -6.697  26.788   8.524  1.00  0.00    -0.305 N 
ATOM     12  H13 UNL     1      -7.154  26.278   7.768  1.00  0.00     0.171 HD
ENDROOT
BRANCH   8  13
HETATM   13  N7  UNL     1      -9.322  30.678   9.037  1.00  0.00    -0.164 N 
ATOM     14  H7  UNL     1      -9.305  31.188   8.154  1.00  0.00     0.186 HD
BRANCH  13  15
HETATM   15  C9  UNL     1     -10.441  30.766   9.883  1.00  0.00     0.205 C 
HETATM   16  S1  UNL     1     -10.708  32.141  10.702  1.00  0.00    -0.039 SA
BRANCH  15  17
HETATM   17  N8  UNL     1     -11.315  29.664  10.014  1.00  0.00    -0.273 N 
ATOM     18  H8  UNL     1     -11.710  29.246   9.171  1.00  0.00     0.189 HD
BRANCH  17  19
HETATM   19  N9  UNL     1     -11.661  29.122  11.266  1.00  0.00    -0.268 N 
HETATM   20  C10 UNL     1     -11.071  27.885  11.625  1.00  0.00     0.236 C 
HETATM   21  O3  UNL     1     -10.274  27.285  10.877  1.00  0.00    -0.272 OA
ATOM     22  H9  UNL     1     -12.311  29.600  11.890  1.00  0.00     0.190 HD
BRANCH  20  23
HETATM   23  C11 UNL     1     -11.455  27.324  12.969  1.00  0.00     0.109 C 
BRANCH  23  24
HETATM   24  C12 UNL     1     -11.026  28.255  14.086  1.00  0.00     0.048 C 
BRANCH  24  25
HETATM   25  C13 UNL     1      -9.598  27.999  14.350  1.00  0.00    -0.058 A 
HETATM   26  C14 UNL     1      -8.706  29.018  14.355  1.00  0.00     0.009 A 
HETATM   27  C15 UNL     1      -7.350  28.793  14.602  1.00  0.00     0.030 A 
HETATM   28  C16 UNL     1      -6.932  27.512  14.842  1.00  0.00     0.034 A 
HETATM   29  C19 UNL     1      -7.872  26.473  14.831  1.00  0.00     0.030 A 
HETATM   30  C20 UNL     1      -9.177  26.716  14.590  1.00  0.00     0.009 A 
BRANCH  28  31
HETATM   31  N10 UNL     1      -5.589  27.170  15.114  1.00  0.00    -0.326 N 
HETATM   32  C17 UNL     1      -4.524  27.074  14.215  1.00  0.00     0.247 C 
HETATM   33  O4  UNL     1      -4.585  27.280  12.991  1.00  0.00    -0.271 OA
ATOM     34  H10 UNL     1      -5.368  26.968  16.089  1.00  0.00     0.169 HD
BRANCH  32  35
HETATM   35  C18 UNL     1      -3.153  26.688  14.717  1.00  0.00     0.332 C 
BRANCH  35  36
HETATM   36  N11 UNL     1      -3.159  25.285  14.993  1.00  0.00    -0.071 N 
ATOM     37 3H11 UNL     1      -3.343  25.077  15.975  1.00  0.00     0.274 HD
ATOM     38 2H11 UNL     1      -3.970  24.810  14.597  1.00  0.00     0.274 HD
ATOM     39 1H11 UNL     1      -2.276  24.893  14.666  1.00  0.00     0.274 HD
ENDBRANCH  35  36
ENDBRANCH  32  35
ENDBRANCH  28  31
ENDBRANCH  24  25
ENDBRANCH  23  24
ENDBRANCH  20  23
ENDBRANCH  17  19
ENDBRANCH  15  17
ENDBRANCH  13  15
ENDBRANCH   8  13
BRANCH   9  40
HETATM   40  C21 UNL     1      -9.054  28.433   7.665  1.00  0.00     0.316 C 
BRANCH  40  41
HETATM   41  O5  UNL     1      -9.968  27.462   8.064  1.00  0.00    -0.381 OA
ATOM     42  H5  UNL     1      -9.607  26.584   8.030  1.00  0.00     0.211 HD
ENDBRANCH  40  41
ENDBRANCH   9  40
BRANCH   5  43
HETATM   43  N5  UNL     1      -5.650  29.869  11.626  1.00  0.00    -0.383 N 
ATOM     44  H52 UNL     1      -5.156  29.148  12.152  1.00  0.00     0.157 HD
ATOM     45  H51 UNL     1      -5.525  30.858  11.843  1.00  0.00     0.157 HD
ENDBRANCH   5  43
BRANCH   1  46
HETATM   46  O2  UNL     1      -4.940  25.186   8.894  1.00  0.00    -0.320 OA
BRANCH  46  47
HETATM   47  C4  UNL     1      -5.278  23.916   9.392  1.00  0.00     0.198 C 
BRANCH  47  48
HETATM   48  C3  UNL     1      -6.341  23.211   8.603  1.00  0.00     0.149 C 
BRANCH  48  49
HETATM   49  N3  UNL     1      -7.548  22.965   9.335  1.00  0.00    -0.353 N 
HETATM   50  C2  UNL     1      -8.725  23.749   9.243  1.00  0.00     0.282 C 
HETATM   51  O1  UNL     1      -8.696  24.751   8.450  1.00  0.00    -0.265 OA
ATOM     52  H3  UNL     1      -7.560  22.166   9.969  1.00  0.00     0.162 HD
BRANCH  50  53
HETATM   53  C1  UNL     1      -9.910  23.436  10.011  1.00  0.00     0.178 C 
HETATM   54  N1  UNL     1     -10.650  24.374  10.463  1.00  0.00    -0.383 N 
ATOM     55  H12 UNL     1     -11.486  24.153  11.004  1.00  0.00     0.157 HD
ATOM     56  H11 UNL     1     -10.409  25.349  10.285  1.00  0.00     0.157 HD
HETATM   57  N2  UNL     1     -10.244  22.088  10.258  1.00  0.00    -0.077 NA
ENDBRANCH  50  53
ENDBRANCH  48  49
ENDBRANCH  47  48
ENDBRANCH  46  47
ENDBRANCH   1  46
TORSDOF 18
ENDMDL
MODEL 5
REMARK VINA RESULT: -5.736937218      2.702      5.467
REMARK  18 active torsions:
REMARK  status: ('A' for Active; 'I' for Inactive)
REMARK    1  A    between atoms: C1_4  and  C2_6 
REMARK       I    between atoms: C2_6  and  N3_8 
REMARK    2  A    between atoms: N3_8  and  C3_10 
REMARK    3  A    between atoms: C3_10  and  C4_11 
REMARK    4  A    between atoms: C4_11  and  O2_12 
REMARK    5  A    between atoms: O2_12  and  C5_13 
REMARK    6  A    between atoms: C7_17  and  N5_18 
REMARK    7  A    between atoms: C8_23  and  N7_24 
REMARK    8  A    between atoms: N7_24  and  C9_26 
REMARK    9  A    between atoms: C9_26  and  N8_28 
REMARK   10  A    between atoms: N8_28  and  N9_30 
REMARK       I    between atoms: N9_30  and  C10_32 
REMARK   11  A    between atoms: C10_32  and  C11_34 
REMARK   12  A    between atoms: C11_34  and  C12_35 
REMARK   13  A    between atoms: C12_35  and  C13_36 
REMARK   14  A    between atoms: C16_39  and  N10_40 
REMARK       I    between atoms: N10_40  and  C17_42 
REMARK   15  A    between atoms: C17_42  and  C18_44 
REMARK   16  A    between atoms: C18_44  and  N11_45 
REMARK   17  A    between atoms: N12_51  and  C21_52 
REMARK   18  A    between atoms: C21_52  and  O5_53 
ROOT
HETATM    1  C5  UNL     1      -6.494  24.142   8.827  1.00  0.00     0.225 A 
HETATM    2  N4  UNL     1      -7.793  23.970   9.156  1.00  0.00    -0.316 N 
ATOM      3  H4  UNL     1      -8.203  23.081   9.443  1.00  0.00     0.169 HD
HETATM    4  C6  UNL     1      -8.470  25.121   9.055  1.00  0.00     0.125 A 
HETATM    5  C7  UNL     1      -9.772  25.512   9.261  1.00  0.00     0.145 A 
HETATM    6  N6  UNL     1     -10.161  26.808   9.063  1.00  0.00    -0.174 N 
ATOM      7  H6  UNL     1     -11.130  27.083   9.220  1.00  0.00     0.186 HD
HETATM    8  C8  UNL     1      -9.258  27.716   8.661  1.00  0.00     0.691 A 
HETATM    9  N12 UNL     1      -7.982  27.357   8.453  1.00  0.00    -0.144 N 
HETATM   10  C22 UNL     1      -7.560  26.090   8.637  1.00  0.00     0.159 A 
HETATM   11  N13 UNL     1      -6.380  25.464   8.510  1.00  0.00    -0.305 N 
ATOM     12  H13 UNL     1      -5.514  25.915   8.215  1.00  0.00     0.171 HD
ENDROOT
BRANCH   8  13
HETATM   13  N7  UNL     1      -9.567  28.946   8.460  1.00  0.00    -0.164 N 
ATOM     14  H7  UNL     1      -9.590  29.320   7.512  1.00  0.00     0.186 HD
BRANCH  13  15
HETATM   15  C9  UNL     1      -9.873  29.773   9.556  1.00  0.00     0.205 C 
HETATM   16  S1  UNL     1      -8.797  30.892  10.027  1.00  0.00    -0.039 SA
BRANCH  15  17
HETATM   17  N8  UNL     1     -11.104  29.622  10.231  1.00  0.00    -0.273 N 
ATOM     18  H8  UNL     1     -11.960  29.545   9.683  1.00  0.00     0.189 HD
BRANCH  17  19
HETATM   19  N9  UNL     1     -11.191  29.574  11.636  1.00  0.00    -0.268 N 
HETATM   20  C10 UNL     1     -11.318  28.297  12.236  1.00  0.00     0.236 C 
HETATM   21  O3  UNL     1     -11.352  27.246  11.566  1.00  0.00    -0.272 OA
ATOM     22  H9  UNL     1     -11.165  30.424  12.198  1.00  0.00     0.190 HD
BRANCH  20  23
HETATM   23  C11 UNL     1     -11.410  28.270  13.739  1.00  0.00     0.109 C 
BRANCH  23  24
HETATM   24  C12 UNL     1     -11.198  26.864  14.268  1.00  0.00     0.048 C 
BRANCH  24  25
HETATM   25  C13 UNL     1      -9.756  26.701  14.526  1.00  0.00    -0.058 A 
HETATM   26  C14 UNL     1      -9.147  27.415  15.503  1.00  0.00     0.009 A 
HETATM   27  C15 UNL     1      -7.782  27.274  15.759  1.00  0.00     0.030 A 
HETATM   28  C16 UNL     1      -7.060  26.394  14.999  1.00  0.00     0.034 A 
HETATM   29  C19 UNL     1      -7.710  25.667  13.994  1.00  0.00     0.030 A 
HETATM   30  C20 UNL     1      -9.031  25.820  13.765  1.00  0.00     0.009 A 
BRANCH  28  31
HETATM   31  N10 UNL     1      -5.678  26.164  15.179  1.00  0.00    -0.326 N 
HETATM   32  C17 UNL     1      -4.623  27.060  14.994  1.00  0.00     0.247 C 
HETATM   33  O4  UNL     1      -4.730  28.244  14.631  1.00  0.00    -0.271 OA
ATOM     34  H10 UNL     1      -5.417  25.226  15.481  1.00  0.00     0.169 HD
BRANCH  32  35
HETATM   35  C18 UNL     1      -3.203  26.607  15.240  1.00  0.00     0.332 C 
BRANCH  35  36
HETATM   36  N11 UNL     1      -3.114  25.221  14.902  1.00  0.00    -0.071 N 
ATOM     37 3H11 UNL     1      -3.950  24.697  15.162  1.00  0.00     0.274 HD
ATOM     38 2H11 UNL     1      -3.156  25.057  13.897  1.00  0.00     0.274 HD
ATOM     39 1H11 UNL     1      -2.266  24.845  15.327  1.00  0.00     0.274 HD
ENDBRANCH  35  36
ENDBRANCH  32  35
ENDBRANCH  28  31
ENDBRANCH  24  25
ENDBRANCH  23  24
ENDBRANCH  20  23
ENDBRANCH  17  19
ENDBRANCH  15  17
ENDBRANCH  13  15
ENDBRANCH   8  13
BRANCH   9  40
HETATM   40  C21 UNL     1      -7.028  28.352   8.022  1.00  0.00     0.316 C 
BRANCH  40  41
HETATM   41  O5  UNL     1      -5.867  28.351   8.790  1.00  0.00    -0.381 OA
ATOM     42  H5  UNL     1      -6.009  28.682   9.668  1.00  0.00     0.211 HD
ENDBRANCH  40  41
ENDBRANCH   9  40
BRANCH   5  43
HETATM   43  N5  UNL     1     -10.658  24.673   9.643  1.00  0.00    -0.383 N 
ATOM     44  H52 UNL     1     -10.448  23.679   9.548  1.00  0.00     0.157 HD
ATOM     45  H51 UNL     1     -11.547  24.989  10.030  1.00  0.00     0.157 HD
ENDBRANCH   5  43
BRANCH   1  46
HETATM   46  O2  UNL     1      -5.445  23.264   8.784  1.00  0.00    -0.320 OA
BRANCH  46  47
HETATM   47  C4  UNL     1      -4.616  22.911   9.862  1.00  0.00     0.198 C 
BRANCH  47  48
HETATM   48  C3  UNL     1      -3.373  23.742   9.978  1.00  0.00     0.149 C 
BRANCH  48  49
HETATM   49  N3  UNL     1      -3.504  24.875  10.846  1.00  0.00    -0.353 N 
HETATM   50  C2  UNL     1      -3.584  26.222  10.413  1.00  0.00     0.282 C 
HETATM   51  O1  UNL     1      -3.528  26.432   9.154  1.00  0.00    -0.265 OA
ATOM     52  H3  UNL     1      -3.543  24.698  11.849  1.00  0.00     0.162 HD
BRANCH  50  53
HETATM   53  C1  UNL     1      -3.722  27.316  11.350  1.00  0.00     0.178 C 
HETATM   54  N1  UNL     1      -4.877  27.788  11.620  1.00  0.00    -0.383 N 
ATOM     55  H12 UNL     1      -4.975  28.560  12.280  1.00  0.00     0.157 HD
ATOM     56  H11 UNL     1      -5.709  27.397  11.176  1.00  0.00     0.157 HD
HETATM   57  N2  UNL     1      -2.573  27.856  11.964  1.00  0.00    -0.077 NA
ENDBRANCH  50  53
ENDBRANCH  48  49
ENDBRANCH  47  48
ENDBRANCH  46  47
ENDBRANCH   1  46
TORSDOF 18
ENDMDL
