MODEL 1
REMARK VINA RESULT: -6.718398281      0.000      0.000
REMARK  14 active torsions:
REMARK  status: ('A' for Active; 'I' for Inactive)
REMARK    1  A    between atoms: N1_1  and  C1_4 
REMARK    2  A    between atoms: C2_7  and  N3_8 
REMARK    3  A    between atoms: C5_16  and  N5_17 
REMARK    4  A    between atoms: N6_20  and  C6_21 
REMARK    5  A    between atoms: C6_21  and  C7_22 
REMARK    6  A    between atoms: C7_22  and  N7_23 
REMARK       I    between atoms: N7_23  and  C8_25 
REMARK    7  A    between atoms: C8_25  and  C9_27 
REMARK    8  A    between atoms: C9_27  and  C10_28 
REMARK    9  A    between atoms: C9_27  and  N9_34 
REMARK   10  A    between atoms: C10_28  and  C11_29 
REMARK   11  A    between atoms: C11_29  and  N8_30 
REMARK   12  A    between atoms: N9_34  and  C12_36 
REMARK   13  A    between atoms: C14_42  and  N12_43 
REMARK   14  A    between atoms: N12_43  and  C15_45 
ROOT
HETATM    1  N7  UNL     1      52.575   2.931  17.685  1.00  0.00    -0.358 N 
ATOM      2  H7  UNL     1      53.051   2.488  18.471  1.00  0.00     0.162 HD
HETATM    3  C8  UNL     1      53.146   4.123  17.163  1.00  0.00     0.241 C 
HETATM    4  O2  UNL     1      52.620   4.728  16.209  1.00  0.00    -0.271 OA
ENDROOT
BRANCH   3   5
HETATM    5  C9  UNL     1      54.411   4.696  17.746  1.00  0.00     0.193 C 
BRANCH   5   6
HETATM    6  C10 UNL     1      54.010   5.403  19.027  1.00  0.00     0.062 C 
BRANCH   6   7
HETATM    7  C11 UNL     1      54.382   4.653  20.268  1.00  0.00     0.232 C 
BRANCH   7   8
HETATM    8  N8  UNL     1      53.349   4.645  21.261  1.00  0.00    -0.079 N 
ATOM      9  H83 UNL     1      52.851   3.755  21.258  1.00  0.00     0.274 HD
ATOM     10  H82 UNL     1      53.750   4.611  22.198  1.00  0.00     0.274 HD
ATOM     11  H81 UNL     1      52.697   5.424  21.176  1.00  0.00     0.274 HD
ENDBRANCH   7   8
ENDBRANCH   6   7
ENDBRANCH   5   6
BRANCH   5  12
HETATM   12  N9  UNL     1      55.320   3.605  18.024  1.00  0.00    -0.212 N 
ATOM     13  H9  UNL     1      55.300   3.182  18.952  1.00  0.00     0.178 HD
BRANCH  12  14
HETATM   14  C12 UNL     1      56.152   3.143  17.159  1.00  0.00     0.694 A 
HETATM   15  N10 UNL     1      56.377   3.708  15.963  1.00  0.00    -0.187 N 
HETATM   16  C13 UNL     1      57.258   3.181  15.098  1.00  0.00     0.215 A 
ATOM     17  H10 UNL     1      55.869   4.554  15.706  1.00  0.00     0.185 HD
HETATM   18  N11 UNL     1      57.939   2.065  15.419  1.00  0.00    -0.187 N 
HETATM   19  C14 UNL     1      57.733   1.478  16.609  1.00  0.00     0.698 A 
ATOM     20  H11 UNL     1      58.607   1.666  14.761  1.00  0.00     0.185 HD
HETATM   21  N13 UNL     1      56.845   2.029  17.453  1.00  0.00    -0.022 N 
ATOM     22  H13 UNL     1      56.690   1.583  18.357  1.00  0.00     0.203 HD
BRANCH  19  23
HETATM   23  N12 UNL     1      58.389   0.406  16.914  1.00  0.00    -0.191 N 
ATOM     24  H12 UNL     1      59.397   0.401  16.752  1.00  0.00     0.184 HD
BRANCH  23  25
HETATM   25  C15 UNL     1      57.803  -0.759  17.455  1.00  0.00     0.049 A 
HETATM   26  C16 UNL     1      57.272  -1.706  16.601  1.00  0.00     0.030 A 
HETATM   27  C17 UNL     1      56.704  -2.834  17.154  1.00  0.00     0.002 A 
HETATM   28  C18 UNL     1      56.642  -3.055  18.507  1.00  0.00     0.000 A 
HETATM   29  C19 UNL     1      57.166  -2.122  19.360  1.00  0.00     0.002 A 
HETATM   30  C20 UNL     1      57.744  -0.975  18.813  1.00  0.00     0.030 A 
ENDBRANCH  23  25
ENDBRANCH  19  23
ENDBRANCH  12  14
ENDBRANCH   5  12
ENDBRANCH   3   5
BRANCH   1  31
HETATM   31  C7  UNL     1      51.375   2.299  17.191  1.00  0.00     0.143 C 
BRANCH  31  32
HETATM   32  C6  UNL     1      51.713   0.924  16.687  1.00  0.00     0.169 C 
BRANCH  32  33
HETATM   33  N6  UNL     1      52.773   0.912  15.720  1.00  0.00    -0.165 N 
HETATM   34  C5  UNL     1      53.891   0.204  16.018  1.00  0.00     0.682 A 
HETATM   35  N4  UNL     1      54.877   0.188  15.135  1.00  0.00    -0.155 N 
HETATM   36  C4  UNL     1      54.855   0.829  13.949  1.00  0.00     0.277 A 
ATOM     37  H4  UNL     1      55.713  -0.348  15.369  1.00  0.00     0.187 HD
HETATM   38  C3  UNL     1      53.718   1.556  13.637  1.00  0.00     0.122 A 
HETATM   39  O1  UNL     1      55.809   0.781  13.154  1.00  0.00    -0.266 OA
HETATM   40  C2  UNL     1      53.659   2.230  12.442  1.00  0.00     0.134 A 
HETATM   41  C21 UNL     1      52.656   1.586  14.565  1.00  0.00     0.158 A 
HETATM   42  N2  UNL     1      52.508   2.938  12.195  1.00  0.00    -0.176 N 
HETATM   43  C1  UNL     1      51.512   2.962  13.078  1.00  0.00     0.679 A 
ATOM     44  H2  UNL     1      52.415   3.455  11.321  1.00  0.00     0.186 HD
HETATM   45  N14 UNL     1      51.560   2.305  14.249  1.00  0.00    -0.175 N 
ATOM     46  H14 UNL     1      50.772   2.350  14.896  1.00  0.00     0.186 HD
BRANCH  34  47
HETATM   47  N5  UNL     1      54.002  -0.442  17.130  1.00  0.00    -0.234 N 
ATOM     48  H52 UNL     1      53.882  -1.454  17.171  1.00  0.00     0.174 HD
ATOM     49  H51 UNL     1      54.214   0.055  17.994  1.00  0.00     0.174 HD
ENDBRANCH  34  47
BRANCH  40  50
HETATM   50  N3  UNL     1      54.526   2.279  11.546  1.00  0.00    -0.384 N 
ATOM     51  H32 UNL     1      54.391   2.197  10.538  1.00  0.00     0.157 HD
ATOM     52  H31 UNL     1      55.484   2.418  11.866  1.00  0.00     0.157 HD
ENDBRANCH  40  50
BRANCH  43  53
HETATM   53  N1  UNL     1      50.412   3.632  12.856  1.00  0.00    -0.234 N 
ATOM     54  H12 UNL     1      50.264   4.441  13.459  1.00  0.00     0.174 HD
ATOM     55  H11 UNL     1      49.752   3.357  12.129  1.00  0.00     0.174 HD
ENDBRANCH  43  53
ENDBRANCH  32  33
ENDBRANCH  31  32
ENDBRANCH   1  31
TORSDOF 14
ENDMDL
MODEL 2
REMARK VINA RESULT: -6.654466313      2.335      5.112
REMARK  14 active torsions:
REMARK  status: ('A' for Active; 'I' for Inactive)
REMARK    1  A    between atoms: N1_1  and  C1_4 
REMARK    2  A    between atoms: C2_7  and  N3_8 
REMARK    3  A    between atoms: C5_16  and  N5_17 
REMARK    4  A    between atoms: N6_20  and  C6_21 
REMARK    5  A    between atoms: C6_21  and  C7_22 
REMARK    6  A    between atoms: C7_22  and  N7_23 
REMARK       I    between atoms: N7_23  and  C8_25 
REMARK    7  A    between atoms: C8_25  and  C9_27 
REMARK    8  A    between atoms: C9_27  and  C10_28 
REMARK    9  A    between atoms: C9_27  and  N9_34 
REMARK   10  A    between atoms: C10_28  and  C11_29 
REMARK   11  A    between atoms: C11_29  and  N8_30 
REMARK   12  A    between atoms: N9_34  and  C12_36 
REMARK   13  A    between atoms: C14_42  and  N12_43 
REMARK   14  A    between atoms: N12_43  and  C15_45 
ROOT
HETATM    1  N7  UNL     1      53.178   3.135  16.884  1.00  0.00    -0.358 N 
ATOM      2  H7  UNL     1      54.045   2.823  16.447  1.00  0.00     0.162 HD
HETATM    3  C8  UNL     1      52.106   2.205  16.947  1.00  0.00     0.241 C 
HETATM    4  O2  UNL     1      51.012   2.511  17.459  1.00  0.00    -0.271 OA
ENDROOT
BRANCH   3   5
HETATM    5  C9  UNL     1      52.256   0.811  16.396  1.00  0.00     0.193 C 
BRANCH   5   6
HETATM    6  C10 UNL     1      51.186   0.654  15.331  1.00  0.00     0.062 C 
BRANCH   6   7
HETATM    7  C11 UNL     1      50.705  -0.753  15.168  1.00  0.00     0.232 C 
BRANCH   7   8
HETATM    8  N8  UNL     1      50.822  -1.539  16.360  1.00  0.00    -0.079 N 
ATOM      9  H83 UNL     1      51.514  -1.137  16.992  1.00  0.00     0.274 HD
ATOM     10  H82 UNL     1      49.988  -1.442  16.939  1.00  0.00     0.274 HD
ATOM     11  H81 UNL     1      51.025  -2.523  16.181  1.00  0.00     0.274 HD
ENDBRANCH   7   8
ENDBRANCH   6   7
ENDBRANCH   5   6
BRANCH   5  12
HETATM   12  N9  UNL     1      53.578   0.689  15.819  1.00  0.00    -0.212 N 
ATOM     13  H9  UNL     1      53.980   1.501  15.353  1.00  0.00     0.178 HD
BRANCH  12  14
HETATM   14  C12 UNL     1      54.269  -0.395  15.865  1.00  0.00     0.694 A 
HETATM   15  N10 UNL     1      54.420  -1.230  14.826  1.00  0.00    -0.187 N 
HETATM   16  C13 UNL     1      55.154  -2.349  14.933  1.00  0.00     0.215 A 
ATOM     17  H10 UNL     1      53.969  -1.010  13.938  1.00  0.00     0.185 HD
HETATM   18  N11 UNL     1      55.756  -2.656  16.097  1.00  0.00    -0.187 N 
HETATM   19  C14 UNL     1      55.622  -1.839  17.154  1.00  0.00     0.698 A 
ATOM     20  H11 UNL     1      56.313  -3.507  16.176  1.00  0.00     0.185 HD
HETATM   21  N13 UNL     1      54.881  -0.727  17.016  1.00  0.00    -0.022 N 
ATOM     22  H13 UNL     1      54.780  -0.106  17.819  1.00  0.00     0.203 HD
BRANCH  19  23
HETATM   23  N12 UNL     1      56.203  -2.137  18.270  1.00  0.00    -0.191 N 
ATOM     24  H12 UNL     1      57.046  -1.621  18.521  1.00  0.00     0.184 HD
BRANCH  23  25
HETATM   25  C15 UNL     1      55.746  -3.131  19.163  1.00  0.00     0.049 A 
HETATM   26  C16 UNL     1      54.940  -2.766  20.224  1.00  0.00     0.030 A 
HETATM   27  C17 UNL     1      54.508  -3.754  21.082  1.00  0.00     0.002 A 
HETATM   28  C18 UNL     1      54.842  -5.076  20.930  1.00  0.00     0.000 A 
HETATM   29  C19 UNL     1      55.640  -5.447  19.882  1.00  0.00     0.002 A 
HETATM   30  C20 UNL     1      56.084  -4.456  19.006  1.00  0.00     0.030 A 
ENDBRANCH  23  25
ENDBRANCH  19  23
ENDBRANCH  12  14
ENDBRANCH   5  12
ENDBRANCH   3   5
BRANCH   1  31
HETATM   31  C7  UNL     1      53.137   4.486  17.392  1.00  0.00     0.143 C 
BRANCH  31  32
HETATM   32  C6  UNL     1      54.538   5.022  17.481  1.00  0.00     0.169 C 
BRANCH  32  33
HETATM   33  N6  UNL     1      55.494   4.056  17.939  1.00  0.00    -0.165 N 
HETATM   34  C5  UNL     1      55.750   4.002  19.270  1.00  0.00     0.682 A 
HETATM   35  N4  UNL     1      56.632   3.117  19.704  1.00  0.00    -0.155 N 
HETATM   36  C4  UNL     1      57.304   2.253  18.915  1.00  0.00     0.277 A 
ATOM     37  H4  UNL     1      56.817   3.085  20.707  1.00  0.00     0.187 HD
HETATM   38  C3  UNL     1      57.050   2.302  17.555  1.00  0.00     0.122 A 
HETATM   39  O1  UNL     1      58.123   1.439  19.374  1.00  0.00    -0.266 OA
HETATM   40  C2  UNL     1      57.720   1.444  16.716  1.00  0.00     0.134 A 
HETATM   41  C21 UNL     1      56.114   3.239  17.071  1.00  0.00     0.158 A 
HETATM   42  N2  UNL     1      57.430   1.547  15.377  1.00  0.00    -0.176 N 
HETATM   43  C1  UNL     1      56.545   2.436  14.931  1.00  0.00     0.679 A 
ATOM     44  H2  UNL     1      57.900   0.932  14.713  1.00  0.00     0.186 HD
HETATM   45  N14 UNL     1      55.885   3.278  15.743  1.00  0.00    -0.175 N 
ATOM     46  H14 UNL     1      55.214   3.943  15.358  1.00  0.00     0.186 HD
BRANCH  34  47
HETATM   47  N5  UNL     1      55.155   4.789  20.101  1.00  0.00    -0.234 N 
ATOM     48  H52 UNL     1      55.616   5.621  20.470  1.00  0.00     0.174 HD
ATOM     49  H51 UNL     1      54.202   4.590  20.407  1.00  0.00     0.174 HD
ENDBRANCH  34  47
BRANCH  40  50
HETATM   50  N3  UNL     1      58.564   0.577  17.020  1.00  0.00    -0.384 N 
ATOM     51  H32 UNL     1      59.573   0.607  16.876  1.00  0.00     0.157 HD
ATOM     52  H31 UNL     1      58.194  -0.261  17.468  1.00  0.00     0.157 HD
ENDBRANCH  40  50
BRANCH  43  53
HETATM   53  N1  UNL     1      56.260   2.545  13.660  1.00  0.00    -0.234 N 
ATOM     54  H12 UNL     1      56.995   2.247  13.019  1.00  0.00     0.174 HD
ATOM     55  H11 UNL     1      55.361   2.906  13.339  1.00  0.00     0.174 HD
ENDBRANCH  43  53
ENDBRANCH  32  33
ENDBRANCH  31  32
ENDBRANCH   1  31
TORSDOF 14
ENDMDL
MODEL 3
REMARK VINA RESULT: -6.641046384      2.233      5.562
REMARK  14 active torsions:
REMARK  status: ('A' for Active; 'I' for Inactive)
REMARK    1  A    between atoms: N1_1  and  C1_4 
REMARK    2  A    between atoms: C2_7  and  N3_8 
REMARK    3  A    between atoms: C5_16  and  N5_17 
REMARK    4  A    between atoms: N6_20  and  C6_21 
REMARK    5  A    between atoms: C6_21  and  C7_22 
REMARK    6  A    between atoms: C7_22  and  N7_23 
REMARK       I    between atoms: N7_23  and  C8_25 
REMARK    7  A    between atoms: C8_25  and  C9_27 
REMARK    8  A    between atoms: C9_27  and  C10_28 
REMARK    9  A    between atoms: C9_27  and  N9_34 
REMARK   10  A    between atoms: C10_28  and  C11_29 
REMARK   11  A    between atoms: C11_29  and  N8_30 
REMARK   12  A    between atoms: N9_34  and  C12_36 
REMARK   13  A    between atoms: C14_42  and  N12_43 
REMARK   14  A    between atoms: N12_43  and  C15_45 
ROOT
HETATM    1  N7  UNL     1      52.852   3.385  16.599  1.00  0.00    -0.358 N 
ATOM      2  H7  UNL     1      53.475   3.277  15.798  1.00  0.00     0.162 HD
HETATM    3  C8  UNL     1      51.798   2.444  16.740  1.00  0.00     0.241 C 
HETATM    4  O2  UNL     1      50.990   2.513  17.686  1.00  0.00    -0.271 OA
ENDROOT
BRANCH   3   5
HETATM    5  C9  UNL     1      51.621   1.325  15.748  1.00  0.00     0.193 C 
BRANCH   5   6
HETATM    6  C10 UNL     1      52.950   1.173  15.031  1.00  0.00     0.062 C 
BRANCH   6   7
HETATM    7  C11 UNL     1      52.852   1.330  13.546  1.00  0.00     0.232 C 
BRANCH   7   8
HETATM    8  N8  UNL     1      52.885   2.696  13.113  1.00  0.00    -0.079 N 
ATOM      9  H83 UNL     1      53.838   2.981  12.889  1.00  0.00     0.274 HD
ATOM     10  H82 UNL     1      52.459   2.792  12.191  1.00  0.00     0.274 HD
ATOM     11  H81 UNL     1      52.460   3.343  13.776  1.00  0.00     0.274 HD
ENDBRANCH   7   8
ENDBRANCH   6   7
ENDBRANCH   5   6
BRANCH   5  12
HETATM   12  N9  UNL     1      51.289   0.118  16.475  1.00  0.00    -0.212 N 
ATOM     13  H9  UNL     1      50.882   0.209  17.406  1.00  0.00     0.178 HD
BRANCH  12  14
HETATM   14  C12 UNL     1      51.481  -1.063  16.004  1.00  0.00     0.694 A 
HETATM   15  N10 UNL     1      50.840  -1.555  14.934  1.00  0.00    -0.187 N 
HETATM   16  C13 UNL     1      51.081  -2.797  14.487  1.00  0.00     0.215 A 
ATOM     17  H10 UNL     1      50.155  -0.973  14.450  1.00  0.00     0.185 HD
HETATM   18  N11 UNL     1      51.980  -3.580  15.112  1.00  0.00    -0.187 N 
HETATM   19  C14 UNL     1      52.637  -3.114  16.186  1.00  0.00     0.698 A 
ATOM     20  H11 UNL     1      52.162  -4.524  14.771  1.00  0.00     0.185 HD
HETATM   21  N13 UNL     1      52.374  -1.867  16.610  1.00  0.00    -0.022 N 
ATOM     22  H13 UNL     1      52.873  -1.513  17.426  1.00  0.00     0.203 HD
BRANCH  19  23
HETATM   23  N12 UNL     1      53.500  -3.869  16.784  1.00  0.00    -0.191 N 
ATOM     24  H12 UNL     1      53.277  -4.859  16.886  1.00  0.00     0.184 HD
BRANCH  23  25
HETATM   25  C15 UNL     1      54.731  -3.412  17.305  1.00  0.00     0.049 A 
HETATM   26  C16 UNL     1      54.860  -3.230  18.668  1.00  0.00     0.030 A 
HETATM   27  C17 UNL     1      56.071  -2.782  19.151  1.00  0.00     0.002 A 
HETATM   28  C18 UNL     1      57.146  -2.512  18.342  1.00  0.00     0.000 A 
HETATM   29  C19 UNL     1      57.027  -2.689  16.991  1.00  0.00     0.002 A 
HETATM   30  C20 UNL     1      55.806  -3.142  16.489  1.00  0.00     0.030 A 
ENDBRANCH  23  25
ENDBRANCH  19  23
ENDBRANCH  12  14
ENDBRANCH   5  12
ENDBRANCH   3   5
BRANCH   1  31
HETATM   31  C7  UNL     1      53.111   4.484  17.499  1.00  0.00     0.143 C 
BRANCH  31  32
HETATM   32  C6  UNL     1      54.535   4.935  17.330  1.00  0.00     0.169 C 
BRANCH  32  33
HETATM   33  N6  UNL     1      55.497   4.000  17.838  1.00  0.00    -0.165 N 
HETATM   34  C5  UNL     1      55.736   4.003  19.174  1.00  0.00     0.682 A 
HETATM   35  N4  UNL     1      56.624   3.147  19.653  1.00  0.00    -0.155 N 
HETATM   36  C4  UNL     1      57.317   2.262  18.909  1.00  0.00     0.277 A 
ATOM     37  H4  UNL     1      56.796   3.158  20.659  1.00  0.00     0.187 HD
HETATM   38  C3  UNL     1      57.080   2.253  17.544  1.00  0.00     0.122 A 
HETATM   39  O1  UNL     1      58.140   1.478  19.409  1.00  0.00    -0.266 OA
HETATM   40  C2  UNL     1      57.772   1.371  16.749  1.00  0.00     0.134 A 
HETATM   41  C21 UNL     1      56.138   3.158  17.012  1.00  0.00     0.158 A 
HETATM   42  N2  UNL     1      57.497   1.417  15.404  1.00  0.00    -0.176 N 
HETATM   43  C1  UNL     1      56.607   2.276  14.911  1.00  0.00     0.679 A 
ATOM     44  H2  UNL     1      57.984   0.782  14.770  1.00  0.00     0.186 HD
HETATM   45  N14 UNL     1      55.926   3.141  15.681  1.00  0.00    -0.175 N 
ATOM     46  H14 UNL     1      55.252   3.781  15.261  1.00  0.00     0.186 HD
BRANCH  34  47
HETATM   47  N5  UNL     1      55.121   4.815  19.965  1.00  0.00    -0.234 N 
ATOM     48  H52 UNL     1      55.495   5.047  20.885  1.00  0.00     0.174 HD
ATOM     49  H51 UNL     1      54.240   5.242  19.681  1.00  0.00     0.174 HD
ENDBRANCH  34  47
BRANCH  40  50
HETATM   50  N3  UNL     1      58.622   0.529  17.098  1.00  0.00    -0.384 N 
ATOM     51  H32 UNL     1      58.502  -0.255  17.739  1.00  0.00     0.157 HD
ATOM     52  H31 UNL     1      59.550   0.643  16.690  1.00  0.00     0.157 HD
ENDBRANCH  40  50
BRANCH  43  53
HETATM   53  N1  UNL     1      56.337   2.330  13.633  1.00  0.00    -0.234 N 
ATOM     54  H12 UNL     1      56.731   3.129  13.136  1.00  0.00     0.174 HD
ATOM     55  H11 UNL     1      55.770   1.619  13.173  1.00  0.00     0.174 HD
ENDBRANCH  43  53
ENDBRANCH  32  33
ENDBRANCH  31  32
ENDBRANCH   1  31
TORSDOF 14
ENDMDL
MODEL 4
REMARK VINA RESULT: -6.587366628      1.482      2.678
REMARK  14 active torsions:
REMARK  status: ('A' for Active; 'I' for Inactive)
REMARK    1  A    between atoms: N1_1  and  C1_4 
REMARK    2  A    between atoms: C2_7  and  N3_8 
REMARK    3  A    between atoms: C5_16  and  N5_17 
REMARK    4  A    between atoms: N6_20  and  C6_21 
REMARK    5  A    between atoms: C6_21  and  C7_22 
REMARK    6  A    between atoms: C7_22  and  N7_23 
REMARK       I    between atoms: N7_23  and  C8_25 
REMARK    7  A    between atoms: C8_25  and  C9_27 
REMARK    8  A    between atoms: C9_27  and  C10_28 
REMARK    9  A    between atoms: C9_27  and  N9_34 
REMARK   10  A    between atoms: C10_28  and  C11_29 
REMARK   11  A    between atoms: C11_29  and  N8_30 
REMARK   12  A    between atoms: N9_34  and  C12_36 
REMARK   13  A    between atoms: C14_42  and  N12_43 
REMARK   14  A    between atoms: N12_43  and  C15_45 
ROOT
HETATM    1  N7  UNL     1      52.920   2.828  17.815  1.00  0.00    -0.358 N 
ATOM      2  H7  UNL     1      53.571   2.332  18.424  1.00  0.00     0.162 HD
HETATM    3  C8  UNL     1      53.222   4.179  17.497  1.00  0.00     0.241 C 
HETATM    4  O2  UNL     1      52.473   4.856  16.766  1.00  0.00    -0.271 OA
ENDROOT
BRANCH   3   5
HETATM    5  C9  UNL     1      54.464   4.843  18.033  1.00  0.00     0.193 C 
BRANCH   5   6
HETATM    6  C10 UNL     1      54.077   5.469  19.360  1.00  0.00     0.062 C 
BRANCH   6   7
HETATM    7  C11 UNL     1      54.159   4.522  20.516  1.00  0.00     0.232 C 
BRANCH   7   8
HETATM    8  N8  UNL     1      52.885   4.222  21.100  1.00  0.00    -0.079 N 
ATOM      9  H83 UNL     1      53.000   3.730  21.986  1.00  0.00     0.274 HD
ATOM     10  H82 UNL     1      52.432   5.071  21.436  1.00  0.00     0.274 HD
ATOM     11  H81 UNL     1      52.265   3.703  20.478  1.00  0.00     0.274 HD
ENDBRANCH   7   8
ENDBRANCH   6   7
ENDBRANCH   5   6
BRANCH   5  12
HETATM   12  N9  UNL     1      55.478   3.827  18.220  1.00  0.00    -0.212 N 
ATOM     13  H9  UNL     1      55.589   3.419  19.148  1.00  0.00     0.178 HD
BRANCH  12  14
HETATM   14  C12 UNL     1      56.246   3.416  17.275  1.00  0.00     0.694 A 
HETATM   15  N10 UNL     1      56.506   4.120  16.163  1.00  0.00    -0.187 N 
HETATM   16  C13 UNL     1      57.317   3.639  15.207  1.00  0.00     0.215 A 
ATOM     17  H10 UNL     1      56.080   5.039  16.042  1.00  0.00     0.185 HD
HETATM   18  N11 UNL     1      57.888   2.429  15.348  1.00  0.00    -0.187 N 
HETATM   19  C14 UNL     1      57.645   1.701  16.450  1.00  0.00     0.698 A 
ATOM     20  H11 UNL     1      58.503   2.065  14.621  1.00  0.00     0.185 HD
HETATM   21  N13 UNL     1      56.830   2.210  17.389  1.00  0.00    -0.022 N 
ATOM     22  H13 UNL     1      56.646   1.656  18.226  1.00  0.00     0.203 HD
BRANCH  19  23
HETATM   23  N12 UNL     1      58.196   0.539  16.582  1.00  0.00    -0.191 N 
ATOM     24  H12 UNL     1      59.106   0.391  16.146  1.00  0.00     0.184 HD
BRANCH  23  25
HETATM   25  C15 UNL     1      57.621  -0.538  17.291  1.00  0.00     0.049 A 
HETATM   26  C16 UNL     1      58.039  -0.797  18.582  1.00  0.00     0.030 A 
HETATM   27  C17 UNL     1      57.462  -1.854  19.252  1.00  0.00     0.002 A 
HETATM   28  C18 UNL     1      56.497  -2.656  18.696  1.00  0.00     0.000 A 
HETATM   29  C19 UNL     1      56.077  -2.408  17.417  1.00  0.00     0.002 A 
HETATM   30  C20 UNL     1      56.654  -1.340  16.728  1.00  0.00     0.030 A 
ENDBRANCH  23  25
ENDBRANCH  19  23
ENDBRANCH  12  14
ENDBRANCH   5  12
ENDBRANCH   3   5
BRANCH   1  31
HETATM   31  C7  UNL     1      51.764   2.102  17.345  1.00  0.00     0.143 C 
BRANCH  31  32
HETATM   32  C6  UNL     1      51.715   2.172  15.845  1.00  0.00     0.169 C 
BRANCH  32  33
HETATM   33  N6  UNL     1      52.706   1.359  15.200  1.00  0.00    -0.165 N 
HETATM   34  C5  UNL     1      53.693   1.991  14.516  1.00  0.00     0.682 A 
HETATM   35  N4  UNL     1      54.611   1.252  13.915  1.00  0.00    -0.155 N 
HETATM   36  C4  UNL     1      54.643  -0.096  13.931  1.00  0.00     0.277 A 
ATOM     37  H4  UNL     1      55.348   1.738  13.403  1.00  0.00     0.187 HD
HETATM   38  C3  UNL     1      53.638  -0.749  14.625  1.00  0.00     0.122 A 
HETATM   39  O1  UNL     1      55.529  -0.743  13.349  1.00  0.00    -0.266 OA
HETATM   40  C2  UNL     1      53.630  -2.123  14.658  1.00  0.00     0.134 A 
HETATM   41  C21 UNL     1      52.648   0.019  15.273  1.00  0.00     0.158 A 
HETATM   42  N2  UNL     1      52.603  -2.711  15.357  1.00  0.00    -0.176 N 
HETATM   43  C1  UNL     1      51.673  -1.976  15.964  1.00  0.00     0.679 A 
ATOM     44  H2  UNL     1      52.552  -3.729  15.412  1.00  0.00     0.186 HD
HETATM   45  N14 UNL     1      51.674  -0.633  15.937  1.00  0.00    -0.175 N 
ATOM     46  H14 UNL     1      50.942  -0.110  16.418  1.00  0.00     0.186 HD
BRANCH  34  47
HETATM   47  N5  UNL     1      53.745   3.278  14.447  1.00  0.00    -0.234 N 
ATOM     48  H52 UNL     1      54.340   3.750  13.766  1.00  0.00     0.174 HD
ATOM     49  H51 UNL     1      53.185   3.851  15.078  1.00  0.00     0.174 HD
ENDBRANCH  34  47
BRANCH  40  50
HETATM   50  N3  UNL     1      54.443  -2.908  14.130  1.00  0.00    -0.384 N 
ATOM     51  H32 UNL     1      55.135  -2.703  13.411  1.00  0.00     0.157 HD
ATOM     52  H31 UNL     1      54.406  -3.872  14.463  1.00  0.00     0.157 HD
ENDBRANCH  40  50
BRANCH  43  53
HETATM   53  N1  UNL     1      50.691  -2.523  16.631  1.00  0.00    -0.234 N 
ATOM     54  H12 UNL     1      50.968  -3.205  17.338  1.00  0.00     0.174 HD
ATOM     55  H11 UNL     1      49.717  -2.279  16.451  1.00  0.00     0.174 HD
ENDBRANCH  43  53
ENDBRANCH  32  33
ENDBRANCH  31  32
ENDBRANCH   1  31
TORSDOF 14
ENDMDL
MODEL 5
REMARK VINA RESULT: -6.485665175      2.925      6.222
REMARK  14 active torsions:
REMARK  status: ('A' for Active; 'I' for Inactive)
REMARK    1  A    between atoms: N1_1  and  C1_4 
REMARK    2  A    between atoms: C2_7  and  N3_8 
REMARK    3  A    between atoms: C5_16  and  N5_17 
REMARK    4  A    between atoms: N6_20  and  C6_21 
REMARK    5  A    between atoms: C6_21  and  C7_22 
REMARK    6  A    between atoms: C7_22  and  N7_23 
REMARK       I    between atoms: N7_23  and  C8_25 
REMARK    7  A    between atoms: C8_25  and  C9_27 
REMARK    8  A    between atoms: C9_27  and  C10_28 
REMARK    9  A    between atoms: C9_27  and  N9_34 
REMARK   10  A    between atoms: C10_28  and  C11_29 
REMARK   11  A    between atoms: C11_29  and  N8_30 
REMARK   12  A    between atoms: N9_34  and  C12_36 
REMARK   13  A    between atoms: C14_42  and  N12_43 
REMARK   14  A    between atoms: N12_43  and  C15_45 
ROOT
HETATM    1  N7  UNL     1      52.919   3.507  16.698  1.00  0.00    -0.358 N 
ATOM      2  H7  UNL     1      53.566   3.423  15.914  1.00  0.00     0.162 HD
HETATM    3  C8  UNL     1      51.881   2.543  16.798  1.00  0.00     0.241 C 
HETATM    4  O2  UNL     1      51.047   2.582  17.722  1.00  0.00    -0.271 OA
ENDROOT
BRANCH   3   5
HETATM    5  C9  UNL     1      51.755   1.434  15.785  1.00  0.00     0.193 C 
BRANCH   5   6
HETATM    6  C10 UNL     1      51.380   2.095  14.472  1.00  0.00     0.062 C 
BRANCH   6   7
HETATM    7  C11 UNL     1      52.340   1.808  13.360  1.00  0.00     0.232 C 
BRANCH   7   8
HETATM    8  N8  UNL     1      52.755   2.979  12.647  1.00  0.00    -0.079 N 
ATOM      9  H83 UNL     1      51.963   3.599  12.478  1.00  0.00     0.274 HD
ATOM     10  H82 UNL     1      53.318   3.585  13.244  1.00  0.00     0.274 HD
ATOM     11  H81 UNL     1      53.245   2.773  11.777  1.00  0.00     0.274 HD
ENDBRANCH   7   8
ENDBRANCH   6   7
ENDBRANCH   5   6
BRANCH   5  12
HETATM   12  N9  UNL     1      53.035   0.767  15.678  1.00  0.00    -0.212 N 
ATOM     13  H9  UNL     1      53.796   1.251  15.202  1.00  0.00     0.178 HD
BRANCH  12  14
HETATM   14  C12 UNL     1      53.259  -0.407  16.152  1.00  0.00     0.694 A 
HETATM   15  N10 UNL     1      54.282  -0.700  16.969  1.00  0.00    -0.187 N 
HETATM   16  C13 UNL     1      54.468  -1.946  17.434  1.00  0.00     0.215 A 
ATOM     17  H10 UNL     1      54.932   0.037  17.242  1.00  0.00     0.185 HD
HETATM   18  N11 UNL     1      53.621  -2.933  17.085  1.00  0.00    -0.187 N 
HETATM   19  C14 UNL     1      52.589  -2.668  16.269  1.00  0.00     0.698 A 
ATOM     20  H11 UNL     1      53.764  -3.878  17.439  1.00  0.00     0.185 HD
HETATM   21  N13 UNL     1      52.430  -1.412  15.820  1.00  0.00    -0.022 N 
ATOM     22  H13 UNL     1      51.645  -1.212  15.200  1.00  0.00     0.203 HD
BRANCH  19  23
HETATM   23  N12 UNL     1      51.777  -3.619  15.936  1.00  0.00    -0.191 N 
ATOM     24  H12 UNL     1      52.152  -4.397  15.392  1.00  0.00     0.184 HD
BRANCH  23  25
HETATM   25  C15 UNL     1      50.408  -3.651  16.276  1.00  0.00     0.049 A 
HETATM   26  C16 UNL     1      49.923  -4.705  17.027  1.00  0.00     0.030 A 
HETATM   27  C17 UNL     1      48.583  -4.714  17.346  1.00  0.00     0.002 A 
HETATM   28  C18 UNL     1      47.713  -3.728  16.951  1.00  0.00     0.000 A 
HETATM   29  C19 UNL     1      48.184  -2.680  16.207  1.00  0.00     0.002 A 
HETATM   30  C20 UNL     1      49.540  -2.660  15.878  1.00  0.00     0.030 A 
ENDBRANCH  23  25
ENDBRANCH  19  23
ENDBRANCH  12  14
ENDBRANCH   5  12
ENDBRANCH   3   5
BRANCH   1  31
HETATM   31  C7  UNL     1      53.131   4.598  17.621  1.00  0.00     0.143 C 
BRANCH  31  32
HETATM   32  C6  UNL     1      54.560   5.053  17.528  1.00  0.00     0.169 C 
BRANCH  32  33
HETATM   33  N6  UNL     1      55.506   4.065  17.961  1.00  0.00    -0.165 N 
HETATM   34  C5  UNL     1      55.804   4.014  19.283  1.00  0.00     0.682 A 
HETATM   35  N4  UNL     1      56.677   3.110  19.694  1.00  0.00    -0.155 N 
HETATM   36  C4  UNL     1      57.300   2.223  18.891  1.00  0.00     0.277 A 
ATOM     37  H4  UNL     1      56.895   3.080  20.691  1.00  0.00     0.187 HD
HETATM   38  C3  UNL     1      57.002   2.269  17.539  1.00  0.00     0.122 A 
HETATM   39  O1  UNL     1      58.113   1.392  19.328  1.00  0.00    -0.266 OA
HETATM   40  C2  UNL     1      57.621   1.388  16.686  1.00  0.00     0.134 A 
HETATM   41  C21 UNL     1      56.074   3.226  17.079  1.00  0.00     0.158 A 
HETATM   42  N2  UNL     1      57.289   1.489  15.356  1.00  0.00    -0.176 N 
HETATM   43  C1  UNL     1      56.413   2.397  14.933  1.00  0.00     0.679 A 
ATOM     44  H2  UNL     1      57.721   0.857  14.682  1.00  0.00     0.186 HD
HETATM   45  N14 UNL     1      55.802   3.262  15.760  1.00  0.00    -0.175 N 
ATOM     46  H14 UNL     1      55.136   3.941  15.392  1.00  0.00     0.186 HD
BRANCH  34  47
HETATM   47  N5  UNL     1      55.258   4.823  20.128  1.00  0.00    -0.234 N 
ATOM     48  H52 UNL     1      55.655   5.743  20.317  1.00  0.00     0.174 HD
ATOM     49  H51 UNL     1      54.410   4.552  20.625  1.00  0.00     0.174 HD
ENDBRANCH  34  47
BRANCH  40  50
HETATM   50  N3  UNL     1      58.452   0.502  16.968  1.00  0.00    -0.384 N 
ATOM     51  H32 UNL     1      59.170   0.100  16.366  1.00  0.00     0.157 HD
ATOM     52  H31 UNL     1      58.404   0.139  17.921  1.00  0.00     0.157 HD
ENDBRANCH  40  50
BRANCH  43  53
HETATM   53  N1  UNL     1      56.088   2.505  13.671  1.00  0.00    -0.234 N 
ATOM     54  H12 UNL     1      55.897   3.453  13.347  1.00  0.00     0.174 HD
ATOM     55  H11 UNL     1      56.032   1.690  13.059  1.00  0.00     0.174 HD
ENDBRANCH  43  53
ENDBRANCH  32  33
ENDBRANCH  31  32
ENDBRANCH   1  31
TORSDOF 14
ENDMDL
