MODEL 1
REMARK VINA RESULT: -7.537242282      0.000      0.000
REMARK  12 active torsions:
REMARK  status: ('A' for Active; 'I' for Inactive)
REMARK    1  A    between atoms: N1_1  and  C1_4 
REMARK    2  A    between atoms: C4_9  and  N3_10 
REMARK    3  A    between atoms: C5_12  and  C6_13 
REMARK    4  A    between atoms: C6_13  and  N4_14 
REMARK       I    between atoms: N4_14  and  C7_16 
REMARK    5  A    between atoms: C7_16  and  C8_18 
REMARK    6  A    between atoms: C9_23  and  C10_24 
REMARK    7  A    between atoms: C13_34  and  N10_35 
REMARK    8  A    between atoms: N10_35  and  C14_36 
REMARK    9  A    between atoms: C14_36  and  C15_37 
REMARK   10  A    between atoms: C14_36  and  C17_41 
REMARK   11  A    between atoms: C15_37  and  C16_38 
REMARK   12  A    between atoms: C17_41  and  O3_42 
ROOT
HETATM    1  C8  UNL     1      56.439   2.892  16.362  1.00  0.00     0.191 A 
HETATM    2  N5  UNL     1      57.432   2.933  15.467  1.00  0.00    -0.279 N 
ATOM      3  H5  UNL     1      58.158   3.646  15.402  1.00  0.00     0.189 HD
HETATM    4  N6  UNL     1      57.300   1.883  14.687  1.00  0.00    -0.283 N 
ATOM      5  H6  UNL     1      57.930   1.671  13.914  1.00  0.00     0.188 HD
HETATM    6  C9  UNL     1      56.258   1.126  15.013  1.00  0.00     0.138 A 
HETATM    7  N12 UNL     1      55.720   1.788  16.085  1.00  0.00    -0.321 N 
ATOM      8  H12 UNL     1      54.893   1.487  16.601  1.00  0.00     0.169 HD
ENDROOT
BRANCH   6   9
HETATM    9  C10 UNL     1      55.756  -0.109  14.436  1.00  0.00     0.084 A 
HETATM   10  C11 UNL     1      55.481  -0.157  13.065  1.00  0.00     0.126 A 
HETATM   11  N7  UNL     1      55.024  -1.243  12.468  1.00  0.00    -0.201 N 
HETATM   12  C12 UNL     1      54.816  -2.336  13.200  1.00  0.00     0.678 A 
ATOM     13  H7  UNL     1      54.834  -1.246  11.465  1.00  0.00     0.183 HD
HETATM   14  N8  UNL     1      54.369  -3.399  12.616  1.00  0.00    -0.234 N 
HETATM   15  N9  UNL     1      55.057  -2.359  14.504  1.00  0.00    -0.164 N 
ATOM     16  H82 UNL     1      54.184  -3.381  11.613  1.00  0.00     0.174 HD
ATOM     17  H81 UNL     1      54.210  -4.235  13.177  1.00  0.00     0.174 HD
HETATM   18  C13 UNL     1      55.544  -1.235  15.201  1.00  0.00     0.203 A 
ATOM     19  H9  UNL     1      54.884  -3.221  15.021  1.00  0.00     0.187 HD
BRANCH  18  20
HETATM   20  N10 UNL     1      55.741  -1.348  16.376  1.00  0.00    -0.420 NA
BRANCH  20  21
HETATM   21  C14 UNL     1      55.961  -1.473  17.695  1.00  0.00     0.208 C 
BRANCH  21  22
HETATM   22  C15 UNL     1      57.477  -1.495  17.991  1.00  0.00     0.142 C 
BRANCH  22  23
HETATM   23  C16 UNL     1      57.998  -0.094  17.984  1.00  0.00     0.234 C 
HETATM   24  N11 UNL     1      57.707   0.677  19.154  1.00  0.00    -0.062 NA
HETATM   25  O2  UNL     1      58.648   0.384  17.019  1.00  0.00    -0.277 OA
ENDBRANCH  22  23
ENDBRANCH  21  22
BRANCH  21  26
HETATM   26  C17 UNL     1      55.301  -2.665  18.375  1.00  0.00     0.090 C 
HETATM   27  C18 UNL     1      54.427  -3.505  17.522  1.00  0.00     0.041 C 
HETATM   28  C19 UNL     1      55.492  -4.570  17.535  1.00  0.00     0.006 C 
HETATM   29  C20 UNL     1      56.220  -3.816  18.625  1.00  0.00     0.041 C 
BRANCH  26  30
HETATM   30  O3  UNL     1      54.689  -2.285  19.568  1.00  0.00    -0.387 OA
ATOM     31  H3  UNL     1      54.180  -2.999  19.934  1.00  0.00     0.210 HD
ENDBRANCH  26  30
ENDBRANCH  21  26
ENDBRANCH  20  21
ENDBRANCH  18  20
ENDBRANCH   6   9
BRANCH   1  32
HETATM   32  C7  UNL     1      56.145   3.854  17.464  1.00  0.00     0.287 C 
HETATM   33  N4  UNL     1      55.890   3.393  18.763  1.00  0.00    -0.350 N 
ATOM     34  H4  UNL     1      55.902   2.388  18.937  1.00  0.00     0.163 HD
HETATM   35  O1  UNL     1      56.131   5.078  17.207  1.00  0.00    -0.264 OA
BRANCH  33  36
HETATM   36  C6  UNL     1      55.613   4.275  19.851  1.00  0.00     0.168 C 
BRANCH  36  37
HETATM   37  C5  UNL     1      54.163   4.415  20.186  1.00  0.00     0.098 C 
HETATM   38  N3  UNL     1      53.251   4.140  19.226  1.00  0.00    -0.204 N 
ATOM     39  H3  UNL     1      52.494   4.791  19.435  1.00  0.00     0.183 HD
BRANCH  38  40
HETATM   40  C4  UNL     1      52.834   3.536  18.241  1.00  0.00     0.683 A 
HETATM   41  N2  UNL     1      52.211   2.347  18.332  1.00  0.00    -0.202 N 
HETATM   42  C3  UNL     1      51.777   1.726  17.222  1.00  0.00     0.110 A 
ATOM     43  H2  UNL     1      52.068   1.916  19.245  1.00  0.00     0.183 HD
HETATM   44  C2  UNL     1      51.965   2.293  16.002  1.00  0.00     0.066 A 
HETATM   45  C1  UNL     1      52.602   3.514  15.882  1.00  0.00     0.116 A 
HETATM   46  N13 UNL     1      53.020   4.107  16.986  1.00  0.00    -0.177 N 
ATOM     47  H13 UNL     1      53.492   5.009  16.917  1.00  0.00     0.185 HD
BRANCH  45  48
HETATM   48  N1  UNL     1      52.759   4.012  14.696  1.00  0.00    -0.385 N 
ATOM     49  H12 UNL     1      52.058   3.946  13.958  1.00  0.00     0.157 HD
ATOM     50  H11 UNL     1      53.629   4.500  14.487  1.00  0.00     0.157 HD
ENDBRANCH  45  48
ENDBRANCH  38  40
ENDBRANCH  36  37
ENDBRANCH  33  36
ENDBRANCH   1  32
TORSDOF 12
ENDMDL
MODEL 2
REMARK VINA RESULT: -7.203608148      4.256      7.950
REMARK  12 active torsions:
REMARK  status: ('A' for Active; 'I' for Inactive)
REMARK    1  A    between atoms: N1_1  and  C1_4 
REMARK    2  A    between atoms: C4_9  and  N3_10 
REMARK    3  A    between atoms: C5_12  and  C6_13 
REMARK    4  A    between atoms: C6_13  and  N4_14 
REMARK       I    between atoms: N4_14  and  C7_16 
REMARK    5  A    between atoms: C7_16  and  C8_18 
REMARK    6  A    between atoms: C9_23  and  C10_24 
REMARK    7  A    between atoms: C13_34  and  N10_35 
REMARK    8  A    between atoms: N10_35  and  C14_36 
REMARK    9  A    between atoms: C14_36  and  C15_37 
REMARK   10  A    between atoms: C14_36  and  C17_41 
REMARK   11  A    between atoms: C15_37  and  C16_38 
REMARK   12  A    between atoms: C17_41  and  O3_42 
ROOT
HETATM    1  C8  UNL     1      55.741  -2.738  18.418  1.00  0.00     0.191 A 
HETATM    2  N5  UNL     1      57.013  -2.691  18.006  1.00  0.00    -0.279 N 
ATOM      3  H5  UNL     1      57.830  -2.999  18.532  1.00  0.00     0.189 HD
HETATM    4  N6  UNL     1      57.014  -2.174  16.797  1.00  0.00    -0.283 N 
ATOM      5  H6  UNL     1      57.860  -2.025  16.247  1.00  0.00     0.188 HD
HETATM    6  C9  UNL     1      55.796  -1.867  16.365  1.00  0.00     0.138 A 
HETATM    7  N12 UNL     1      54.996  -2.235  17.415  1.00  0.00    -0.321 N 
ATOM      8  H12 UNL     1      53.980  -2.141  17.435  1.00  0.00     0.169 HD
ENDROOT
BRANCH   6   9
HETATM    9  C10 UNL     1      55.342  -1.296  15.109  1.00  0.00     0.084 A 
HETATM   10  C11 UNL     1      54.576  -2.083  14.241  1.00  0.00     0.126 A 
HETATM   11  N7  UNL     1      54.126  -1.634  13.083  1.00  0.00    -0.201 N 
HETATM   12  C12 UNL     1      54.414  -0.383  12.727  1.00  0.00     0.678 A 
ATOM     13  H7  UNL     1      53.570  -2.233  12.473  1.00  0.00     0.183 HD
HETATM   14  N8  UNL     1      53.973   0.056  11.594  1.00  0.00    -0.234 N 
HETATM   15  N9  UNL     1      55.133   0.416  13.503  1.00  0.00    -0.164 N 
ATOM     16  H82 UNL     1      53.419  -0.559  10.997  1.00  0.00     0.174 HD
ATOM     17  H81 UNL     1      54.193   1.014  11.321  1.00  0.00     0.174 HD
HETATM   18  C13 UNL     1      55.643  -0.001  14.748  1.00  0.00     0.203 A 
ATOM     19  H9  UNL     1      55.325   1.367  13.186  1.00  0.00     0.187 HD
BRANCH  18  20
HETATM   20  N10 UNL     1      56.276   0.790  15.386  1.00  0.00    -0.420 NA
BRANCH  20  21
HETATM   21  C14 UNL     1      56.986   1.676  16.104  1.00  0.00     0.208 C 
BRANCH  21  22
HETATM   22  C15 UNL     1      56.701   1.504  17.611  1.00  0.00     0.142 C 
BRANCH  22  23
HETATM   23  C16 UNL     1      57.860   0.814  18.254  1.00  0.00     0.234 C 
HETATM   24  N11 UNL     1      58.030   1.066  19.653  1.00  0.00    -0.062 NA
HETATM   25  O2  UNL     1      58.641   0.061  17.617  1.00  0.00    -0.277 OA
ENDBRANCH  22  23
ENDBRANCH  21  22
BRANCH  21  26
HETATM   26  C17 UNL     1      56.810   3.140  15.724  1.00  0.00     0.090 C 
HETATM   27  C18 UNL     1      55.547   3.490  15.032  1.00  0.00     0.041 C 
HETATM   28  C19 UNL     1      55.075   4.156  16.298  1.00  0.00     0.006 C 
HETATM   29  C20 UNL     1      56.469   4.035  16.871  1.00  0.00     0.041 C 
BRANCH  26  30
HETATM   30  O3  UNL     1      57.939   3.626  15.067  1.00  0.00    -0.387 OA
ATOM     31  H3  UNL     1      58.618   2.964  15.019  1.00  0.00     0.210 HD
ENDBRANCH  26  30
ENDBRANCH  21  26
ENDBRANCH  20  21
ENDBRANCH  18  20
ENDBRANCH   6   9
BRANCH   1  32
HETATM   32  C7  UNL     1      55.206  -3.239  19.717  1.00  0.00     0.287 C 
HETATM   33  N4  UNL     1      54.855  -4.587  19.871  1.00  0.00    -0.350 N 
ATOM     34  H4  UNL     1      54.966  -5.216  19.075  1.00  0.00     0.163 HD
HETATM   35  O1  UNL     1      55.076  -2.433  20.665  1.00  0.00    -0.264 OA
BRANCH  33  36
HETATM   36  C6  UNL     1      54.347  -5.114  21.096  1.00  0.00     0.168 C 
BRANCH  36  37
HETATM   37  C5  UNL     1      54.698  -6.545  21.352  1.00  0.00     0.098 C 
HETATM   38  N3  UNL     1      55.222  -6.874  22.554  1.00  0.00    -0.204 N 
ATOM     39  H3  UNL     1      55.858  -7.639  22.326  1.00  0.00     0.183 HD
BRANCH  38  40
HETATM   40  C4  UNL     1      55.354  -6.757  23.770  1.00  0.00     0.683 A 
HETATM   41  N2  UNL     1      54.630  -7.476  24.648  1.00  0.00    -0.202 N 
HETATM   42  C3  UNL     1      54.810  -7.307  25.969  1.00  0.00     0.110 A 
ATOM     43  H2  UNL     1      53.944  -8.150  24.310  1.00  0.00     0.183 HD
HETATM   44  C2  UNL     1      55.722  -6.410  26.427  1.00  0.00     0.066 A 
HETATM   45  C1  UNL     1      56.477  -5.659  25.546  1.00  0.00     0.116 A 
HETATM   46  N13 UNL     1      56.284  -5.842  24.251  1.00  0.00    -0.177 N 
ATOM     47  H13 UNL     1      56.833  -5.297  23.586  1.00  0.00     0.185 HD
BRANCH  45  48
HETATM   48  N1  UNL     1      57.333  -4.816  26.032  1.00  0.00    -0.385 N 
ATOM     49  H12 UNL     1      57.522  -4.714  27.029  1.00  0.00     0.157 HD
ATOM     50  H11 UNL     1      57.847  -4.220  25.384  1.00  0.00     0.157 HD
ENDBRANCH  45  48
ENDBRANCH  38  40
ENDBRANCH  36  37
ENDBRANCH  33  36
ENDBRANCH   1  32
TORSDOF 12
ENDMDL
MODEL 3
REMARK VINA RESULT: -6.986081693      4.163      8.096
REMARK  12 active torsions:
REMARK  status: ('A' for Active; 'I' for Inactive)
REMARK    1  A    between atoms: N1_1  and  C1_4 
REMARK    2  A    between atoms: C4_9  and  N3_10 
REMARK    3  A    between atoms: C5_12  and  C6_13 
REMARK    4  A    between atoms: C6_13  and  N4_14 
REMARK       I    between atoms: N4_14  and  C7_16 
REMARK    5  A    between atoms: C7_16  and  C8_18 
REMARK    6  A    between atoms: C9_23  and  C10_24 
REMARK    7  A    between atoms: C13_34  and  N10_35 
REMARK    8  A    between atoms: N10_35  and  C14_36 
REMARK    9  A    between atoms: C14_36  and  C15_37 
REMARK   10  A    between atoms: C14_36  and  C17_41 
REMARK   11  A    between atoms: C15_37  and  C16_38 
REMARK   12  A    between atoms: C17_41  and  O3_42 
ROOT
HETATM    1  C8  UNL     1      54.653  -2.408  17.638  1.00  0.00     0.191 A 
HETATM    2  N5  UNL     1      53.506  -2.686  17.007  1.00  0.00    -0.279 N 
ATOM      3  H5  UNL     1      52.757  -3.286  17.352  1.00  0.00     0.189 HD
HETATM    4  N6  UNL     1      53.525  -2.042  15.860  1.00  0.00    -0.283 N 
ATOM      5  H6  UNL     1      52.766  -2.080  15.179  1.00  0.00     0.188 HD
HETATM    6  C9  UNL     1      54.635  -1.335  15.682  1.00  0.00     0.138 A 
HETATM    7  N12 UNL     1      55.343  -1.582  16.830  1.00  0.00    -0.321 N 
ATOM      8  H12 UNL     1      56.264  -1.195  17.041  1.00  0.00     0.169 HD
ENDROOT
BRANCH   6   9
HETATM    9  C10 UNL     1      55.061  -0.483  14.586  1.00  0.00     0.084 A 
HETATM   10  C11 UNL     1      55.390  -1.069  13.358  1.00  0.00     0.126 A 
HETATM   11  N7  UNL     1      55.784  -0.361  12.315  1.00  0.00    -0.201 N 
HETATM   12  C12 UNL     1      55.871   0.963  12.436  1.00  0.00     0.678 A 
ATOM     13  H7  UNL     1      56.017  -0.818  11.433  1.00  0.00     0.183 HD
HETATM   14  N8  UNL     1      56.256   1.655  11.415  1.00  0.00    -0.234 N 
HETATM   15  N9  UNL     1      55.573   1.581  13.571  1.00  0.00    -0.164 N 
ATOM     16  H82 UNL     1      56.486   1.180  10.542  1.00  0.00     0.174 HD
ATOM     17  H81 UNL     1      56.323   2.669  11.508  1.00  0.00     0.174 HD
HETATM   18  C13 UNL     1      55.148   0.885  14.719  1.00  0.00     0.203 A 
ATOM     19  H9  UNL     1      55.653   2.597  13.613  1.00  0.00     0.187 HD
BRANCH  18  20
HETATM   20  N10 UNL     1      54.891   1.525  15.698  1.00  0.00    -0.420 NA
BRANCH  20  21
HETATM   21  C14 UNL     1      54.603   2.242  16.797  1.00  0.00     0.208 C 
BRANCH  21  22
HETATM   22  C15 UNL     1      53.388   3.159  16.540  1.00  0.00     0.142 C 
BRANCH  22  23
HETATM   23  C16 UNL     1      52.397   2.981  17.645  1.00  0.00     0.234 C 
HETATM   24  N11 UNL     1      51.119   2.470  17.252  1.00  0.00    -0.062 NA
HETATM   25  O2  UNL     1      52.659   3.262  18.844  1.00  0.00    -0.277 OA
ENDBRANCH  22  23
ENDBRANCH  21  22
BRANCH  21  26
HETATM   26  C17 UNL     1      55.743   3.070  17.375  1.00  0.00     0.090 C 
HETATM   27  C18 UNL     1      57.090   2.810  16.816  1.00  0.00     0.041 C 
HETATM   28  C19 UNL     1      57.009   4.127  16.089  1.00  0.00     0.006 C 
HETATM   29  C20 UNL     1      55.779   4.484  16.894  1.00  0.00     0.041 C 
BRANCH  26  30
HETATM   30  O3  UNL     1      55.721   3.047  18.769  1.00  0.00    -0.387 OA
ATOM     31  H3  UNL     1      55.229   2.301  19.090  1.00  0.00     0.210 HD
ENDBRANCH  26  30
ENDBRANCH  21  26
ENDBRANCH  20  21
ENDBRANCH  18  20
ENDBRANCH   6   9
BRANCH   1  32
HETATM   32  C7  UNL     1      55.117  -2.891  18.971  1.00  0.00     0.287 C 
HETATM   33  N4  UNL     1      54.571  -4.051  19.538  1.00  0.00    -0.350 N 
ATOM     34  H4  UNL     1      53.846  -4.553  19.024  1.00  0.00     0.163 HD
HETATM   35  O1  UNL     1      56.000  -2.241  19.572  1.00  0.00    -0.264 OA
BRANCH  33  36
HETATM   36  C6  UNL     1      54.988  -4.556  20.806  1.00  0.00     0.168 C 
BRANCH  36  37
HETATM   37  C5  UNL     1      55.107  -6.045  20.875  1.00  0.00     0.098 C 
HETATM   38  N3  UNL     1      55.419  -6.611  22.062  1.00  0.00    -0.204 N 
ATOM     39  H3  UNL     1      55.970  -7.426  21.790  1.00  0.00     0.183 HD
BRANCH  38  40
HETATM   40  C4  UNL     1      55.404  -6.683  23.289  1.00  0.00     0.683 A 
HETATM   41  N2  UNL     1      54.605  -7.538  23.953  1.00  0.00    -0.202 N 
HETATM   42  C3  UNL     1      54.623  -7.574  25.296  1.00  0.00     0.110 A 
ATOM     43  H2  UNL     1      53.983  -8.159  23.436  1.00  0.00     0.183 HD
HETATM   44  C2  UNL     1      55.448  -6.748  25.992  1.00  0.00     0.066 A 
HETATM   45  C1  UNL     1      56.278  -5.861  25.333  1.00  0.00     0.116 A 
HETATM   46  N13 UNL     1      56.244  -5.843  24.012  1.00  0.00    -0.177 N 
ATOM     47  H13 UNL     1      56.850  -5.195  23.509  1.00  0.00     0.185 HD
BRANCH  45  48
HETATM   48  N1  UNL     1      57.045  -5.094  26.042  1.00  0.00    -0.385 N 
ATOM     49  H12 UNL     1      56.982  -4.076  26.042  1.00  0.00     0.157 HD
ATOM     50  H11 UNL     1      57.752  -5.530  26.635  1.00  0.00     0.157 HD
ENDBRANCH  45  48
ENDBRANCH  38  40
ENDBRANCH  36  37
ENDBRANCH  33  36
ENDBRANCH   1  32
TORSDOF 12
ENDMDL
MODEL 4
REMARK VINA RESULT: -6.891779341      4.115      7.955
REMARK  12 active torsions:
REMARK  status: ('A' for Active; 'I' for Inactive)
REMARK    1  A    between atoms: N1_1  and  C1_4 
REMARK    2  A    between atoms: C4_9  and  N3_10 
REMARK    3  A    between atoms: C5_12  and  C6_13 
REMARK    4  A    between atoms: C6_13  and  N4_14 
REMARK       I    between atoms: N4_14  and  C7_16 
REMARK    5  A    between atoms: C7_16  and  C8_18 
REMARK    6  A    between atoms: C9_23  and  C10_24 
REMARK    7  A    between atoms: C13_34  and  N10_35 
REMARK    8  A    between atoms: N10_35  and  C14_36 
REMARK    9  A    between atoms: C14_36  and  C15_37 
REMARK   10  A    between atoms: C14_36  and  C17_41 
REMARK   11  A    between atoms: C15_37  and  C16_38 
REMARK   12  A    between atoms: C17_41  and  O3_42 
ROOT
HETATM    1  C8  UNL     1      55.329  -1.955  17.671  1.00  0.00     0.191 A 
HETATM    2  N5  UNL     1      56.061  -2.158  16.569  1.00  0.00    -0.279 N 
ATOM      3  H5  UNL     1      56.855  -2.793  16.480  1.00  0.00     0.189 HD
HETATM    4  N6  UNL     1      55.569  -1.388  15.624  1.00  0.00    -0.283 N 
ATOM      5  H6  UNL     1      55.945  -1.348  14.677  1.00  0.00     0.188 HD
HETATM    6  C9  UNL     1      54.531  -0.668  16.033  1.00  0.00     0.138 A 
HETATM    7  N12 UNL     1      54.393  -1.045  17.344  1.00  0.00    -0.321 N 
ATOM      8  H12 UNL     1      53.682  -0.686  17.982  1.00  0.00     0.169 HD
ENDROOT
BRANCH   6   9
HETATM    9  C10 UNL     1      53.693   0.288  15.330  1.00  0.00     0.084 A 
HETATM   10  C11 UNL     1      52.854  -0.167  14.307  1.00  0.00     0.126 A 
HETATM   11  N7  UNL     1      52.063   0.640  13.623  1.00  0.00    -0.201 N 
HETATM   12  C12 UNL     1      52.065   1.938  13.918  1.00  0.00     0.678 A 
ATOM     13  H7  UNL     1      51.462   0.276  12.883  1.00  0.00     0.183 HD
HETATM   14  N8  UNL     1      51.290   2.728  13.249  1.00  0.00    -0.234 N 
HETATM   15  N9  UNL     1      52.835   2.436  14.877  1.00  0.00    -0.164 N 
ATOM     16  H82 UNL     1      50.698   2.346  12.512  1.00  0.00     0.174 HD
ATOM     17  H81 UNL     1      51.292   3.722  13.475  1.00  0.00     0.174 HD
HETATM   18  C13 UNL     1      53.701   1.630  15.642  1.00  0.00     0.203 A 
ATOM     19  H9  UNL     1      52.799   3.437  15.066  1.00  0.00     0.187 HD
BRANCH  18  20
HETATM   20  N10 UNL     1      54.354   2.161  16.492  1.00  0.00    -0.420 NA
BRANCH  20  21
HETATM   21  C14 UNL     1      55.088   2.758  17.446  1.00  0.00     0.208 C 
BRANCH  21  22
HETATM   22  C15 UNL     1      54.559   4.181  17.724  1.00  0.00     0.142 C 
BRANCH  22  23
HETATM   23  C16 UNL     1      54.116   4.271  19.149  1.00  0.00     0.234 C 
HETATM   24  N11 UNL     1      55.115   4.698  20.080  1.00  0.00    -0.062 NA
HETATM   25  O2  UNL     1      52.945   3.990  19.514  1.00  0.00    -0.277 OA
ENDBRANCH  22  23
ENDBRANCH  21  22
BRANCH  21  26
HETATM   26  C17 UNL     1      56.589   2.820  17.197  1.00  0.00     0.090 C 
HETATM   27  C18 UNL     1      57.281   1.519  17.039  1.00  0.00     0.041 C 
HETATM   28  C19 UNL     1      57.409   1.801  15.565  1.00  0.00     0.006 C 
HETATM   29  C20 UNL     1      56.964   3.226  15.809  1.00  0.00     0.041 C 
BRANCH  26  30
HETATM   30  O3  UNL     1      57.215   3.658  18.118  1.00  0.00    -0.387 OA
ATOM     31  H3  UNL     1      57.924   4.143  17.711  1.00  0.00     0.210 HD
ENDBRANCH  26  30
ENDBRANCH  21  26
ENDBRANCH  20  21
ENDBRANCH  18  20
ENDBRANCH   6   9
BRANCH   1  32
HETATM   32  C7  UNL     1      55.480  -2.587  19.014  1.00  0.00     0.287 C 
HETATM   33  N4  UNL     1      54.699  -3.694  19.372  1.00  0.00    -0.350 N 
ATOM     34  H4  UNL     1      54.020  -4.053  18.699  1.00  0.00     0.163 HD
HETATM   35  O1  UNL     1      56.316  -2.110  19.812  1.00  0.00    -0.264 OA
BRANCH  33  36
HETATM   36  C6  UNL     1      54.814  -4.337  20.641  1.00  0.00     0.168 C 
BRANCH  36  37
HETATM   37  C5  UNL     1      55.320  -5.742  20.584  1.00  0.00     0.098 C 
HETATM   38  N3  UNL     1      55.630  -6.363  21.744  1.00  0.00    -0.204 N 
ATOM     39  H3  UNL     1      56.409  -6.967  21.481  1.00  0.00     0.183 HD
BRANCH  38  40
HETATM   40  C4  UNL     1      55.489  -6.598  22.942  1.00  0.00     0.683 A 
HETATM   41  N2  UNL     1      54.564  -7.459  23.405  1.00  0.00    -0.202 N 
HETATM   42  C3  UNL     1      54.448  -7.678  24.726  1.00  0.00     0.110 A 
ATOM     43  H2  UNL     1      53.951  -7.947  22.752  1.00  0.00     0.183 HD
HETATM   44  C2  UNL     1      55.260  -7.031  25.602  1.00  0.00     0.066 A 
HETATM   45  C1  UNL     1      56.217  -6.141  25.151  1.00  0.00     0.116 A 
HETATM   46  N13 UNL     1      56.315  -5.942  23.848  1.00  0.00    -0.177 N 
ATOM     47  H13 UNL     1      57.016  -5.289  23.498  1.00  0.00     0.185 HD
BRANCH  45  48
HETATM   48  N1  UNL     1      56.967  -5.549  26.026  1.00  0.00    -0.385 N 
ATOM     49  H12 UNL     1      57.967  -5.721  26.123  1.00  0.00     0.157 HD
ATOM     50  H11 UNL     1      56.535  -4.870  26.654  1.00  0.00     0.157 HD
ENDBRANCH  45  48
ENDBRANCH  38  40
ENDBRANCH  36  37
ENDBRANCH  33  36
ENDBRANCH   1  32
TORSDOF 12
ENDMDL
MODEL 5
REMARK VINA RESULT: -6.884080010      4.105      7.935
REMARK  12 active torsions:
REMARK  status: ('A' for Active; 'I' for Inactive)
REMARK    1  A    between atoms: N1_1  and  C1_4 
REMARK    2  A    between atoms: C4_9  and  N3_10 
REMARK    3  A    between atoms: C5_12  and  C6_13 
REMARK    4  A    between atoms: C6_13  and  N4_14 
REMARK       I    between atoms: N4_14  and  C7_16 
REMARK    5  A    between atoms: C7_16  and  C8_18 
REMARK    6  A    between atoms: C9_23  and  C10_24 
REMARK    7  A    between atoms: C13_34  and  N10_35 
REMARK    8  A    between atoms: N10_35  and  C14_36 
REMARK    9  A    between atoms: C14_36  and  C15_37 
REMARK   10  A    between atoms: C14_36  and  C17_41 
REMARK   11  A    between atoms: C15_37  and  C16_38 
REMARK   12  A    between atoms: C17_41  and  O3_42 
ROOT
HETATM    1  C8  UNL     1      55.853  -2.237  18.622  1.00  0.00     0.191 A 
HETATM    2  N5  UNL     1      57.088  -1.726  18.551  1.00  0.00    -0.279 N 
ATOM      3  H5  UNL     1      57.824  -1.826  19.251  1.00  0.00     0.189 HD
HETATM    4  N6  UNL     1      57.177  -1.072  17.414  1.00  0.00    -0.283 N 
ATOM      5  H6  UNL     1      58.019  -0.584  17.108  1.00  0.00     0.188 HD
HETATM    6  C9  UNL     1      56.055  -1.116  16.704  1.00  0.00     0.138 A 
HETATM    7  N12 UNL     1      55.222  -1.865  17.493  1.00  0.00    -0.321 N 
ATOM      8  H12 UNL     1      54.258  -2.106  17.258  1.00  0.00     0.169 HD
ENDROOT
BRANCH   6   9
HETATM    9  C10 UNL     1      55.722  -0.551  15.409  1.00  0.00     0.084 A 
HETATM   10  C11 UNL     1      55.309  -1.405  14.379  1.00  0.00     0.126 A 
HETATM   11  N7  UNL     1      54.987  -0.966  13.176  1.00  0.00    -0.201 N 
HETATM   12  C12 UNL     1      55.059   0.341  12.932  1.00  0.00     0.678 A 
ATOM     13  H7  UNL     1      54.690  -1.615  12.447  1.00  0.00     0.183 HD
HETATM   14  N8  UNL     1      54.744   0.771  11.753  1.00  0.00    -0.234 N 
HETATM   15  N9  UNL     1      55.441   1.206  13.862  1.00  0.00    -0.164 N 
ATOM     16  H82 UNL     1      54.450   0.106  11.038  1.00  0.00     0.174 HD
ATOM     17  H81 UNL     1      54.799   1.771  11.567  1.00  0.00     0.174 HD
HETATM   18  C13 UNL     1      55.797   0.803  15.164  1.00  0.00     0.203 A 
ATOM     19  H9  UNL     1      55.477   2.197  13.627  1.00  0.00     0.187 HD
BRANCH  18  20
HETATM   20  N10 UNL     1      56.122   1.652  15.943  1.00  0.00    -0.420 NA
BRANCH  20  21
HETATM   21  C14 UNL     1      56.486   2.605  16.816  1.00  0.00     0.208 C 
BRANCH  21  22
HETATM   22  C15 UNL     1      56.189   2.156  18.263  1.00  0.00     0.142 C 
BRANCH  22  23
HETATM   23  C16 UNL     1      57.403   2.379  19.106  1.00  0.00     0.234 C 
HETATM   24  N11 UNL     1      58.010   1.198  19.639  1.00  0.00    -0.062 NA
HETATM   25  O2  UNL     1      57.867   3.525  19.338  1.00  0.00    -0.277 OA
ENDBRANCH  22  23
ENDBRANCH  21  22
BRANCH  21  26
HETATM   26  C17 UNL     1      55.889   3.988  16.588  1.00  0.00     0.090 C 
HETATM   27  C18 UNL     1      54.992   4.128  15.417  1.00  0.00     0.041 C 
HETATM   28  C19 UNL     1      53.820   4.195  16.361  1.00  0.00     0.006 C 
HETATM   29  C20 UNL     1      54.778   4.337  17.523  1.00  0.00     0.041 C 
BRANCH  26  30
HETATM   30  O3  UNL     1      56.873   4.973  16.638  1.00  0.00    -0.387 OA
ATOM     31  H3  UNL     1      56.509   5.830  16.451  1.00  0.00     0.210 HD
ENDBRANCH  26  30
ENDBRANCH  21  26
ENDBRANCH  20  21
ENDBRANCH  18  20
ENDBRANCH   6   9
BRANCH   1  32
HETATM   32  C7  UNL     1      55.252  -3.060  19.711  1.00  0.00     0.287 C 
HETATM   33  N4  UNL     1      54.900  -4.397  19.482  1.00  0.00    -0.350 N 
ATOM     34  H4  UNL     1      55.058  -4.793  18.554  1.00  0.00     0.163 HD
HETATM   35  O1  UNL     1      55.067  -2.534  20.830  1.00  0.00    -0.264 OA
BRANCH  33  36
HETATM   36  C6  UNL     1      54.331  -5.226  20.495  1.00  0.00     0.168 C 
BRANCH  36  37
HETATM   37  C5  UNL     1      55.052  -6.516  20.723  1.00  0.00     0.098 C 
HETATM   38  N3  UNL     1      55.477  -6.803  21.974  1.00  0.00    -0.204 N 
ATOM     39  H3  UNL     1      56.336  -7.328  21.810  1.00  0.00     0.183 HD
BRANCH  38  40
HETATM   40  C4  UNL     1      55.396  -6.779  23.200  1.00  0.00     0.683 A 
HETATM   41  N2  UNL     1      54.519  -7.538  23.882  1.00  0.00    -0.202 N 
HETATM   42  C3  UNL     1      54.468  -7.471  25.223  1.00  0.00     0.110 A 
ATOM     43  H2  UNL     1      53.892  -8.166  23.380  1.00  0.00     0.183 HD
HETATM   44  C2  UNL     1      55.300  -6.635  25.899  1.00  0.00     0.066 A 
HETATM   45  C1  UNL     1      56.209  -5.845  25.222  1.00  0.00     0.116 A 
HETATM   46  N13 UNL     1      56.242  -5.928  23.903  1.00  0.00    -0.177 N 
ATOM     47  H13 UNL     1      56.907  -5.352  23.386  1.00  0.00     0.185 HD
BRANCH  45  48
HETATM   48  N1  UNL     1      56.979  -5.064  25.911  1.00  0.00    -0.385 N 
ATOM     49  H12 UNL     1      57.202  -4.106  25.640  1.00  0.00     0.157 HD
ATOM     50  H11 UNL     1      57.385  -5.424  26.775  1.00  0.00     0.157 HD
ENDBRANCH  45  48
ENDBRANCH  38  40
ENDBRANCH  36  37
ENDBRANCH  33  36
ENDBRANCH   1  32
TORSDOF 12
ENDMDL
