MODEL 1
REMARK VINA RESULT: -7.345155663      0.000      0.000
REMARK  12 active torsions:
REMARK  status: ('A' for Active; 'I' for Inactive)
REMARK    1  A    between atoms: O1_2  and  C2_3 
REMARK    2  A    between atoms: C3_4  and  C4_5 
REMARK    3  A    between atoms: C4_5  and  C5_6 
REMARK    4  A    between atoms: C8_15  and  C9_16 
REMARK    5  A    between atoms: N3_17  and  N4_19 
REMARK    6  A    between atoms: N4_19  and  C10_20 
REMARK    7  A    between atoms: C10_20  and  O4_21 
REMARK    8  A    between atoms: C10_20  and  C11_23 
REMARK       I    between atoms: C11_23  and  N5_25 
REMARK    9  A    between atoms: N5_25  and  C12_27 
REMARK   10  A    between atoms: C12_27  and  C13_28 
REMARK   11  A    between atoms: C13_28  and  C14_29 
REMARK   12  A    between atoms: C14_29  and  N6_30 
ROOT
HETATM    1  C5  UNL     1       6.241   8.217  22.098  1.00  0.00     0.035 A 
HETATM    2  N1  UNL     1       6.836   7.973  23.312  1.00  0.00    -0.311 N 
ATOM      3  H1  UNL     1       6.440   7.282  23.949  1.00  0.00     0.170 HD
HETATM    4  C6  UNL     1       7.927   8.644  23.647  1.00  0.00     0.327 A 
HETATM    5  O2  UNL     1       8.507   8.433  24.779  1.00  0.00    -0.247 OA
HETATM    6  N2  UNL     1       8.463   9.565  22.814  1.00  0.00    -0.275 N 
ATOM      7  H2  UNL     1       9.307  10.067  23.093  1.00  0.00     0.173 HD
HETATM    8  C7  UNL     1       7.905   9.824  21.637  1.00  0.00     0.263 A 
HETATM    9  O3  UNL     1       8.436  10.703  20.869  1.00  0.00    -0.267 OA
HETATM   10  C8  UNL     1       6.732   9.138  21.229  1.00  0.00     0.073 A 
ENDROOT
BRANCH  10  11
HETATM   11  C9  UNL     1       6.097   9.666  20.062  1.00  0.00     0.140 C 
HETATM   12  N3  UNL     1       6.418   9.428  18.867  1.00  0.00    -0.243 N 
ATOM     13  H3  UNL     1       7.219   8.804  18.773  1.00  0.00     0.201 HD
BRANCH  12  14
HETATM   14  N4  UNL     1       5.916   9.833  17.711  1.00  0.00    -0.294 NA
BRANCH  14  15
HETATM   15  C10 UNL     1       5.421  10.236  16.567  1.00  0.00     0.306 C 
BRANCH  15  16
HETATM   16  O4  UNL     1       4.995  11.535  16.403  1.00  0.00    -0.330 OA
ATOM     17  H4  UNL     1       4.095  11.778  16.586  1.00  0.00     0.220 HD
ENDBRANCH  15  16
BRANCH  15  18
HETATM   18  C11 UNL     1       5.186   9.553  15.297  1.00  0.00     0.309 C 
HETATM   19  O5  UNL     1       5.640   8.417  15.073  1.00  0.00    -0.262 OA
HETATM   20  N5  UNL     1       4.409  10.202  14.311  1.00  0.00    -0.353 N 
ATOM     21  H5  UNL     1       4.025  11.129  14.495  1.00  0.00     0.162 HD
BRANCH  20  22
HETATM   22  C12 UNL     1       4.160   9.556  13.044  1.00  0.00     0.128 C 
BRANCH  22  23
HETATM   23  C13 UNL     1       4.626  10.454  11.917  1.00  0.00     0.064 C 
BRANCH  23  24
HETATM   24  C14 UNL     1       6.049  10.887  12.015  1.00  0.00     0.059 C 
BRANCH  24  25
HETATM   25  N6  UNL     1       7.061   9.954  12.052  1.00  0.00    -0.393 N 
HETATM   26  C15 UNL     1       7.375   9.019  11.078  1.00  0.00     0.122 C 
HETATM   27  C16 UNL     1       8.922   9.062  11.069  1.00  0.00     0.021 C 
HETATM   28  C17 UNL     1       9.220   9.139  12.551  1.00  0.00     0.021 C 
HETATM   29  C18 UNL     1       8.096  10.072  13.025  1.00  0.00     0.122 C 
ENDBRANCH  24  25
ENDBRANCH  23  24
ENDBRANCH  22  23
ENDBRANCH  20  22
ENDBRANCH  15  18
ENDBRANCH  14  15
ENDBRANCH  12  14
ENDBRANCH  10  11
BRANCH   1  30
HETATM   30  C4  UNL     1       5.174   7.267  21.771  1.00  0.00     0.107 C 
BRANCH  30  31
HETATM   31  C3  UNL     1       5.863   6.271  20.818  1.00  0.00     0.025 A 
HETATM   32  C2  UNL     1       5.563   6.035  19.503  1.00  0.00     0.105 A 
HETATM   33  C20 UNL     1       6.258   5.062  18.889  1.00  0.00     0.097 A 
HETATM   34  C19 UNL     1       7.200   4.399  19.634  1.00  0.00     0.099 A 
HETATM   35 CL2  UNL     1       6.010   4.591  17.175  1.00  0.00    -0.079 Cl
HETATM   36  S1  UNL     1       7.087   5.156  21.160  1.00  0.00    -0.077 SA
HETATM   37 CL1  UNL     1       8.276   3.070  19.159  1.00  0.00    -0.074 Cl
BRANCH  32  38
HETATM   38  O1  UNL     1       4.557   6.816  18.874  1.00  0.00    -0.353 OA
HETATM   39  C1  UNL     1       3.235   6.385  18.708  1.00  0.00     0.210 C 
ENDBRANCH  32  38
ENDBRANCH  30  31
ENDBRANCH   1  30
TORSDOF 12
ENDMDL
MODEL 2
REMARK VINA RESULT: -7.259612832      1.203      1.564
REMARK  12 active torsions:
REMARK  status: ('A' for Active; 'I' for Inactive)
REMARK    1  A    between atoms: O1_2  and  C2_3 
REMARK    2  A    between atoms: C3_4  and  C4_5 
REMARK    3  A    between atoms: C4_5  and  C5_6 
REMARK    4  A    between atoms: C8_15  and  C9_16 
REMARK    5  A    between atoms: N3_17  and  N4_19 
REMARK    6  A    between atoms: N4_19  and  C10_20 
REMARK    7  A    between atoms: C10_20  and  O4_21 
REMARK    8  A    between atoms: C10_20  and  C11_23 
REMARK       I    between atoms: C11_23  and  N5_25 
REMARK    9  A    between atoms: N5_25  and  C12_27 
REMARK   10  A    between atoms: C12_27  and  C13_28 
REMARK   11  A    between atoms: C13_28  and  C14_29 
REMARK   12  A    between atoms: C14_29  and  N6_30 
ROOT
HETATM    1  C5  UNL     1       6.275   8.207  22.212  1.00  0.00     0.035 A 
HETATM    2  N1  UNL     1       6.880   7.989  23.426  1.00  0.00    -0.311 N 
ATOM      3  H1  UNL     1       6.494   7.307  24.079  1.00  0.00     0.170 HD
HETATM    4  C6  UNL     1       7.969   8.674  23.741  1.00  0.00     0.327 A 
HETATM    5  O2  UNL     1       8.558   8.488  24.873  1.00  0.00    -0.247 OA
HETATM    6  N2  UNL     1       8.493   9.583  22.888  1.00  0.00    -0.275 N 
ATOM      7  H2  UNL     1       9.334  10.096  23.152  1.00  0.00     0.173 HD
HETATM    8  C7  UNL     1       7.925   9.817  21.710  1.00  0.00     0.263 A 
HETATM    9  O3  UNL     1       8.444  10.685  20.922  1.00  0.00    -0.267 OA
HETATM   10  C8  UNL     1       6.753   9.115  21.323  1.00  0.00     0.073 A 
ENDROOT
BRANCH  10  11
HETATM   11  C9  UNL     1       6.107   9.617  20.151  1.00  0.00     0.140 C 
HETATM   12  N3  UNL     1       6.451   9.397  18.959  1.00  0.00    -0.243 N 
ATOM     13  H3  UNL     1       7.280   8.809  18.871  1.00  0.00     0.201 HD
BRANCH  12  14
HETATM   14  N4  UNL     1       5.942   9.781  17.798  1.00  0.00    -0.294 NA
BRANCH  14  15
HETATM   15  C10 UNL     1       5.441  10.160  16.649  1.00  0.00     0.306 C 
BRANCH  15  16
HETATM   16  O4  UNL     1       5.140  11.482  16.413  1.00  0.00    -0.330 OA
ATOM     17  H4  UNL     1       4.612  11.735  15.665  1.00  0.00     0.220 HD
ENDBRANCH  15  16
BRANCH  15  18
HETATM   18  C11 UNL     1       5.084   9.425  15.437  1.00  0.00     0.309 C 
HETATM   19  O5  UNL     1       4.964   9.997  14.339  1.00  0.00    -0.262 OA
HETATM   20  N5  UNL     1       4.888   8.029  15.523  1.00  0.00    -0.353 N 
ATOM     21  H5  UNL     1       4.996   7.554  16.419  1.00  0.00     0.162 HD
BRANCH  20  22
HETATM   22  C12 UNL     1       4.533   7.274  14.344  1.00  0.00     0.128 C 
BRANCH  22  23
HETATM   23  C13 UNL     1       5.608   6.246  14.058  1.00  0.00     0.064 C 
BRANCH  23  24
HETATM   24  C14 UNL     1       6.448   6.542  12.862  1.00  0.00     0.059 C 
BRANCH  24  25
HETATM   25  N6  UNL     1       7.017   7.785  12.701  1.00  0.00    -0.393 N 
HETATM   26  C15 UNL     1       8.096   8.310  13.396  1.00  0.00     0.122 C 
HETATM   27  C16 UNL     1       8.889   9.028  12.277  1.00  0.00     0.021 C 
HETATM   28  C17 UNL     1       7.765   9.669  11.490  1.00  0.00     0.021 C 
HETATM   29  C18 UNL     1       6.702   8.563  11.548  1.00  0.00     0.122 C 
ENDBRANCH  24  25
ENDBRANCH  23  24
ENDBRANCH  22  23
ENDBRANCH  20  22
ENDBRANCH  15  18
ENDBRANCH  14  15
ENDBRANCH  12  14
ENDBRANCH  10  11
BRANCH   1  30
HETATM   30  C4  UNL     1       5.213   7.244  21.909  1.00  0.00     0.107 C 
BRANCH  30  31
HETATM   31  C3  UNL     1       5.887   6.265  20.928  1.00  0.00     0.025 A 
HETATM   32  C2  UNL     1       5.549   6.033  19.622  1.00  0.00     0.105 A 
HETATM   33  C20 UNL     1       6.240   5.076  18.978  1.00  0.00     0.097 A 
HETATM   34  C19 UNL     1       7.216   4.423  19.688  1.00  0.00     0.099 A 
HETATM   35 CL2  UNL     1       5.944   4.613  17.270  1.00  0.00    -0.079 Cl
HETATM   36  S1  UNL     1       7.139   5.168  21.222  1.00  0.00    -0.077 SA
HETATM   37 CL1  UNL     1       8.297   3.116  19.169  1.00  0.00    -0.074 Cl
BRANCH  32  38
HETATM   38  O1  UNL     1       4.510   6.802  19.031  1.00  0.00    -0.353 OA
HETATM   39  C1  UNL     1       3.191   6.349  18.901  1.00  0.00     0.210 C 
ENDBRANCH  32  38
ENDBRANCH  30  31
ENDBRANCH   1  30
TORSDOF 12
ENDMDL
MODEL 3
REMARK VINA RESULT: -7.193149812      4.948      6.621
REMARK  12 active torsions:
REMARK  status: ('A' for Active; 'I' for Inactive)
REMARK    1  A    between atoms: O1_2  and  C2_3 
REMARK    2  A    between atoms: C3_4  and  C4_5 
REMARK    3  A    between atoms: C4_5  and  C5_6 
REMARK    4  A    between atoms: C8_15  and  C9_16 
REMARK    5  A    between atoms: N3_17  and  N4_19 
REMARK    6  A    between atoms: N4_19  and  C10_20 
REMARK    7  A    between atoms: C10_20  and  O4_21 
REMARK    8  A    between atoms: C10_20  and  C11_23 
REMARK       I    between atoms: C11_23  and  N5_25 
REMARK    9  A    between atoms: N5_25  and  C12_27 
REMARK   10  A    between atoms: C12_27  and  C13_28 
REMARK   11  A    between atoms: C13_28  and  C14_29 
REMARK   12  A    between atoms: C14_29  and  N6_30 
ROOT
HETATM    1  C5  UNL     1       8.278   8.911  22.208  1.00  0.00     0.035 A 
HETATM    2  N1  UNL     1       9.309   9.484  22.912  1.00  0.00    -0.311 N 
ATOM      3  H1  UNL     1      10.159   9.780  22.431  1.00  0.00     0.170 HD
HETATM    4  C6  UNL     1       9.190   9.648  24.221  1.00  0.00     0.327 A 
HETATM    5  O2  UNL     1      10.141  10.185  24.905  1.00  0.00    -0.247 OA
HETATM    6  N2  UNL     1       8.071   9.259  24.874  1.00  0.00    -0.275 N 
ATOM      7  H2  UNL     1       8.001   9.399  25.882  1.00  0.00     0.173 HD
HETATM    8  C7  UNL     1       7.061   8.697  24.218  1.00  0.00     0.263 A 
HETATM    9  O3  UNL     1       6.014   8.338  24.864  1.00  0.00    -0.267 OA
HETATM   10  C8  UNL     1       7.137   8.493  22.816  1.00  0.00     0.073 A 
ENDROOT
BRANCH  10  11
HETATM   11  C9  UNL     1       6.102   7.674  22.267  1.00  0.00     0.140 C 
HETATM   12  N3  UNL     1       6.178   6.440  22.025  1.00  0.00    -0.243 N 
ATOM     13  H3  UNL     1       7.087   6.032  22.247  1.00  0.00     0.201 HD
BRANCH  12  14
HETATM   14  N4  UNL     1       5.306   5.571  21.539  1.00  0.00    -0.294 NA
BRANCH  14  15
HETATM   15  C10 UNL     1       4.445   4.711  21.055  1.00  0.00     0.306 C 
BRANCH  15  16
HETATM   16  O4  UNL     1       3.325   4.356  21.774  1.00  0.00    -0.330 OA
ATOM     17  H4  UNL     1       2.892   3.525  21.619  1.00  0.00     0.220 HD
ENDBRANCH  15  16
BRANCH  15  18
HETATM   18  C11 UNL     1       4.395   3.960  19.802  1.00  0.00     0.309 C 
HETATM   19  O5  UNL     1       4.344   2.718  19.788  1.00  0.00    -0.262 OA
HETATM   20  N5  UNL     1       4.393   4.674  18.584  1.00  0.00    -0.353 N 
ATOM     21  H5  UNL     1       4.424   5.693  18.591  1.00  0.00     0.162 HD
BRANCH  20  22
HETATM   22  C12 UNL     1       4.347   3.963  17.327  1.00  0.00     0.128 C 
BRANCH  22  23
HETATM   23  C13 UNL     1       5.674   4.110  16.612  1.00  0.00     0.064 C 
BRANCH  23  24
HETATM   24  C14 UNL     1       6.458   2.847  16.490  1.00  0.00     0.059 C 
BRANCH  24  25
HETATM   25  N6  UNL     1       7.513   2.596  17.337  1.00  0.00    -0.393 N 
HETATM   26  C15 UNL     1       7.706   3.110  18.611  1.00  0.00     0.122 C 
HETATM   27  C16 UNL     1       8.237   1.878  19.383  1.00  0.00     0.021 C 
HETATM   28  C17 UNL     1       9.183   1.281  18.364  1.00  0.00     0.021 C 
HETATM   29  C18 UNL     1       8.394   1.509  17.066  1.00  0.00     0.122 C 
ENDBRANCH  24  25
ENDBRANCH  23  24
ENDBRANCH  22  23
ENDBRANCH  20  22
ENDBRANCH  15  18
ENDBRANCH  14  15
ENDBRANCH  12  14
ENDBRANCH  10  11
BRANCH   1  30
HETATM   30  C4  UNL     1       8.455   8.979  20.755  1.00  0.00     0.107 C 
BRANCH  30  31
HETATM   31  C3  UNL     1       7.554  10.160  20.341  1.00  0.00     0.025 A 
HETATM   32  C2  UNL     1       6.598  10.172  19.361  1.00  0.00     0.105 A 
HETATM   33  C20 UNL     1       5.983  11.344  19.130  1.00  0.00     0.097 A 
HETATM   34  C19 UNL     1       6.369  12.416  19.894  1.00  0.00     0.099 A 
HETATM   35 CL2  UNL     1       4.711  11.572  17.884  1.00  0.00    -0.079 Cl
HETATM   36  S1  UNL     1       7.570  11.752  20.909  1.00  0.00    -0.077 SA
HETATM   37 CL1  UNL     1       5.790  14.092  19.852  1.00  0.00    -0.074 Cl
BRANCH  32  38
HETATM   38  O1  UNL     1       6.314   8.969  18.660  1.00  0.00    -0.353 OA
HETATM   39  C1  UNL     1       5.182   8.181  18.902  1.00  0.00     0.210 C 
ENDBRANCH  32  38
ENDBRANCH  30  31
ENDBRANCH   1  30
TORSDOF 12
ENDMDL
MODEL 4
REMARK VINA RESULT: -7.076347663      3.232      3.830
REMARK  12 active torsions:
REMARK  status: ('A' for Active; 'I' for Inactive)
REMARK    1  A    between atoms: O1_2  and  C2_3 
REMARK    2  A    between atoms: C3_4  and  C4_5 
REMARK    3  A    between atoms: C4_5  and  C5_6 
REMARK    4  A    between atoms: C8_15  and  C9_16 
REMARK    5  A    between atoms: N3_17  and  N4_19 
REMARK    6  A    between atoms: N4_19  and  C10_20 
REMARK    7  A    between atoms: C10_20  and  O4_21 
REMARK    8  A    between atoms: C10_20  and  C11_23 
REMARK       I    between atoms: C11_23  and  N5_25 
REMARK    9  A    between atoms: N5_25  and  C12_27 
REMARK   10  A    between atoms: C12_27  and  C13_28 
REMARK   11  A    between atoms: C13_28  and  C14_29 
REMARK   12  A    between atoms: C14_29  and  N6_30 
ROOT
HETATM    1  C5  UNL     1       6.265   8.231  22.366  1.00  0.00     0.035 A 
HETATM    2  N1  UNL     1       6.922   8.045  23.558  1.00  0.00    -0.311 N 
ATOM      3  H1  UNL     1       6.533   7.426  24.269  1.00  0.00     0.170 HD
HETATM    4  C6  UNL     1       8.066   8.677  23.775  1.00  0.00     0.327 A 
HETATM    5  O2  UNL     1       8.704   8.519  24.884  1.00  0.00    -0.247 OA
HETATM    6  N2  UNL     1       8.595   9.502  22.843  1.00  0.00    -0.275 N 
ATOM      7  H2  UNL     1       9.478   9.975  23.032  1.00  0.00     0.173 HD
HETATM    8  C7  UNL     1       7.978   9.703  21.684  1.00  0.00     0.263 A 
HETATM    9  O3  UNL     1       8.503  10.492  20.820  1.00  0.00    -0.267 OA
HETATM   10  C8  UNL     1       6.747   9.055  21.400  1.00  0.00     0.073 A 
ENDROOT
BRANCH  10  11
HETATM   11  C9  UNL     1       6.069   9.530  20.235  1.00  0.00     0.140 C 
HETATM   12  N3  UNL     1       6.494   9.472  19.050  1.00  0.00    -0.243 N 
ATOM     13  H3  UNL     1       7.419   9.050  18.965  1.00  0.00     0.201 HD
BRANCH  12  14
HETATM   14  N4  UNL     1       5.971   9.855  17.895  1.00  0.00    -0.294 NA
BRANCH  14  15
HETATM   15  C10 UNL     1       5.457  10.232  16.751  1.00  0.00     0.306 C 
BRANCH  15  16
HETATM   16  O4  UNL     1       5.058  11.535  16.555  1.00  0.00    -0.330 OA
ATOM     17  H4  UNL     1       5.228  11.975  15.731  1.00  0.00     0.220 HD
ENDBRANCH  15  16
BRANCH  15  18
HETATM   18  C11 UNL     1       5.174   9.514  15.511  1.00  0.00     0.309 C 
HETATM   19  O5  UNL     1       5.566   8.348  15.328  1.00  0.00    -0.262 OA
HETATM   20  N5  UNL     1       4.424  10.164  14.506  1.00  0.00    -0.353 N 
ATOM     21  H5  UNL     1       4.091  11.116  14.656  1.00  0.00     0.162 HD
BRANCH  20  22
HETATM   22  C12 UNL     1       4.129   9.483  13.267  1.00  0.00     0.128 C 
BRANCH  22  23
HETATM   23  C13 UNL     1       4.608  10.323  12.101  1.00  0.00     0.064 C 
BRANCH  23  24
HETATM   24  C14 UNL     1       6.016  10.800  12.216  1.00  0.00     0.059 C 
BRANCH  24  25
HETATM   25  N6  UNL     1       7.060   9.904  12.196  1.00  0.00    -0.393 N 
HETATM   26  C15 UNL     1       7.379   9.010  11.185  1.00  0.00     0.122 C 
HETATM   27  C16 UNL     1       8.923   9.108  11.135  1.00  0.00     0.021 C 
HETATM   28  C17 UNL     1       9.259   9.153  12.610  1.00  0.00     0.021 C 
HETATM   29  C18 UNL     1       8.118  10.030  13.143  1.00  0.00     0.122 C 
ENDBRANCH  24  25
ENDBRANCH  23  24
ENDBRANCH  22  23
ENDBRANCH  20  22
ENDBRANCH  15  18
ENDBRANCH  14  15
ENDBRANCH  12  14
ENDBRANCH  10  11
BRANCH   1  30
HETATM   30  C4  UNL     1       5.133   7.320  22.176  1.00  0.00     0.107 C 
BRANCH  30  31
HETATM   31  C3  UNL     1       4.070   7.865  23.151  1.00  0.00     0.025 A 
HETATM   32  C2  UNL     1       3.233   7.142  23.958  1.00  0.00     0.105 A 
HETATM   33  C20 UNL     1       2.334   7.837  24.675  1.00  0.00     0.097 A 
HETATM   34  C19 UNL     1       2.338   9.202  24.532  1.00  0.00     0.099 A 
HETATM   35 CL2  UNL     1       1.142   7.078  25.782  1.00  0.00    -0.079 Cl
HETATM   36  S1  UNL     1       3.595   9.467  23.409  1.00  0.00    -0.077 SA
HETATM   37 CL1  UNL     1       1.297  10.414  25.302  1.00  0.00    -0.074 Cl
BRANCH  32  38
HETATM   38  O1  UNL     1       3.361   5.727  23.993  1.00  0.00    -0.353 OA
HETATM   39  C1  UNL     1       2.538   4.858  23.266  1.00  0.00     0.210 C 
ENDBRANCH  32  38
ENDBRANCH  30  31
ENDBRANCH   1  30
TORSDOF 12
ENDMDL
MODEL 5
REMARK VINA RESULT: -7.031121022      2.144      3.556
REMARK  12 active torsions:
REMARK  status: ('A' for Active; 'I' for Inactive)
REMARK    1  A    between atoms: O1_2  and  C2_3 
REMARK    2  A    between atoms: C3_4  and  C4_5 
REMARK    3  A    between atoms: C4_5  and  C5_6 
REMARK    4  A    between atoms: C8_15  and  C9_16 
REMARK    5  A    between atoms: N3_17  and  N4_19 
REMARK    6  A    between atoms: N4_19  and  C10_20 
REMARK    7  A    between atoms: C10_20  and  O4_21 
REMARK    8  A    between atoms: C10_20  and  C11_23 
REMARK       I    between atoms: C11_23  and  N5_25 
REMARK    9  A    between atoms: N5_25  and  C12_27 
REMARK   10  A    between atoms: C12_27  and  C13_28 
REMARK   11  A    between atoms: C13_28  and  C14_29 
REMARK   12  A    between atoms: C14_29  and  N6_30 
ROOT
HETATM    1  C5  UNL     1       6.172   8.363  21.951  1.00  0.00     0.035 A 
HETATM    2  N1  UNL     1       6.719   8.089  23.181  1.00  0.00    -0.311 N 
ATOM      3  H1  UNL     1       6.273   7.415  23.804  1.00  0.00     0.170 HD
HETATM    4  C6  UNL     1       7.829   8.709  23.551  1.00  0.00     0.327 A 
HETATM    5  O2  UNL     1       8.364   8.469  24.699  1.00  0.00    -0.247 OA
HETATM    6  N2  UNL     1       8.432   9.607  22.738  1.00  0.00    -0.275 N 
ATOM      7  H2  UNL     1       9.288  10.069  23.044  1.00  0.00     0.173 HD
HETATM    8  C7  UNL     1       7.922   9.893  21.545  1.00  0.00     0.263 A 
HETATM    9  O3  UNL     1       8.515  10.749  20.797  1.00  0.00    -0.267 OA
HETATM   10  C8  UNL     1       6.731   9.262  21.100  1.00  0.00     0.073 A 
ENDROOT
BRANCH  10  11
HETATM   11  C9  UNL     1       6.157   9.821  19.916  1.00  0.00     0.140 C 
HETATM   12  N3  UNL     1       6.497   9.564  18.731  1.00  0.00    -0.243 N 
ATOM     13  H3  UNL     1       7.266   8.898  18.658  1.00  0.00     0.201 HD
BRANCH  12  14
HETATM   14  N4  UNL     1       6.048   9.993  17.561  1.00  0.00    -0.294 NA
BRANCH  14  15
HETATM   15  C10 UNL     1       5.606  10.418  16.403  1.00  0.00     0.306 C 
BRANCH  15  16
HETATM   16  O4  UNL     1       4.857  11.570  16.316  1.00  0.00    -0.330 OA
ATOM     17  H4  UNL     1       4.361  11.768  15.531  1.00  0.00     0.220 HD
ENDBRANCH  15  16
BRANCH  15  18
HETATM   18  C11 UNL     1       5.734   9.896  15.045  1.00  0.00     0.309 C 
HETATM   19  O5  UNL     1       5.707  10.645  14.053  1.00  0.00    -0.262 OA
HETATM   20  N5  UNL     1       5.905   8.505  14.866  1.00  0.00    -0.353 N 
ATOM     21  H5  UNL     1       5.939   7.888  15.678  1.00  0.00     0.162 HD
BRANCH  20  22
HETATM   22  C12 UNL     1       6.033   7.956  13.537  1.00  0.00     0.128 C 
BRANCH  22  23
HETATM   23  C13 UNL     1       6.347   6.477  13.627  1.00  0.00     0.064 C 
BRANCH  23  24
HETATM   24  C14 UNL     1       5.282   5.653  14.267  1.00  0.00     0.059 C 
BRANCH  24  25
HETATM   25  N6  UNL     1       5.526   4.995  15.451  1.00  0.00    -0.393 N 
HETATM   26  C15 UNL     1       5.218   5.430  16.731  1.00  0.00     0.122 C 
HETATM   27  C16 UNL     1       4.706   4.134  17.404  1.00  0.00     0.021 C 
HETATM   28  C17 UNL     1       5.698   3.120  16.875  1.00  0.00     0.021 C 
HETATM   29  C18 UNL     1       5.878   3.614  15.432  1.00  0.00     0.122 C 
ENDBRANCH  24  25
ENDBRANCH  23  24
ENDBRANCH  22  23
ENDBRANCH  20  22
ENDBRANCH  15  18
ENDBRANCH  14  15
ENDBRANCH  12  14
ENDBRANCH  10  11
BRANCH   1  30
HETATM   30  C4  UNL     1       5.074   7.464  21.588  1.00  0.00     0.107 C 
BRANCH  30  31
HETATM   31  C3  UNL     1       5.799   6.215  21.048  1.00  0.00     0.025 A 
HETATM   32  C2  UNL     1       5.584   4.911  21.403  1.00  0.00     0.105 A 
HETATM   33  C20 UNL     1       6.391   3.990  20.848  1.00  0.00     0.097 A 
HETATM   34  C19 UNL     1       7.353   4.443  19.980  1.00  0.00     0.099 A 
HETATM   35 CL2  UNL     1       6.280   2.232  21.190  1.00  0.00    -0.079 Cl
HETATM   36  S1  UNL     1       7.095   6.130  19.966  1.00  0.00    -0.077 SA
HETATM   37 CL1  UNL     1       8.582   3.525  19.089  1.00  0.00    -0.074 Cl
BRANCH  32  38
HETATM   38  O1  UNL     1       4.539   4.608  22.318  1.00  0.00    -0.353 OA
HETATM   39  C1  UNL     1       3.262   4.191  21.923  1.00  0.00     0.210 C 
ENDBRANCH  32  38
ENDBRANCH  30  31
ENDBRANCH   1  30
TORSDOF 12
ENDMDL
