MODEL 1
REMARK VINA RESULT: -7.812456428      0.000      0.000
REMARK  14 active torsions:
REMARK  status: ('A' for Active; 'I' for Inactive)
REMARK    1  A    between atoms: C2_2  and  C3_3 
REMARK    2  A    between atoms: C3_3  and  C4_4 
REMARK    3  A    between atoms: C4_4  and  N1_5 
REMARK    4  A    between atoms: C4_4  and  C20_38 
REMARK       I    between atoms: N1_5  and  C5_7 
REMARK    5  A    between atoms: C5_7  and  C6_9 
REMARK    6  A    between atoms: N2_16  and  C11_17 
REMARK    7  A    between atoms: C11_17  and  O2_18 
REMARK    8  A    between atoms: C11_17  and  C12_20 
REMARK    9  A    between atoms: C12_20  and  N3_22 
REMARK   10  A    between atoms: N3_22  and  N4_24 
REMARK       I    between atoms: N4_24  and  C14_26 
REMARK   11  A    between atoms: C14_26  and  C15_28 
REMARK       I    between atoms: C15_28  and  N5_30 
REMARK   12  A    between atoms: N5_30  and  N6_32 
REMARK   13  A    between atoms: N6_32  and  C16_34 
REMARK   14  A    between atoms: C16_34  and  C17_35 
ROOT
HETATM    1  C6  UNL     1       7.457   8.395  20.330  1.00  0.00     0.178 C 
HETATM    2  C7  UNL     1       7.477   9.635  19.494  1.00  0.00     0.041 C 
HETATM    3  C8  UNL     1       7.840  10.870  20.271  1.00  0.00     0.083 C 
HETATM    4  C9  UNL     1       6.751  11.157  21.285  1.00  0.00     0.259 C 
HETATM    5  F1  UNL     1       7.373  11.611  22.406  1.00  0.00    -0.205 F 
HETATM    6  F2  UNL     1       5.860  12.075  20.795  1.00  0.00    -0.205 F 
HETATM    7  C10 UNL     1       5.952   9.870  21.548  1.00  0.00     0.204 C 
HETATM    8  N2  UNL     1       6.870   8.780  21.664  1.00  0.00    -0.341 N 
ENDROOT
BRANCH   8   9
HETATM    9  C11 UNL     1       7.259   8.124  22.806  1.00  0.00     0.163 C 
BRANCH   9  10
HETATM   10  O2  UNL     1       7.278   6.818  22.709  1.00  0.00    -0.345 OA
ATOM     11  H2  UNL     1       6.459   6.391  22.931  1.00  0.00     0.219 HD
ENDBRANCH   9  10
BRANCH   9  12
HETATM   12  C12 UNL     1       7.653   8.625  24.092  1.00  0.00     0.072 C 
HETATM   13  C13 UNL     1       8.843   9.430  24.412  1.00  0.00     0.074 C 
BRANCH  12  14
HETATM   14  N3  UNL     1       6.858   8.372  25.120  1.00  0.00    -0.298 N 
ATOM     15  H3  UNL     1       7.095   7.631  25.779  1.00  0.00     0.187 HD
BRANCH  14  16
HETATM   16  N4  UNL     1       5.713   9.113  25.297  1.00  0.00    -0.262 N 
HETATM   17  C14 UNL     1       4.399   8.610  25.080  1.00  0.00     0.329 C 
HETATM   18  O3  UNL     1       4.320   7.393  24.700  1.00  0.00    -0.261 OA
ATOM     19  H4  UNL     1       5.811  10.080  25.603  1.00  0.00     0.190 HD
BRANCH  17  20
HETATM   20  C15 UNL     1       3.217   9.422  25.274  1.00  0.00     0.329 C 
HETATM   21  O4  UNL     1       2.902   9.735  26.446  1.00  0.00    -0.261 OA
HETATM   22  N5  UNL     1       2.397   9.885  24.218  1.00  0.00    -0.266 N 
ATOM     23  H5  UNL     1       2.642   9.634  23.260  1.00  0.00     0.190 HD
BRANCH  22  24
HETATM   24  N6  UNL     1       1.275  10.664  24.434  1.00  0.00    -0.333 N 
ATOM     25  H6  UNL     1       1.326  11.672  24.584  1.00  0.00     0.180 HD
BRANCH  24  26
HETATM   26  C16 UNL     1       0.029   9.943  24.431  1.00  0.00     0.143 C 
BRANCH  26  27
HETATM   27  C17 UNL     1      -0.606  10.131  25.792  1.00  0.00    -0.003 C 
HETATM   28  C18 UNL     1      -0.850   8.822  26.490  1.00  0.00     0.011 C 
HETATM   29  C19 UNL     1      -1.949  10.838  25.702  1.00  0.00     0.011 C 
ENDBRANCH  26  27
ENDBRANCH  24  26
ENDBRANCH  22  24
ENDBRANCH  17  20
ENDBRANCH  14  16
ENDBRANCH  12  14
ENDBRANCH   9  12
ENDBRANCH   8   9
BRANCH   1  30
HETATM   30  C5  UNL     1       6.626   7.357  19.716  1.00  0.00     0.241 C 
HETATM   31  N1  UNL     1       6.831   5.978  19.953  1.00  0.00    -0.349 N 
ATOM     32  H1  UNL     1       7.587   5.691  20.574  1.00  0.00     0.163 HD
HETATM   33  O1  UNL     1       5.671   7.678  18.934  1.00  0.00    -0.271 OA
BRANCH  31  34
HETATM   34  C4  UNL     1       5.996   4.953  19.337  1.00  0.00     0.142 C 
BRANCH  34  35
HETATM   35  C3  UNL     1       6.826   3.960  18.570  1.00  0.00     0.032 C 
BRANCH  35  36
HETATM   36  C2  UNL     1       8.186   3.851  19.260  1.00  0.00    -0.002 C 
HETATM   37  C1  UNL     1       8.852   2.557  18.864  1.00  0.00     0.005 C 
ENDBRANCH  35  36
ENDBRANCH  34  35
BRANCH  34  38
HETATM   38  C20 UNL     1       5.229   4.203  20.377  1.00  0.00     0.073 A 
HETATM   39  N7  UNL     1       5.390   4.239  21.686  1.00  0.00    -0.361 N 
HETATM   40  C21 UNL     1       4.629   3.516  22.457  1.00  0.00     0.096 A 
ATOM     41  H7  UNL     1       6.110   4.835  22.095  1.00  0.00     0.165 HD
HETATM   42  C22 UNL     1       3.679   2.736  21.841  1.00  0.00     0.068 A 
HETATM   43  S1  UNL     1       3.947   3.098  20.194  1.00  0.00    -0.085 SA
ENDBRANCH  34  38
ENDBRANCH  31  34
ENDBRANCH   1  30
TORSDOF 14
ENDMDL
MODEL 2
REMARK VINA RESULT: -7.731172558      3.159      8.342
REMARK  14 active torsions:
REMARK  status: ('A' for Active; 'I' for Inactive)
REMARK    1  A    between atoms: C2_2  and  C3_3 
REMARK    2  A    between atoms: C3_3  and  C4_4 
REMARK    3  A    between atoms: C4_4  and  N1_5 
REMARK    4  A    between atoms: C4_4  and  C20_38 
REMARK       I    between atoms: N1_5  and  C5_7 
REMARK    5  A    between atoms: C5_7  and  C6_9 
REMARK    6  A    between atoms: N2_16  and  C11_17 
REMARK    7  A    between atoms: C11_17  and  O2_18 
REMARK    8  A    between atoms: C11_17  and  C12_20 
REMARK    9  A    between atoms: C12_20  and  N3_22 
REMARK   10  A    between atoms: N3_22  and  N4_24 
REMARK       I    between atoms: N4_24  and  C14_26 
REMARK   11  A    between atoms: C14_26  and  C15_28 
REMARK       I    between atoms: C15_28  and  N5_30 
REMARK   12  A    between atoms: N5_30  and  N6_32 
REMARK   13  A    between atoms: N6_32  and  C16_34 
REMARK   14  A    between atoms: C16_34  and  C17_35 
ROOT
HETATM    1  C6  UNL     1       3.487   8.375  25.178  1.00  0.00     0.178 C 
HETATM    2  C7  UNL     1       3.084   9.790  25.448  1.00  0.00     0.041 C 
HETATM    3  C8  UNL     1       1.605   9.957  25.657  1.00  0.00     0.083 C 
HETATM    4  C9  UNL     1       0.881   9.634  24.366  1.00  0.00     0.259 C 
HETATM    5  F1  UNL     1      -0.264   8.986  24.713  1.00  0.00    -0.205 F 
HETATM    6  F2  UNL     1       0.618  10.777  23.657  1.00  0.00    -0.205 F 
HETATM    7  C10 UNL     1       1.789   8.768  23.478  1.00  0.00     0.204 C 
HETATM    8  N2  UNL     1       2.418   7.779  24.298  1.00  0.00    -0.341 N 
ENDROOT
BRANCH   8   9
HETATM    9  C11 UNL     1       2.130   6.439  24.372  1.00  0.00     0.163 C 
BRANCH   9  10
HETATM   10  O2  UNL     1       1.421   6.086  25.415  1.00  0.00    -0.345 OA
ATOM     11  H2  UNL     1       0.519   5.857  25.224  1.00  0.00     0.219 HD
ENDBRANCH   9  10
BRANCH   9  12
HETATM   12  C12 UNL     1       2.472   5.353  23.498  1.00  0.00     0.072 C 
HETATM   13  C13 UNL     1       1.571   4.608  22.603  1.00  0.00     0.074 C 
BRANCH  12  14
HETATM   14  N3  UNL     1       3.740   4.976  23.451  1.00  0.00    -0.298 N 
ATOM     15  H3  UNL     1       4.254   4.802  24.314  1.00  0.00     0.187 HD
BRANCH  14  16
HETATM   16  N4  UNL     1       4.362   4.819  22.234  1.00  0.00    -0.262 N 
HETATM   17  C14 UNL     1       5.062   3.642  21.845  1.00  0.00     0.329 C 
HETATM   18  O3  UNL     1       5.091   2.696  22.703  1.00  0.00    -0.261 OA
ATOM     19  H4  UNL     1       4.319   5.592  21.571  1.00  0.00     0.190 HD
BRANCH  17  20
HETATM   20  C15 UNL     1       5.707   3.516  20.555  1.00  0.00     0.329 C 
HETATM   21  O4  UNL     1       5.110   2.878  19.657  1.00  0.00    -0.261 OA
HETATM   22  N5  UNL     1       6.973   4.071  20.250  1.00  0.00    -0.266 N 
ATOM     23  H5  UNL     1       7.469   4.589  20.975  1.00  0.00     0.190 HD
BRANCH  22  24
HETATM   24  N6  UNL     1       7.562   3.937  19.006  1.00  0.00    -0.333 N 
ATOM     25  H6  UNL     1       7.172   4.361  18.164  1.00  0.00     0.180 HD
BRANCH  24  26
HETATM   26  C16 UNL     1       8.769   3.154  18.991  1.00  0.00     0.143 C 
BRANCH  26  27
HETATM   27  C17 UNL     1       8.373   1.714  18.746  1.00  0.00    -0.003 C 
HETATM   28  C18 UNL     1       9.567   0.810  18.626  1.00  0.00     0.011 C 
HETATM   29  C19 UNL     1       7.569   1.553  17.465  1.00  0.00     0.011 C 
ENDBRANCH  26  27
ENDBRANCH  24  26
ENDBRANCH  22  24
ENDBRANCH  17  20
ENDBRANCH  14  16
ENDBRANCH  12  14
ENDBRANCH   9  12
ENDBRANCH   8   9
BRANCH   1  30
HETATM   30  C5  UNL     1       4.775   8.317  24.481  1.00  0.00     0.241 C 
HETATM   31  N1  UNL     1       5.916   9.021  24.932  1.00  0.00    -0.349 N 
ATOM     32  H1  UNL     1       5.843   9.592  25.773  1.00  0.00     0.163 HD
HETATM   33  O1  UNL     1       4.904   7.613  23.426  1.00  0.00    -0.271 OA
BRANCH  31  34
HETATM   34  C4  UNL     1       7.194   8.955  24.231  1.00  0.00     0.142 C 
BRANCH  34  35
HETATM   35  C3  UNL     1       7.430  10.192  23.407  1.00  0.00     0.032 C 
BRANCH  35  36
HETATM   36  C2  UNL     1       7.276   9.813  21.935  1.00  0.00    -0.002 C 
HETATM   37  C1  UNL     1       8.520   9.102  21.463  1.00  0.00     0.005 C 
ENDBRANCH  35  36
ENDBRANCH  34  35
BRANCH  34  38
HETATM   38  C20 UNL     1       8.322   8.830  25.203  1.00  0.00     0.073 A 
HETATM   39  N7  UNL     1       8.315   8.236  26.381  1.00  0.00    -0.361 N 
HETATM   40  C21 UNL     1       9.395   8.217  27.109  1.00  0.00     0.096 A 
ATOM     41  H7  UNL     1       7.462   7.790  26.722  1.00  0.00     0.165 HD
HETATM   42  C22 UNL     1      10.507   8.836  26.589  1.00  0.00     0.068 A 
HETATM   43  S1  UNL     1       9.921   9.402  25.089  1.00  0.00    -0.085 SA
ENDBRANCH  34  38
ENDBRANCH  31  34
ENDBRANCH   1  30
TORSDOF 14
ENDMDL
MODEL 3
REMARK VINA RESULT: -7.686851998      3.329      7.752
REMARK  14 active torsions:
REMARK  status: ('A' for Active; 'I' for Inactive)
REMARK    1  A    between atoms: C2_2  and  C3_3 
REMARK    2  A    between atoms: C3_3  and  C4_4 
REMARK    3  A    between atoms: C4_4  and  N1_5 
REMARK    4  A    between atoms: C4_4  and  C20_38 
REMARK       I    between atoms: N1_5  and  C5_7 
REMARK    5  A    between atoms: C5_7  and  C6_9 
REMARK    6  A    between atoms: N2_16  and  C11_17 
REMARK    7  A    between atoms: C11_17  and  O2_18 
REMARK    8  A    between atoms: C11_17  and  C12_20 
REMARK    9  A    between atoms: C12_20  and  N3_22 
REMARK   10  A    between atoms: N3_22  and  N4_24 
REMARK       I    between atoms: N4_24  and  C14_26 
REMARK   11  A    between atoms: C14_26  and  C15_28 
REMARK       I    between atoms: C15_28  and  N5_30 
REMARK   12  A    between atoms: N5_30  and  N6_32 
REMARK   13  A    between atoms: N6_32  and  C16_34 
REMARK   14  A    between atoms: C16_34  and  C17_35 
ROOT
HETATM    1  C6  UNL     1       2.491   8.418  25.407  1.00  0.00     0.178 C 
HETATM    2  C7  UNL     1       2.480   9.911  25.493  1.00  0.00     0.041 C 
HETATM    3  C8  UNL     1       1.101  10.487  25.661  1.00  0.00     0.083 C 
HETATM    4  C9  UNL     1       0.291  10.208  24.412  1.00  0.00     0.259 C 
HETATM    5  F1  UNL     1      -0.977   9.932  24.824  1.00  0.00    -0.205 F 
HETATM    6  F2  UNL     1       0.322  11.282  23.561  1.00  0.00    -0.205 F 
HETATM    7  C10 UNL     1       0.920   9.029  23.651  1.00  0.00     0.204 C 
HETATM    8  N2  UNL     1       1.284   8.020  24.597  1.00  0.00    -0.341 N 
ENDROOT
BRANCH   8   9
HETATM    9  C11 UNL     1       0.655   6.823  24.836  1.00  0.00     0.163 C 
BRANCH   9  10
HETATM   10  O2  UNL     1       0.991   6.241  25.960  1.00  0.00    -0.345 OA
ATOM     11  H2  UNL     1       1.923   6.248  26.149  1.00  0.00     0.219 HD
ENDBRANCH   9  10
BRANCH   9  12
HETATM   12  C12 UNL     1      -0.312   6.097  24.063  1.00  0.00     0.072 C 
HETATM   13  C13 UNL     1      -1.535   6.625  23.437  1.00  0.00     0.074 C 
BRANCH  12  14
HETATM   14  N3  UNL     1      -0.090   4.809  23.851  1.00  0.00    -0.298 N 
ATOM     15  H3  UNL     1      -0.791   4.118  24.117  1.00  0.00     0.187 HD
BRANCH  14  16
HETATM   16  N4  UNL     1       1.090   4.406  23.270  1.00  0.00    -0.262 N 
HETATM   17  C14 UNL     1       2.105   3.678  23.954  1.00  0.00     0.329 C 
HETATM   18  O3  UNL     1       1.868   3.399  25.178  1.00  0.00    -0.261 OA
ATOM     19  H4  UNL     1       1.247   4.642  22.291  1.00  0.00     0.190 HD
BRANCH  17  20
HETATM   20  C15 UNL     1       3.335   3.273  23.308  1.00  0.00     0.329 C 
HETATM   21  O4  UNL     1       3.492   2.058  23.046  1.00  0.00    -0.261 OA
HETATM   22  N5  UNL     1       4.372   4.171  22.956  1.00  0.00    -0.266 N 
ATOM     23  H5  UNL     1       4.256   5.162  23.168  1.00  0.00     0.190 HD
BRANCH  22  24
HETATM   24  N6  UNL     1       5.536   3.755  22.336  1.00  0.00    -0.333 N 
ATOM     25  H6  UNL     1       6.216   3.148  22.793  1.00  0.00     0.180 HD
BRANCH  24  26
HETATM   26  C16 UNL     1       5.713   4.245  20.995  1.00  0.00     0.143 C 
BRANCH  26  27
HETATM   27  C17 UNL     1       7.050   3.736  20.499  1.00  0.00    -0.003 C 
HETATM   28  C18 UNL     1       7.612   4.595  19.401  1.00  0.00     0.011 C 
HETATM   29  C19 UNL     1       6.952   2.323  19.946  1.00  0.00     0.011 C 
ENDBRANCH  26  27
ENDBRANCH  24  26
ENDBRANCH  22  24
ENDBRANCH  17  20
ENDBRANCH  14  16
ENDBRANCH  12  14
ENDBRANCH   9  12
ENDBRANCH   8   9
BRANCH   1  30
HETATM   30  C5  UNL     1       3.703   7.936  24.740  1.00  0.00     0.241 C 
HETATM   31  N1  UNL     1       4.834   8.758  24.529  1.00  0.00    -0.349 N 
ATOM     32  H1  UNL     1       4.808   9.725  24.852  1.00  0.00     0.163 HD
HETATM   33  O1  UNL     1       3.772   6.733  24.322  1.00  0.00    -0.271 OA
BRANCH  31  34
HETATM   34  C4  UNL     1       6.036   8.268  23.863  1.00  0.00     0.142 C 
BRANCH  34  35
HETATM   35  C3  UNL     1       6.255   8.964  22.547  1.00  0.00     0.032 C 
BRANCH  35  36
HETATM   36  C2  UNL     1       6.462   7.892  21.477  1.00  0.00    -0.002 C 
HETATM   37  C1  UNL     1       7.763   8.143  20.757  1.00  0.00     0.005 C 
ENDBRANCH  35  36
ENDBRANCH  34  35
BRANCH  34  38
HETATM   38  C20 UNL     1       7.242   8.505  24.713  1.00  0.00     0.073 A 
HETATM   39  N7  UNL     1       7.454   8.100  25.951  1.00  0.00    -0.361 N 
HETATM   40  C21 UNL     1       8.571   8.395  26.552  1.00  0.00     0.096 A 
ATOM     41  H7  UNL     1       6.742   7.555  26.438  1.00  0.00     0.165 HD
HETATM   42  C22 UNL     1       9.486   9.133  25.838  1.00  0.00     0.068 A 
HETATM   43  S1  UNL     1       8.675   9.350  24.351  1.00  0.00    -0.085 SA
ENDBRANCH  34  38
ENDBRANCH  31  34
ENDBRANCH   1  30
TORSDOF 14
ENDMDL
MODEL 4
REMARK VINA RESULT: -7.619597871      0.888      1.240
REMARK  14 active torsions:
REMARK  status: ('A' for Active; 'I' for Inactive)
REMARK    1  A    between atoms: C2_2  and  C3_3 
REMARK    2  A    between atoms: C3_3  and  C4_4 
REMARK    3  A    between atoms: C4_4  and  N1_5 
REMARK    4  A    between atoms: C4_4  and  C20_38 
REMARK       I    between atoms: N1_5  and  C5_7 
REMARK    5  A    between atoms: C5_7  and  C6_9 
REMARK    6  A    between atoms: N2_16  and  C11_17 
REMARK    7  A    between atoms: C11_17  and  O2_18 
REMARK    8  A    between atoms: C11_17  and  C12_20 
REMARK    9  A    between atoms: C12_20  and  N3_22 
REMARK   10  A    between atoms: N3_22  and  N4_24 
REMARK       I    between atoms: N4_24  and  C14_26 
REMARK   11  A    between atoms: C14_26  and  C15_28 
REMARK       I    between atoms: C15_28  and  N5_30 
REMARK   12  A    between atoms: N5_30  and  N6_32 
REMARK   13  A    between atoms: N6_32  and  C16_34 
REMARK   14  A    between atoms: C16_34  and  C17_35 
ROOT
HETATM    1  C6  UNL     1       7.471   8.454  20.308  1.00  0.00     0.178 C 
HETATM    2  C7  UNL     1       7.447   9.703  19.486  1.00  0.00     0.041 C 
HETATM    3  C8  UNL     1       7.805  10.936  20.268  1.00  0.00     0.083 C 
HETATM    4  C9  UNL     1       6.738  11.191  21.312  1.00  0.00     0.259 C 
HETATM    5  F1  UNL     1       7.379  11.644  22.423  1.00  0.00    -0.205 F 
HETATM    6  F2  UNL     1       5.817  12.098  20.856  1.00  0.00    -0.205 F 
HETATM    7  C10 UNL     1       5.969   9.886  21.581  1.00  0.00     0.204 C 
HETATM    8  N2  UNL     1       6.911   8.813  21.660  1.00  0.00    -0.341 N 
ENDROOT
BRANCH   8   9
HETATM    9  C11 UNL     1       7.341   8.151  22.784  1.00  0.00     0.163 C 
BRANCH   9  10
HETATM   10  O2  UNL     1       7.304   6.845  22.700  1.00  0.00    -0.345 OA
ATOM     11  H2  UNL     1       6.431   6.472  22.682  1.00  0.00     0.219 HD
ENDBRANCH   9  10
BRANCH   9  12
HETATM   12  C12 UNL     1       7.828   8.647  24.040  1.00  0.00     0.072 C 
HETATM   13  C13 UNL     1       9.083   9.375  24.288  1.00  0.00     0.074 C 
BRANCH  12  14
HETATM   14  N3  UNL     1       7.068   8.467  25.109  1.00  0.00    -0.298 N 
ATOM     15  H3  UNL     1       7.381   8.801  26.021  1.00  0.00     0.187 HD
BRANCH  14  16
HETATM   16  N4  UNL     1       5.856   7.830  24.987  1.00  0.00    -0.262 N 
HETATM   17  C14 UNL     1       4.597   8.488  25.087  1.00  0.00     0.329 C 
HETATM   18  O3  UNL     1       4.638   9.746  25.302  1.00  0.00    -0.261 OA
ATOM     19  H4  UNL     1       5.858   6.825  24.814  1.00  0.00     0.190 HD
BRANCH  17  20
HETATM   20  C15 UNL     1       3.341   7.781  24.955  1.00  0.00     0.329 C 
HETATM   21  O4  UNL     1       3.316   6.752  24.241  1.00  0.00    -0.261 OA
HETATM   22  N5  UNL     1       2.141   8.184  25.587  1.00  0.00    -0.266 N 
ATOM     23  H5  UNL     1       2.149   9.022  26.169  1.00  0.00     0.190 HD
BRANCH  22  24
HETATM   24  N6  UNL     1       0.955   7.485  25.446  1.00  0.00    -0.333 N 
ATOM     25  H6  UNL     1       0.836   6.530  25.785  1.00  0.00     0.180 HD
BRANCH  24  26
HETATM   26  C16 UNL     1      -0.097   8.209  24.784  1.00  0.00     0.143 C 
BRANCH  26  27
HETATM   27  C17 UNL     1       0.131   9.682  25.047  1.00  0.00    -0.003 C 
HETATM   28  C18 UNL     1      -0.872  10.248  26.012  1.00  0.00     0.011 C 
HETATM   29  C19 UNL     1       0.035  10.511  23.776  1.00  0.00     0.011 C 
ENDBRANCH  26  27
ENDBRANCH  24  26
ENDBRANCH  22  24
ENDBRANCH  17  20
ENDBRANCH  14  16
ENDBRANCH  12  14
ENDBRANCH   9  12
ENDBRANCH   8   9
BRANCH   1  30
HETATM   30  C5  UNL     1       6.643   7.408  19.703  1.00  0.00     0.241 C 
HETATM   31  N1  UNL     1       6.845   6.032  19.963  1.00  0.00    -0.349 N 
ATOM     32  H1  UNL     1       7.595   5.754  20.595  1.00  0.00     0.163 HD
HETATM   33  O1  UNL     1       5.696   7.717  18.907  1.00  0.00    -0.271 OA
BRANCH  31  34
HETATM   34  C4  UNL     1       6.014   4.998  19.355  1.00  0.00     0.142 C 
BRANCH  34  35
HETATM   35  C3  UNL     1       6.845   4.023  18.566  1.00  0.00     0.032 C 
BRANCH  35  36
HETATM   36  C2  UNL     1       8.170   3.831  19.302  1.00  0.00    -0.002 C 
HETATM   37  C1  UNL     1       8.762   2.492  18.937  1.00  0.00     0.005 C 
ENDBRANCH  35  36
ENDBRANCH  34  35
BRANCH  34  38
HETATM   38  C20 UNL     1       5.279   4.229  20.405  1.00  0.00     0.073 A 
HETATM   39  N7  UNL     1       5.469   4.254  21.711  1.00  0.00    -0.361 N 
HETATM   40  C21 UNL     1       4.734   3.514  22.491  1.00  0.00     0.096 A 
ATOM     41  H7  UNL     1       6.193   4.853  22.109  1.00  0.00     0.165 HD
HETATM   42  C22 UNL     1       3.778   2.732  21.888  1.00  0.00     0.068 A 
HETATM   43  S1  UNL     1       4.004   3.114  20.239  1.00  0.00    -0.085 SA
ENDBRANCH  34  38
ENDBRANCH  31  34
ENDBRANCH   1  30
TORSDOF 14
ENDMDL
MODEL 5
REMARK VINA RESULT: -7.610137689      3.657      6.660
REMARK  14 active torsions:
REMARK  status: ('A' for Active; 'I' for Inactive)
REMARK    1  A    between atoms: C2_2  and  C3_3 
REMARK    2  A    between atoms: C3_3  and  C4_4 
REMARK    3  A    between atoms: C4_4  and  N1_5 
REMARK    4  A    between atoms: C4_4  and  C20_38 
REMARK       I    between atoms: N1_5  and  C5_7 
REMARK    5  A    between atoms: C5_7  and  C6_9 
REMARK    6  A    between atoms: N2_16  and  C11_17 
REMARK    7  A    between atoms: C11_17  and  O2_18 
REMARK    8  A    between atoms: C11_17  and  C12_20 
REMARK    9  A    between atoms: C12_20  and  N3_22 
REMARK   10  A    between atoms: N3_22  and  N4_24 
REMARK       I    between atoms: N4_24  and  C14_26 
REMARK   11  A    between atoms: C14_26  and  C15_28 
REMARK       I    between atoms: C15_28  and  N5_30 
REMARK   12  A    between atoms: N5_30  and  N6_32 
REMARK   13  A    between atoms: N6_32  and  C16_34 
REMARK   14  A    between atoms: C16_34  and  C17_35 
ROOT
HETATM    1  C6  UNL     1       5.331   5.225  19.472  1.00  0.00     0.178 C 
HETATM    2  C7  UNL     1       6.179   4.934  18.275  1.00  0.00     0.041 C 
HETATM    3  C8  UNL     1       6.653   3.510  18.214  1.00  0.00     0.083 C 
HETATM    4  C9  UNL     1       7.594   3.249  19.372  1.00  0.00     0.259 C 
HETATM    5  F1  UNL     1       7.341   1.983  19.802  1.00  0.00    -0.205 F 
HETATM    6  F2  UNL     1       8.899   3.397  18.982  1.00  0.00    -0.205 F 
HETATM    7  C10 UNL     1       7.345   4.293  20.473  1.00  0.00     0.204 C 
HETATM    8  N2  UNL     1       5.934   4.465  20.626  1.00  0.00    -0.341 N 
ENDROOT
BRANCH   8   9
HETATM    9  C11 UNL     1       5.134   4.002  21.642  1.00  0.00     0.163 C 
BRANCH   9  10
HETATM   10  O2  UNL     1       5.777   3.423  22.625  1.00  0.00    -0.345 OA
ATOM     11  H2  UNL     1       6.689   3.229  22.443  1.00  0.00     0.219 HD
ENDBRANCH   9  10
BRANCH   9  12
HETATM   12  C12 UNL     1       3.710   4.047  21.815  1.00  0.00     0.072 C 
HETATM   13  C13 UNL     1       2.727   3.036  21.392  1.00  0.00     0.074 C 
BRANCH  12  14
HETATM   14  N3  UNL     1       3.199   5.091  22.447  1.00  0.00    -0.298 N 
ATOM     15  H3  UNL     1       2.211   5.320  22.340  1.00  0.00     0.187 HD
BRANCH  14  16
HETATM   16  N4  UNL     1       4.004   5.866  23.250  1.00  0.00    -0.262 N 
HETATM   17  C14 UNL     1       3.592   7.094  23.841  1.00  0.00     0.329 C 
HETATM   18  O3  UNL     1       2.395   7.464  23.589  1.00  0.00    -0.261 OA
ATOM     19  H4  UNL     1       4.953   5.541  23.432  1.00  0.00     0.190 HD
BRANCH  17  20
HETATM   20  C15 UNL     1       4.470   7.883  24.678  1.00  0.00     0.329 C 
HETATM   21  O4  UNL     1       3.985   8.873  25.272  1.00  0.00    -0.261 OA
HETATM   22  N5  UNL     1       5.844   7.600  24.865  1.00  0.00    -0.266 N 
ATOM     23  H5  UNL     1       6.250   6.797  24.383  1.00  0.00     0.190 HD
BRANCH  22  24
HETATM   24  N6  UNL     1       6.658   8.370  25.675  1.00  0.00    -0.333 N 
ATOM     25  H6  UNL     1       6.622   8.324  26.694  1.00  0.00     0.180 HD
BRANCH  24  26
HETATM   26  C16 UNL     1       7.560   9.242  24.971  1.00  0.00     0.143 C 
BRANCH  26  27
HETATM   27  C17 UNL     1       8.969   8.806  25.310  1.00  0.00    -0.003 C 
HETATM   28  C18 UNL     1       9.099   8.372  26.743  1.00  0.00     0.011 C 
HETATM   29  C19 UNL     1       9.979   9.922  25.096  1.00  0.00     0.011 C 
ENDBRANCH  26  27
ENDBRANCH  24  26
ENDBRANCH  22  24
ENDBRANCH  17  20
ENDBRANCH  14  16
ENDBRANCH  12  14
ENDBRANCH   9  12
ENDBRANCH   8   9
BRANCH   1  30
HETATM   30  C5  UNL     1       5.329   6.656  19.784  1.00  0.00     0.241 C 
HETATM   31  N1  UNL     1       6.339   7.535  19.328  1.00  0.00    -0.349 N 
ATOM     32  H1  UNL     1       7.100   7.162  18.761  1.00  0.00     0.163 HD
HETATM   33  O1  UNL     1       4.394   7.160  20.490  1.00  0.00    -0.271 OA
BRANCH  31  34
HETATM   34  C4  UNL     1       6.327   8.960  19.644  1.00  0.00     0.142 C 
BRANCH  34  35
HETATM   35  C3  UNL     1       7.723   9.494  19.814  1.00  0.00     0.032 C 
BRANCH  35  36
HETATM   36  C2  UNL     1       7.957   9.731  21.306  1.00  0.00    -0.002 C 
HETATM   37  C1  UNL     1       7.161  10.930  21.757  1.00  0.00     0.005 C 
ENDBRANCH  35  36
ENDBRANCH  34  35
BRANCH  34  38
HETATM   38  C20 UNL     1       5.670   9.736  18.549  1.00  0.00     0.073 A 
HETATM   39  N7  UNL     1       5.720   9.507  17.250  1.00  0.00    -0.361 N 
HETATM   40  C21 UNL     1       5.082  10.289  16.425  1.00  0.00     0.096 A 
ATOM     41  H7  UNL     1       6.257   8.718  16.892  1.00  0.00     0.165 HD
HETATM   42  C22 UNL     1       4.378  11.333  16.975  1.00  0.00     0.068 A 
HETATM   43  S1  UNL     1       4.681  11.119  18.642  1.00  0.00    -0.085 SA
ENDBRANCH  34  38
ENDBRANCH  31  34
ENDBRANCH   1  30
TORSDOF 14
ENDMDL
