MODEL 1
REMARK VINA RESULT: -6.141038326      0.000      0.000
REMARK  12 active torsions:
REMARK  status: ('A' for Active; 'I' for Inactive)
REMARK    1  A    between atoms: C2_2  and  C3_3 
REMARK    2  A    between atoms: N1_6  and  C6_8 
REMARK    3  A    between atoms: C6_8  and  N2_10 
REMARK    4  A    between atoms: N2_10  and  C7_11 
REMARK    5  A    between atoms: N2_10  and  C12_17 
REMARK    6  A    between atoms: C7_11  and  C8_12 
REMARK    7  A    between atoms: C8_12  and  C9_13 
REMARK    8  A    between atoms: C9_13  and  N3_14 
REMARK    9  A    between atoms: C12_17  and  C13_18 
REMARK   10  A    between atoms: C13_18  and  C14_19 
REMARK   11  A    between atoms: C14_19  and  C15_20 
REMARK   12  A    between atoms: C23_29  and  O2_30 
ROOT
HETATM    1  C3  UNL     1     -28.878  29.275   3.467  1.00  0.00     0.014 C 
HETATM    2  C4  UNL     1     -27.966  29.794   4.238  1.00  0.00     0.006 A 
HETATM    3  C5  UNL     1     -27.757  29.337   5.656  1.00  0.00     0.097 A 
HETATM    4  N1  UNL     1     -28.305  28.486   6.342  1.00  0.00    -0.329 N 
ATOM      5  H1  UNL     1     -27.842  28.510   7.250  1.00  0.00     0.168 HD
HETATM    6  C19 UNL     1     -26.660  30.186   6.168  1.00  0.00     0.210 A 
HETATM    7  O1  UNL     1     -26.172  30.129   7.328  1.00  0.00    -0.285 OA
HETATM    8  C20 UNL     1     -26.230  31.097   5.131  1.00  0.00     0.028 A 
HETATM    9  C21 UNL     1     -25.238  32.063   5.164  1.00  0.00     0.019 A 
HETATM   10  C22 UNL     1     -25.005  32.817   4.037  1.00  0.00     0.038 A 
HETATM   11  C23 UNL     1     -25.730  32.636   2.883  1.00  0.00     0.069 A 
HETATM   12  C25 UNL     1     -26.726  31.648   2.888  1.00  0.00     0.050 A 
HETATM   13  C26 UNL     1     -27.004  30.862   3.988  1.00  0.00    -0.007 A 
ENDROOT
BRANCH   4  14
HETATM   14  C6  UNL     1     -29.253  27.527   6.424  1.00  0.00     0.178 C 
HETATM   15  S1  UNL     1     -29.943  27.462   7.995  1.00  0.00    -0.040 SA
BRANCH  14  16
HETATM   16  N2  UNL     1     -29.783  26.594   5.542  1.00  0.00    -0.338 N 
BRANCH  16  17
HETATM   17  C7  UNL     1     -31.256  26.662   5.290  1.00  0.00     0.132 C 
BRANCH  17  18
HETATM   18  C8  UNL     1     -31.697  28.008   4.841  1.00  0.00     0.050 C 
BRANCH  18  19
HETATM   19  C9  UNL     1     -32.908  28.371   5.719  1.00  0.00     0.273 C 
BRANCH  19  20
HETATM   20  N3  UNL     1     -32.705  29.615   6.393  1.00  0.00     0.080 N 
HETATM   21  C10 UNL     1     -31.646  30.344   5.766  1.00  0.00     0.309 C 
HETATM   22  C11 UNL     1     -33.948  30.354   6.404  1.00  0.00     0.309 C 
ENDBRANCH  19  20
ENDBRANCH  18  19
ENDBRANCH  17  18
ENDBRANCH  16  17
BRANCH  16  23
HETATM   23  C12 UNL     1     -29.137  25.594   4.796  1.00  0.00     0.066 C 
BRANCH  23  24
HETATM   24  C13 UNL     1     -28.315  25.828   3.608  1.00  0.00     0.045 C 
BRANCH  24  25
HETATM   25  C14 UNL     1     -26.880  26.180   3.895  1.00  0.00     0.013 C 
BRANCH  25  26
HETATM   26  C15 UNL     1     -26.047  26.433   2.677  1.00  0.00    -0.051 C 
HETATM   27  C16 UNL     1     -24.760  25.631   2.843  1.00  0.00     0.014 C 
HETATM   28  C17 UNL     1     -25.702  27.855   2.402  1.00  0.00     0.014 C 
HETATM   29  C18 UNL     1     -26.814  25.856   1.480  1.00  0.00     0.014 C 
ENDBRANCH  25  26
ENDBRANCH  24  25
ENDBRANCH  23  24
ENDBRANCH  16  23
ENDBRANCH  14  16
ENDBRANCH   4  14
BRANCH   1  30
HETATM   30  C2  UNL     1     -29.271  29.523   2.113  1.00  0.00    -0.009 C 
HETATM   31  C1  UNL     1     -30.403  30.169   1.811  1.00  0.00     0.011 C 
ENDBRANCH   1  30
BRANCH  11  32
HETATM   32  O2  UNL     1     -25.501  33.381   1.764  1.00  0.00    -0.356 OA
HETATM   33  C24 UNL     1     -24.300  33.492   1.065  1.00  0.00     0.210 C 
ENDBRANCH  11  32
TORSDOF 12
ENDMDL
MODEL 2
REMARK VINA RESULT: -5.909348952      2.742      6.042
REMARK  12 active torsions:
REMARK  status: ('A' for Active; 'I' for Inactive)
REMARK    1  A    between atoms: C2_2  and  C3_3 
REMARK    2  A    between atoms: N1_6  and  C6_8 
REMARK    3  A    between atoms: C6_8  and  N2_10 
REMARK    4  A    between atoms: N2_10  and  C7_11 
REMARK    5  A    between atoms: N2_10  and  C12_17 
REMARK    6  A    between atoms: C7_11  and  C8_12 
REMARK    7  A    between atoms: C8_12  and  C9_13 
REMARK    8  A    between atoms: C9_13  and  N3_14 
REMARK    9  A    between atoms: C12_17  and  C13_18 
REMARK   10  A    between atoms: C13_18  and  C14_19 
REMARK   11  A    between atoms: C14_19  and  C15_20 
REMARK   12  A    between atoms: C23_29  and  O2_30 
ROOT
HETATM    1  C3  UNL     1     -29.463  30.308   4.139  1.00  0.00     0.014 C 
HETATM    2  C4  UNL     1     -29.716  29.442   5.078  1.00  0.00     0.006 A 
HETATM    3  C5  UNL     1     -28.632  28.840   5.929  1.00  0.00     0.097 A 
HETATM    4  N1  UNL     1     -27.419  28.992   5.957  1.00  0.00    -0.329 N 
ATOM      5  H1  UNL     1     -27.071  28.384   6.698  1.00  0.00     0.168 HD
HETATM    6  C19 UNL     1     -29.338  27.909   6.836  1.00  0.00     0.210 A 
HETATM    7  O1  UNL     1     -28.792  27.195   7.719  1.00  0.00    -0.285 OA
HETATM    8  C20 UNL     1     -30.755  27.944   6.556  1.00  0.00     0.028 A 
HETATM    9  C21 UNL     1     -31.788  27.243   7.156  1.00  0.00     0.019 A 
HETATM   10  C22 UNL     1     -33.076  27.446   6.714  1.00  0.00     0.038 A 
HETATM   11  C23 UNL     1     -33.361  28.325   5.696  1.00  0.00     0.069 A 
HETATM   12  C25 UNL     1     -32.288  29.017   5.113  1.00  0.00     0.050 A 
HETATM   13  C26 UNL     1     -30.978  28.853   5.514  1.00  0.00    -0.007 A 
ENDROOT
BRANCH   4  14
HETATM   14  C6  UNL     1     -26.337  29.612   5.437  1.00  0.00     0.178 C 
HETATM   15  S1  UNL     1     -25.994  31.074   6.269  1.00  0.00    -0.040 SA
BRANCH  14  16
HETATM   16  N2  UNL     1     -25.459  29.342   4.395  1.00  0.00    -0.338 N 
BRANCH  16  17
HETATM   17  C7  UNL     1     -25.197  30.452   3.427  1.00  0.00     0.132 C 
BRANCH  17  18
HETATM   18  C8  UNL     1     -26.341  30.694   2.511  1.00  0.00     0.050 C 
BRANCH  18  19
HETATM   19  C9  UNL     1     -26.600  32.210   2.548  1.00  0.00     0.273 C 
BRANCH  19  20
HETATM   20  N3  UNL     1     -27.133  32.676   1.305  1.00  0.00     0.080 N 
HETATM   21  C10 UNL     1     -28.061  33.740   1.539  1.00  0.00     0.309 C 
HETATM   22  C11 UNL     1     -26.043  33.077   0.445  1.00  0.00     0.309 C 
ENDBRANCH  19  20
ENDBRANCH  18  19
ENDBRANCH  17  18
ENDBRANCH  16  17
BRANCH  16  23
HETATM   23  C12 UNL     1     -24.726  28.176   4.116  1.00  0.00     0.066 C 
BRANCH  23  24
HETATM   24  C13 UNL     1     -25.204  27.057   3.302  1.00  0.00     0.045 C 
BRANCH  24  25
HETATM   25  C14 UNL     1     -26.399  26.336   3.863  1.00  0.00     0.013 C 
BRANCH  25  26
HETATM   26  C15 UNL     1     -27.581  26.283   2.945  1.00  0.00    -0.051 C 
HETATM   27  C16 UNL     1     -27.264  25.248   1.871  1.00  0.00     0.014 C 
HETATM   28  C17 UNL     1     -27.960  27.564   2.290  1.00  0.00     0.014 C 
HETATM   29  C18 UNL     1     -28.767  25.763   3.769  1.00  0.00     0.014 C 
ENDBRANCH  25  26
ENDBRANCH  24  25
ENDBRANCH  23  24
ENDBRANCH  16  23
ENDBRANCH  14  16
ENDBRANCH   4  14
BRANCH   1  30
HETATM   30  C2  UNL     1     -30.292  31.015   3.211  1.00  0.00    -0.009 C 
HETATM   31  C1  UNL     1     -30.262  30.761   1.898  1.00  0.00     0.011 C 
ENDBRANCH   1  30
BRANCH  11  32
HETATM   32  O2  UNL     1     -34.635  28.530   5.257  1.00  0.00    -0.356 OA
HETATM   33  C24 UNL     1     -35.132  29.674   4.634  1.00  0.00     0.210 C 
ENDBRANCH  11  32
TORSDOF 12
ENDMDL
MODEL 3
REMARK VINA RESULT: -5.880883250      2.802      6.238
REMARK  12 active torsions:
REMARK  status: ('A' for Active; 'I' for Inactive)
REMARK    1  A    between atoms: C2_2  and  C3_3 
REMARK    2  A    between atoms: N1_6  and  C6_8 
REMARK    3  A    between atoms: C6_8  and  N2_10 
REMARK    4  A    between atoms: N2_10  and  C7_11 
REMARK    5  A    between atoms: N2_10  and  C12_17 
REMARK    6  A    between atoms: C7_11  and  C8_12 
REMARK    7  A    between atoms: C8_12  and  C9_13 
REMARK    8  A    between atoms: C9_13  and  N3_14 
REMARK    9  A    between atoms: C12_17  and  C13_18 
REMARK   10  A    between atoms: C13_18  and  C14_19 
REMARK   11  A    between atoms: C14_19  and  C15_20 
REMARK   12  A    between atoms: C23_29  and  O2_30 
ROOT
HETATM    1  C3  UNL     1     -29.108  30.621   4.235  1.00  0.00     0.014 C 
HETATM    2  C4  UNL     1     -29.434  29.738   5.136  1.00  0.00     0.006 A 
HETATM    3  C5  UNL     1     -28.418  29.108   6.048  1.00  0.00     0.097 A 
HETATM    4  N1  UNL     1     -27.208  29.247   6.164  1.00  0.00    -0.329 N 
ATOM      5  H1  UNL     1     -26.919  28.620   6.914  1.00  0.00     0.168 HD
HETATM    6  C19 UNL     1     -29.194  28.165   6.882  1.00  0.00     0.210 A 
HETATM    7  O1  UNL     1     -28.718  27.427   7.785  1.00  0.00    -0.285 OA
HETATM    8  C20 UNL     1     -30.587  28.220   6.504  1.00  0.00     0.028 A 
HETATM    9  C21 UNL     1     -31.666  27.517   7.015  1.00  0.00     0.019 A 
HETATM   10  C22 UNL     1     -32.918  27.743   6.488  1.00  0.00     0.038 A 
HETATM   11  C23 UNL     1     -33.123  28.646   5.472  1.00  0.00     0.069 A 
HETATM   12  C25 UNL     1     -32.006  29.338   4.981  1.00  0.00     0.050 A 
HETATM   13  C26 UNL     1     -30.728  29.153   5.469  1.00  0.00    -0.007 A 
ENDROOT
BRANCH   4  14
HETATM   14  C6  UNL     1     -26.088  29.866   5.734  1.00  0.00     0.178 C 
HETATM   15  S1  UNL     1     -25.416  30.864   6.959  1.00  0.00    -0.040 SA
BRANCH  14  16
HETATM   16  N2  UNL     1     -25.372  29.884   4.544  1.00  0.00    -0.338 N 
BRANCH  16  17
HETATM   17  C7  UNL     1     -25.371  31.166   3.774  1.00  0.00     0.132 C 
BRANCH  17  18
HETATM   18  C8  UNL     1     -25.815  30.989   2.367  1.00  0.00     0.050 C 
BRANCH  18  19
HETATM   19  C9  UNL     1     -26.122  32.401   1.839  1.00  0.00     0.273 C 
BRANCH  19  20
HETATM   20  N3  UNL     1     -25.451  32.648   0.600  1.00  0.00     0.080 N 
HETATM   21  C10 UNL     1     -26.312  33.372  -0.286  1.00  0.00     0.309 C 
HETATM   22  C11 UNL     1     -24.218  33.353   0.864  1.00  0.00     0.309 C 
ENDBRANCH  19  20
ENDBRANCH  18  19
ENDBRANCH  17  18
ENDBRANCH  16  17
BRANCH  16  23
HETATM   23  C12 UNL     1     -24.594  28.877   3.948  1.00  0.00     0.066 C 
BRANCH  23  24
HETATM   24  C13 UNL     1     -25.010  27.484   3.777  1.00  0.00     0.045 C 
BRANCH  24  25
HETATM   25  C14 UNL     1     -25.664  27.179   2.457  1.00  0.00     0.013 C 
BRANCH  25  26
HETATM   26  C15 UNL     1     -27.079  26.700   2.560  1.00  0.00    -0.051 C 
HETATM   27  C16 UNL     1     -27.968  27.820   2.031  1.00  0.00     0.014 C 
HETATM   28  C17 UNL     1     -27.542  26.311   3.921  1.00  0.00     0.014 C 
HETATM   29  C18 UNL     1     -27.217  25.499   1.615  1.00  0.00     0.014 C 
ENDBRANCH  25  26
ENDBRANCH  24  25
ENDBRANCH  23  24
ENDBRANCH  16  23
ENDBRANCH  14  16
ENDBRANCH   4  14
BRANCH   1  30
HETATM   30  C2  UNL     1     -29.864  31.356   3.267  1.00  0.00    -0.009 C 
HETATM   31  C1  UNL     1     -29.825  31.058   1.963  1.00  0.00     0.011 C 
ENDBRANCH   1  30
BRANCH  11  32
HETATM   32  O2  UNL     1     -34.361  28.873   4.949  1.00  0.00    -0.356 OA
HETATM   33  C24 UNL     1     -34.689  29.769   3.933  1.00  0.00     0.210 C 
ENDBRANCH  11  32
TORSDOF 12
ENDMDL
MODEL 4
REMARK VINA RESULT: -5.858542358      2.286      5.135
REMARK  12 active torsions:
REMARK  status: ('A' for Active; 'I' for Inactive)
REMARK    1  A    between atoms: C2_2  and  C3_3 
REMARK    2  A    between atoms: N1_6  and  C6_8 
REMARK    3  A    between atoms: C6_8  and  N2_10 
REMARK    4  A    between atoms: N2_10  and  C7_11 
REMARK    5  A    between atoms: N2_10  and  C12_17 
REMARK    6  A    between atoms: C7_11  and  C8_12 
REMARK    7  A    between atoms: C8_12  and  C9_13 
REMARK    8  A    between atoms: C9_13  and  N3_14 
REMARK    9  A    between atoms: C12_17  and  C13_18 
REMARK   10  A    between atoms: C13_18  and  C14_19 
REMARK   11  A    between atoms: C14_19  and  C15_20 
REMARK   12  A    between atoms: C23_29  and  O2_30 
ROOT
HETATM    1  C3  UNL     1     -26.052  30.879   2.725  1.00  0.00     0.014 C 
HETATM    2  C4  UNL     1     -26.008  30.879   4.027  1.00  0.00     0.006 A 
HETATM    3  C5  UNL     1     -26.862  29.964   4.860  1.00  0.00     0.097 A 
HETATM    4  N1  UNL     1     -27.687  29.109   4.573  1.00  0.00    -0.329 N 
ATOM      5  H1  UNL     1     -28.025  28.729   5.456  1.00  0.00     0.168 HD
HETATM    6  C19 UNL     1     -26.521  30.302   6.260  1.00  0.00     0.210 A 
HETATM    7  O1  UNL     1     -27.018  29.761   7.283  1.00  0.00    -0.285 OA
HETATM    8  C20 UNL     1     -25.526  31.350   6.274  1.00  0.00     0.028 A 
HETATM    9  C21 UNL     1     -24.919  31.971   7.353  1.00  0.00     0.019 A 
HETATM   10  C22 UNL     1     -23.986  32.956   7.117  1.00  0.00     0.038 A 
HETATM   11  C23 UNL     1     -23.644  33.336   5.841  1.00  0.00     0.069 A 
HETATM   12  C25 UNL     1     -24.281  32.684   4.774  1.00  0.00     0.050 A 
HETATM   13  C26 UNL     1     -25.223  31.691   4.951  1.00  0.00    -0.007 A 
ENDROOT
BRANCH   4  14
HETATM   14  C6  UNL     1     -28.348  28.448   3.598  1.00  0.00     0.178 C 
HETATM   15  S1  UNL     1     -29.486  29.465   2.812  1.00  0.00    -0.040 SA
BRANCH  14  16
HETATM   16  N2  UNL     1     -28.320  27.151   3.100  1.00  0.00    -0.338 N 
BRANCH  16  17
HETATM   17  C7  UNL     1     -27.693  26.956   1.756  1.00  0.00     0.132 C 
BRANCH  17  18
HETATM   18  C8  UNL     1     -26.772  25.790   1.719  1.00  0.00     0.050 C 
BRANCH  18  19
HETATM   19  C9  UNL     1     -25.349  26.374   1.720  1.00  0.00     0.273 C 
BRANCH  19  20
HETATM   20  N3  UNL     1     -24.666  26.075   2.940  1.00  0.00     0.080 N 
HETATM   21  C10 UNL     1     -24.579  27.250   3.752  1.00  0.00     0.309 C 
HETATM   22  C11 UNL     1     -25.351  24.994   3.610  1.00  0.00     0.309 C 
ENDBRANCH  19  20
ENDBRANCH  18  19
ENDBRANCH  17  18
ENDBRANCH  16  17
BRANCH  16  23
HETATM   23  C12 UNL     1     -28.762  25.953   3.687  1.00  0.00     0.066 C 
BRANCH  23  24
HETATM   24  C13 UNL     1     -29.244  25.818   5.062  1.00  0.00     0.045 C 
BRANCH  24  25
HETATM   25  C14 UNL     1     -30.673  26.243   5.273  1.00  0.00     0.013 C 
BRANCH  25  26
HETATM   26  C15 UNL     1     -30.926  26.947   6.570  1.00  0.00    -0.051 C 
HETATM   27  C16 UNL     1     -32.399  26.738   6.909  1.00  0.00     0.014 C 
HETATM   28  C17 UNL     1     -30.623  28.405   6.596  1.00  0.00     0.014 C 
HETATM   29  C18 UNL     1     -30.088  26.235   7.640  1.00  0.00     0.014 C 
ENDBRANCH  25  26
ENDBRANCH  24  25
ENDBRANCH  23  24
ENDBRANCH  16  23
ENDBRANCH  14  16
ENDBRANCH   4  14
BRANCH   1  30
HETATM   30  C2  UNL     1     -25.360  31.629   1.721  1.00  0.00    -0.009 C 
HETATM   31  C1  UNL     1     -25.828  32.795   1.261  1.00  0.00     0.011 C 
ENDBRANCH   1  30
BRANCH  11  32
HETATM   32  O2  UNL     1     -22.720  34.309   5.603  1.00  0.00    -0.356 OA
HETATM   33  C24 UNL     1     -21.533  34.179   4.883  1.00  0.00     0.210 C 
ENDBRANCH  11  32
TORSDOF 12
ENDMDL
MODEL 5
REMARK VINA RESULT: -5.797492451      2.966      4.542
REMARK  12 active torsions:
REMARK  status: ('A' for Active; 'I' for Inactive)
REMARK    1  A    between atoms: C2_2  and  C3_3 
REMARK    2  A    between atoms: N1_6  and  C6_8 
REMARK    3  A    between atoms: C6_8  and  N2_10 
REMARK    4  A    between atoms: N2_10  and  C7_11 
REMARK    5  A    between atoms: N2_10  and  C12_17 
REMARK    6  A    between atoms: C7_11  and  C8_12 
REMARK    7  A    between atoms: C8_12  and  C9_13 
REMARK    8  A    between atoms: C9_13  and  N3_14 
REMARK    9  A    between atoms: C12_17  and  C13_18 
REMARK   10  A    between atoms: C13_18  and  C14_19 
REMARK   11  A    between atoms: C14_19  and  C15_20 
REMARK   12  A    between atoms: C23_29  and  O2_30 
ROOT
HETATM    1  C3  UNL     1     -25.546  29.450   4.562  1.00  0.00     0.014 C 
HETATM    2  C4  UNL     1     -25.336  30.053   5.697  1.00  0.00     0.006 A 
HETATM    3  C5  UNL     1     -26.394  30.877   6.378  1.00  0.00     0.097 A 
HETATM    4  N1  UNL     1     -27.551  31.145   6.087  1.00  0.00    -0.329 N 
ATOM      5  H1  UNL     1     -27.905  31.737   6.838  1.00  0.00     0.168 HD
HETATM    6  C19 UNL     1     -25.743  31.390   7.603  1.00  0.00     0.210 A 
HETATM    7  O1  UNL     1     -26.287  32.132   8.464  1.00  0.00    -0.285 OA
HETATM    8  C20 UNL     1     -24.381  30.910   7.663  1.00  0.00     0.028 A 
HETATM    9  C21 UNL     1     -23.410  31.136   8.624  1.00  0.00     0.019 A 
HETATM   10  C22 UNL     1     -22.169  30.563   8.465  1.00  0.00     0.038 A 
HETATM   11  C23 UNL     1     -21.870  29.774   7.378  1.00  0.00     0.069 A 
HETATM   12  C25 UNL     1     -22.880  29.569   6.426  1.00  0.00     0.050 A 
HETATM   13  C26 UNL     1     -24.142  30.117   6.533  1.00  0.00    -0.007 A 
ENDROOT
BRANCH   4  14
HETATM   14  C6  UNL     1     -28.566  31.002   5.207  1.00  0.00     0.178 C 
HETATM   15  S1  UNL     1     -28.407  32.086   3.886  1.00  0.00    -0.040 SA
BRANCH  14  16
HETATM   16  N2  UNL     1     -29.693  30.192   5.134  1.00  0.00    -0.338 N 
BRANCH  16  17
HETATM   17  C7  UNL     1     -30.700  30.335   6.231  1.00  0.00     0.132 C 
BRANCH  17  18
HETATM   18  C8  UNL     1     -31.349  29.044   6.582  1.00  0.00     0.050 C 
BRANCH  18  19
HETATM   19  C9  UNL     1     -30.475  28.417   7.682  1.00  0.00     0.273 C 
BRANCH  19  20
HETATM   20  N3  UNL     1     -30.808  27.041   7.887  1.00  0.00     0.080 N 
HETATM   21  C10 UNL     1     -31.708  26.599   6.866  1.00  0.00     0.309 C 
HETATM   22  C11 UNL     1     -29.592  26.262   7.922  1.00  0.00     0.309 C 
ENDBRANCH  19  20
ENDBRANCH  18  19
ENDBRANCH  17  18
ENDBRANCH  16  17
BRANCH  16  23
HETATM   23  C12 UNL     1     -30.071  29.264   4.149  1.00  0.00     0.066 C 
BRANCH  23  24
HETATM   24  C13 UNL     1     -29.183  28.268   3.548  1.00  0.00     0.045 C 
BRANCH  24  25
HETATM   25  C14 UNL     1     -28.459  27.392   4.535  1.00  0.00     0.013 C 
BRANCH  25  26
HETATM   26  C15 UNL     1     -28.299  25.968   4.102  1.00  0.00    -0.051 C 
HETATM   27  C16 UNL     1     -27.363  25.300   5.104  1.00  0.00     0.014 C 
HETATM   28  C17 UNL     1     -27.769  25.756   2.726  1.00  0.00     0.014 C 
HETATM   29  C18 UNL     1     -29.676  25.303   4.223  1.00  0.00     0.014 C 
ENDBRANCH  25  26
ENDBRANCH  24  25
ENDBRANCH  23  24
ENDBRANCH  16  23
ENDBRANCH  14  16
ENDBRANCH   4  14
BRANCH   1  30
HETATM   30  C2  UNL     1     -24.729  28.625   3.726  1.00  0.00    -0.009 C 
HETATM   31  C1  UNL     1     -24.570  27.317   3.961  1.00  0.00     0.011 C 
ENDBRANCH   1  30
BRANCH  11  32
HETATM   32  O2  UNL     1     -20.643  29.204   7.218  1.00  0.00    -0.356 OA
HETATM   33  C24 UNL     1     -19.768  28.803   8.227  1.00  0.00     0.210 C 
ENDBRANCH  11  32
TORSDOF 12
ENDMDL
