MODEL 1
REMARK VINA RESULT: -8.232100234      0.000      0.000
REMARK  7 active torsions:
REMARK  status: ('A' for Active; 'I' for Inactive)
REMARK    1  A    between atoms: C2_2  and  C3_3 
REMARK    2  A    between atoms: C4_4  and  C5_5 
REMARK    3  A    between atoms: C6_6  and  C7_7 
REMARK    4  A    between atoms: C7_7  and  C8_8 
REMARK    5  A    between atoms: C8_8  and  C9_9 
REMARK    6  A    between atoms: C9_9  and  C10_10 
REMARK    7  A    between atoms: C10_10  and  N1_11 
ROOT
HETATM    1  N1  UNL     1     -29.682  26.473   5.494  1.00  0.00    -0.314 N 
HETATM    2  C11 UNL     1     -29.000  25.954   6.640  1.00  0.00     0.248 C 
HETATM    3  O1  UNL     1     -28.035  25.158   6.515  1.00  0.00    -0.271 OA
HETATM    4  C12 UNL     1     -29.389  26.325   8.021  1.00  0.00     0.279 C 
HETATM    5  O2  UNL     1     -29.856  27.660   8.033  1.00  0.00    -0.340 OA
HETATM    6  C13 UNL     1     -30.546  28.221   6.971  1.00  0.00     0.097 A 
HETATM    7  C14 UNL     1     -31.328  29.360   7.123  1.00  0.00     0.056 A 
HETATM    8  C15 UNL     1     -31.991  29.877   6.043  1.00  0.00     0.041 A 
HETATM    9  C16 UNL     1     -31.925  29.314   4.779  1.00  0.00    -0.040 A 
HETATM   10  C17 UNL     1     -31.140  28.171   4.632  1.00  0.00     0.040 A 
HETATM   11  C18 UNL     1     -30.464  27.635   5.707  1.00  0.00     0.071 A 
HETATM   12  C19 UNL     1     -32.501  29.637   3.478  1.00  0.00     0.040 C 
HETATM   13  C20 UNL     1     -33.974  29.618   3.362  1.00  0.00     0.007 C 
HETATM   14  C21 UNL     1     -34.766  30.485   4.259  1.00  0.00     0.037 C 
HETATM   15  C22 UNL     1     -34.245  31.843   4.544  1.00  0.00     0.154 C 
HETATM   16  S1  UNL     1     -35.446  33.175   4.477  1.00  0.00    -0.138 SA
HETATM   17  C23 UNL     1     -34.847  34.035   5.996  1.00  0.00     0.120 C 
HETATM   18  C24 UNL     1     -34.358  32.851   6.749  1.00  0.00     0.079 C 
HETATM   19  N2  UNL     1     -33.750  31.889   5.917  1.00  0.00    -0.313 N 
HETATM   20  C25 UNL     1     -32.733  31.076   6.515  1.00  0.00     0.259 C 
HETATM   21  O3  UNL     1     -32.380  31.422   7.668  1.00  0.00    -0.267 OA
ENDROOT
BRANCH   1  22
HETATM   22  C10 UNL     1     -29.555  25.822   4.214  1.00  0.00     0.132 C 
BRANCH  22  23
HETATM   23  C9  UNL     1     -28.421  26.444   3.455  1.00  0.00     0.021 C 
BRANCH  23  24
HETATM   24  C8  UNL     1     -27.687  25.523   2.549  1.00  0.00     0.005 C 
BRANCH  24  25
HETATM   25  C7  UNL     1     -26.942  26.198   1.429  1.00  0.00     0.027 C 
BRANCH  25  26
HETATM   26  C6  UNL     1     -25.494  26.175   1.526  1.00  0.00    -0.027 C 
HETATM   27  C5  UNL     1     -24.684  25.940   2.690  1.00  0.00    -0.004 C 
BRANCH  27  28
HETATM   28  C4  UNL     1     -24.550  26.686   3.915  1.00  0.00    -0.004 C 
HETATM   29  C3  UNL     1     -25.152  27.961   4.211  1.00  0.00    -0.027 C 
BRANCH  29  30
HETATM   30  C2  UNL     1     -24.849  29.197   3.494  1.00  0.00     0.022 C 
HETATM   31  C1  UNL     1     -26.075  29.782   2.815  1.00  0.00     0.009 C 
ENDBRANCH  29  30
ENDBRANCH  27  28
ENDBRANCH  25  26
ENDBRANCH  24  25
ENDBRANCH  23  24
ENDBRANCH  22  23
ENDBRANCH   1  22
TORSDOF 7
ENDMDL
MODEL 2
REMARK VINA RESULT: -8.022210137      3.526      5.920
REMARK  7 active torsions:
REMARK  status: ('A' for Active; 'I' for Inactive)
REMARK    1  A    between atoms: C2_2  and  C3_3 
REMARK    2  A    between atoms: C4_4  and  C5_5 
REMARK    3  A    between atoms: C6_6  and  C7_7 
REMARK    4  A    between atoms: C7_7  and  C8_8 
REMARK    5  A    between atoms: C8_8  and  C9_9 
REMARK    6  A    between atoms: C9_9  and  C10_10 
REMARK    7  A    between atoms: C10_10  and  N1_11 
ROOT
HETATM    1  N1  UNL     1     -30.275  28.331   5.749  1.00  0.00    -0.314 N 
HETATM    2  C11 UNL     1     -31.705  28.269   5.707  1.00  0.00     0.248 C 
HETATM    3  O1  UNL     1     -32.360  27.768   6.656  1.00  0.00    -0.271 OA
HETATM    4  C12 UNL     1     -32.480  28.786   4.556  1.00  0.00     0.279 C 
HETATM    5  O2  UNL     1     -31.816  29.910   4.010  1.00  0.00    -0.340 OA
HETATM    6  C13 UNL     1     -30.436  30.026   3.993  1.00  0.00     0.097 A 
HETATM    7  C14 UNL     1     -29.784  30.906   3.136  1.00  0.00     0.056 A 
HETATM    8  C15 UNL     1     -28.418  30.985   3.155  1.00  0.00     0.041 A 
HETATM    9  C16 UNL     1     -27.632  30.220   4.002  1.00  0.00    -0.040 A 
HETATM   10  C17 UNL     1     -28.290  29.340   4.859  1.00  0.00     0.040 A 
HETATM   11  C18 UNL     1     -29.665  29.245   4.855  1.00  0.00     0.071 A 
HETATM   12  C19 UNL     1     -26.197  30.098   4.242  1.00  0.00     0.040 C 
HETATM   13  C20 UNL     1     -25.355  29.642   3.117  1.00  0.00     0.007 C 
HETATM   14  C21 UNL     1     -25.378  30.414   1.858  1.00  0.00     0.037 C 
HETATM   15  C22 UNL     1     -25.430  31.892   1.954  1.00  0.00     0.154 C 
HETATM   16  S1  UNL     1     -24.327  32.790   0.860  1.00  0.00    -0.138 SA
HETATM   17  C23 UNL     1     -25.561  34.072   0.371  1.00  0.00     0.120 C 
HETATM   18  C24 UNL     1     -26.794  33.251   0.477  1.00  0.00     0.079 C 
HETATM   19  N2  UNL     1     -26.759  32.352   1.562  1.00  0.00    -0.313 N 
HETATM   20  C25 UNL     1     -28.021  31.996   2.141  1.00  0.00     0.259 C 
HETATM   21  O3  UNL     1     -29.005  32.654   1.724  1.00  0.00    -0.267 OA
ENDROOT
BRANCH   1  22
HETATM   22  C10 UNL     1     -29.537  27.498   6.664  1.00  0.00     0.132 C 
BRANCH  22  23
HETATM   23  C9  UNL     1     -29.583  26.077   6.184  1.00  0.00     0.021 C 
BRANCH  23  24
HETATM   24  C8  UNL     1     -28.265  25.396   6.099  1.00  0.00     0.005 C 
BRANCH  24  25
HETATM   25  C7  UNL     1     -27.523  25.616   4.808  1.00  0.00     0.027 C 
BRANCH  25  26
HETATM   26  C6  UNL     1     -26.080  25.480   4.875  1.00  0.00    -0.027 C 
HETATM   27  C5  UNL     1     -25.093  26.029   3.986  1.00  0.00    -0.004 C 
BRANCH  27  28
HETATM   28  C4  UNL     1     -24.846  25.795   2.586  1.00  0.00    -0.004 C 
HETATM   29  C3  UNL     1     -25.567  26.375   1.481  1.00  0.00    -0.027 C 
BRANCH  29  30
HETATM   30  C2  UNL     1     -26.983  26.138   1.212  1.00  0.00     0.022 C 
HETATM   31  C1  UNL     1     -27.856  27.294   1.667  1.00  0.00     0.009 C 
ENDBRANCH  29  30
ENDBRANCH  27  28
ENDBRANCH  25  26
ENDBRANCH  24  25
ENDBRANCH  23  24
ENDBRANCH  22  23
ENDBRANCH   1  22
TORSDOF 7
ENDMDL
MODEL 3
REMARK VINA RESULT: -7.999865367      2.760      2.991
REMARK  7 active torsions:
REMARK  status: ('A' for Active; 'I' for Inactive)
REMARK    1  A    between atoms: C2_2  and  C3_3 
REMARK    2  A    between atoms: C4_4  and  C5_5 
REMARK    3  A    between atoms: C6_6  and  C7_7 
REMARK    4  A    between atoms: C7_7  and  C8_8 
REMARK    5  A    between atoms: C8_8  and  C9_9 
REMARK    6  A    between atoms: C9_9  and  C10_10 
REMARK    7  A    between atoms: C10_10  and  N1_11 
ROOT
HETATM    1  N1  UNL     1     -29.294  26.877   5.374  1.00  0.00    -0.314 N 
HETATM    2  C11 UNL     1     -29.207  26.660   6.786  1.00  0.00     0.248 C 
HETATM    3  O1  UNL     1     -28.732  25.591   7.249  1.00  0.00    -0.271 OA
HETATM    4  C12 UNL     1     -29.666  27.670   7.767  1.00  0.00     0.279 C 
HETATM    5  O2  UNL     1     -29.436  28.966   7.246  1.00  0.00    -0.340 OA
HETATM    6  C13 UNL     1     -29.528  29.256   5.895  1.00  0.00     0.097 A 
HETATM    7  C14 UNL     1     -29.689  30.557   5.433  1.00  0.00     0.056 A 
HETATM    8  C15 UNL     1     -29.775  30.793   4.088  1.00  0.00     0.041 A 
HETATM    9  C16 UNL     1     -29.707  29.784   3.140  1.00  0.00    -0.040 A 
HETATM   10  C17 UNL     1     -29.546  28.481   3.609  1.00  0.00     0.040 A 
HETATM   11  C18 UNL     1     -29.457  28.222   4.960  1.00  0.00     0.071 A 
HETATM   12  C19 UNL     1     -29.762  29.737   1.682  1.00  0.00     0.040 C 
HETATM   13  C20 UNL     1     -31.002  30.206   1.033  1.00  0.00     0.007 C 
HETATM   14  C21 UNL     1     -31.464  31.584   1.300  1.00  0.00     0.037 C 
HETATM   15  C22 UNL     1     -30.440  32.652   1.386  1.00  0.00     0.154 C 
HETATM   16  S1  UNL     1     -30.820  34.177   0.522  1.00  0.00    -0.138 SA
HETATM   17  C23 UNL     1     -30.235  35.298   1.865  1.00  0.00     0.120 C 
HETATM   18  C24 UNL     1     -30.543  34.432   3.033  1.00  0.00     0.079 C 
HETATM   19  N2  UNL     1     -30.297  33.067   2.779  1.00  0.00    -0.313 N 
HETATM   20  C25 UNL     1     -29.944  32.259   3.908  1.00  0.00     0.259 C 
HETATM   21  O3  UNL     1     -29.732  32.890   4.972  1.00  0.00    -0.267 OA
ENDROOT
BRANCH   1  22
HETATM   22  C10 UNL     1     -29.213  25.766   4.459  1.00  0.00     0.132 C 
BRANCH  22  23
HETATM   23  C9  UNL     1     -27.803  25.638   3.963  1.00  0.00     0.021 C 
BRANCH  23  24
HETATM   24  C8  UNL     1     -27.670  25.241   2.537  1.00  0.00     0.005 C 
BRANCH  24  25
HETATM   25  C7  UNL     1     -27.064  26.290   1.643  1.00  0.00     0.027 C 
BRANCH  25  26
HETATM   26  C6  UNL     1     -25.618  26.271   1.533  1.00  0.00    -0.027 C 
HETATM   27  C5  UNL     1     -24.651  25.998   2.561  1.00  0.00    -0.004 C 
BRANCH  27  28
HETATM   28  C4  UNL     1     -24.345  26.698   3.782  1.00  0.00    -0.004 C 
HETATM   29  C3  UNL     1     -24.926  27.940   4.225  1.00  0.00    -0.027 C 
BRANCH  29  30
HETATM   30  C2  UNL     1     -24.773  29.212   3.525  1.00  0.00     0.022 C 
HETATM   31  C1  UNL     1     -26.074  29.684   2.900  1.00  0.00     0.009 C 
ENDBRANCH  29  30
ENDBRANCH  27  28
ENDBRANCH  25  26
ENDBRANCH  24  25
ENDBRANCH  23  24
ENDBRANCH  22  23
ENDBRANCH   1  22
TORSDOF 7
ENDMDL
MODEL 4
REMARK VINA RESULT: -7.973517450      4.117      5.142
REMARK  7 active torsions:
REMARK  status: ('A' for Active; 'I' for Inactive)
REMARK    1  A    between atoms: C2_2  and  C3_3 
REMARK    2  A    between atoms: C4_4  and  C5_5 
REMARK    3  A    between atoms: C6_6  and  C7_7 
REMARK    4  A    between atoms: C7_7  and  C8_8 
REMARK    5  A    between atoms: C8_8  and  C9_9 
REMARK    6  A    between atoms: C9_9  and  C10_10 
REMARK    7  A    between atoms: C10_10  and  N1_11 
ROOT
HETATM    1  N1  UNL     1     -28.888  27.484   5.066  1.00  0.00    -0.314 N 
HETATM    2  C11 UNL     1     -29.297  26.961   6.334  1.00  0.00     0.248 C 
HETATM    3  O1  UNL     1     -29.569  25.742   6.476  1.00  0.00    -0.271 OA
HETATM    4  C12 UNL     1     -29.420  27.820   7.536  1.00  0.00     0.279 C 
HETATM    5  O2  UNL     1     -28.439  28.838   7.486  1.00  0.00    -0.340 OA
HETATM    6  C13 UNL     1     -28.014  29.409   6.297  1.00  0.00     0.097 A 
HETATM    7  C14 UNL     1     -27.367  30.639   6.264  1.00  0.00     0.056 A 
HETATM    8  C15 UNL     1     -26.965  31.162   5.064  1.00  0.00     0.041 A 
HETATM    9  C16 UNL     1     -27.172  30.517   3.855  1.00  0.00    -0.040 A 
HETATM   10  C17 UNL     1     -27.822  29.284   3.895  1.00  0.00     0.040 A 
HETATM   11  C18 UNL     1     -28.234  28.740   5.092  1.00  0.00     0.071 A 
HETATM   12  C19 UNL     1     -26.859  30.819   2.462  1.00  0.00     0.040 C 
HETATM   13  C20 UNL     1     -27.471  32.028   1.874  1.00  0.00     0.007 C 
HETATM   14  C21 UNL     1     -27.223  33.333   2.521  1.00  0.00     0.037 C 
HETATM   15  C22 UNL     1     -25.864  33.595   3.050  1.00  0.00     0.154 C 
HETATM   16  S1  UNL     1     -25.178  35.213   2.688  1.00  0.00    -0.138 SA
HETATM   17  C23 UNL     1     -24.482  35.497   4.373  1.00  0.00     0.120 C 
HETATM   18  C24 UNL     1     -25.479  34.729   5.162  1.00  0.00     0.079 C 
HETATM   19  N2  UNL     1     -25.901  33.552   4.509  1.00  0.00    -0.313 N 
HETATM   20  C25 UNL     1     -26.316  32.468   5.349  1.00  0.00     0.259 C 
HETATM   21  O3  UNL     1     -26.100  32.628   6.575  1.00  0.00    -0.267 OA
ENDROOT
BRANCH   1  22
HETATM   22  C10 UNL     1     -29.144  26.743   3.856  1.00  0.00     0.132 C 
BRANCH  22  23
HETATM   23  C9  UNL     1     -28.121  25.655   3.719  1.00  0.00     0.021 C 
BRANCH  23  24
HETATM   24  C8  UNL     1     -27.715  25.344   2.323  1.00  0.00     0.005 C 
BRANCH  24  25
HETATM   25  C7  UNL     1     -27.191  26.519   1.541  1.00  0.00     0.027 C 
BRANCH  25  26
HETATM   26  C6  UNL     1     -25.748  26.614   1.429  1.00  0.00    -0.027 C 
HETATM   27  C5  UNL     1     -24.749  25.982   2.246  1.00  0.00    -0.004 C 
BRANCH  27  28
HETATM   28  C4  UNL     1     -24.444  26.124   3.647  1.00  0.00    -0.004 C 
HETATM   29  C3  UNL     1     -24.782  27.245   4.487  1.00  0.00    -0.027 C 
BRANCH  29  30
HETATM   30  C2  UNL     1     -24.265  28.597   4.296  1.00  0.00     0.022 C 
HETATM   31  C1  UNL     1     -23.830  29.236   5.604  1.00  0.00     0.009 C 
ENDBRANCH  29  30
ENDBRANCH  27  28
ENDBRANCH  25  26
ENDBRANCH  24  25
ENDBRANCH  23  24
ENDBRANCH  22  23
ENDBRANCH   1  22
TORSDOF 7
ENDMDL
MODEL 5
REMARK VINA RESULT: -7.933374465      2.627      4.171
REMARK  7 active torsions:
REMARK  status: ('A' for Active; 'I' for Inactive)
REMARK    1  A    between atoms: C2_2  and  C3_3 
REMARK    2  A    between atoms: C4_4  and  C5_5 
REMARK    3  A    between atoms: C6_6  and  C7_7 
REMARK    4  A    between atoms: C7_7  and  C8_8 
REMARK    5  A    between atoms: C8_8  and  C9_9 
REMARK    6  A    between atoms: C9_9  and  C10_10 
REMARK    7  A    between atoms: C10_10  and  N1_11 
ROOT
HETATM    1  N1  UNL     1     -25.149  29.139   4.707  1.00  0.00    -0.314 N 
HETATM    2  C11 UNL     1     -24.132  29.522   5.639  1.00  0.00     0.248 C 
HETATM    3  O1  UNL     1     -22.916  29.492   5.319  1.00  0.00    -0.271 OA
HETATM    4  C12 UNL     1     -24.453  29.969   7.014  1.00  0.00     0.279 C 
HETATM    5  O2  UNL     1     -25.685  30.665   7.004  1.00  0.00    -0.340 OA
HETATM    6  C13 UNL     1     -26.724  30.334   6.149  1.00  0.00     0.097 A 
HETATM    7  C14 UNL     1     -28.032  30.735   6.394  1.00  0.00     0.056 A 
HETATM    8  C15 UNL     1     -29.024  30.383   5.519  1.00  0.00     0.041 A 
HETATM    9  C16 UNL     1     -28.791  29.632   4.378  1.00  0.00    -0.040 A 
HETATM   10  C17 UNL     1     -27.477  29.232   4.138  1.00  0.00     0.040 A 
HETATM   11  C18 UNL     1     -26.463  29.576   5.006  1.00  0.00     0.071 A 
HETATM   12  C19 UNL     1     -29.623  29.124   3.292  1.00  0.00     0.040 C 
HETATM   13  C20 UNL     1     -30.698  28.175   3.646  1.00  0.00     0.007 C 
HETATM   14  C21 UNL     1     -31.718  28.594   4.628  1.00  0.00     0.037 C 
HETATM   15  C22 UNL     1     -32.207  29.992   4.564  1.00  0.00     0.154 C 
HETATM   16  S1  UNL     1     -33.982  30.212   4.709  1.00  0.00    -0.138 SA
HETATM   17  C23 UNL     1     -33.892  31.664   5.845  1.00  0.00     0.120 C 
HETATM   18  C24 UNL     1     -32.630  31.323   6.550  1.00  0.00     0.079 C 
HETATM   19  N2  UNL     1     -31.670  30.741   5.697  1.00  0.00    -0.313 N 
HETATM   20  C25 UNL     1     -30.295  30.947   6.044  1.00  0.00     0.259 C 
HETATM   21  O3  UNL     1     -30.096  31.763   6.977  1.00  0.00    -0.267 OA
ENDROOT
BRANCH   1  22
HETATM   22  C10 UNL     1     -24.815  28.357   3.544  1.00  0.00     0.132 C 
BRANCH  22  23
HETATM   23  C9  UNL     1     -24.648  26.921   3.947  1.00  0.00     0.021 C 
BRANCH  23  24
HETATM   24  C8  UNL     1     -24.931  25.929   2.877  1.00  0.00     0.005 C 
BRANCH  24  25
HETATM   25  C7  UNL     1     -26.172  26.206   2.072  1.00  0.00     0.027 C 
BRANCH  25  26
HETATM   26  C6  UNL     1     -27.366  25.490   2.479  1.00  0.00    -0.027 C 
HETATM   27  C5  UNL     1     -28.137  25.657   3.681  1.00  0.00    -0.004 C 
BRANCH  27  28
HETATM   28  C4  UNL     1     -27.790  25.452   5.064  1.00  0.00    -0.004 C 
HETATM   29  C3  UNL     1     -28.691  25.495   6.188  1.00  0.00    -0.027 C 
BRANCH  29  30
HETATM   30  C2  UNL     1     -29.421  26.688   6.608  1.00  0.00     0.022 C 
HETATM   31  C1  UNL     1     -29.388  26.880   8.114  1.00  0.00     0.009 C 
ENDBRANCH  29  30
ENDBRANCH  27  28
ENDBRANCH  25  26
ENDBRANCH  24  25
ENDBRANCH  23  24
ENDBRANCH  22  23
ENDBRANCH   1  22
TORSDOF 7
ENDMDL
