MODEL 1
REMARK VINA RESULT: -7.583673034      0.000      0.000
REMARK  9 active torsions:
REMARK  status: ('A' for Active; 'I' for Inactive)
REMARK    1  A    between atoms: N1_6  and  C6_7 
REMARK    2  A    between atoms: C6_7  and  C7_8 
REMARK    3  A    between atoms: C7_8  and  C8_9 
REMARK    4  A    between atoms: C8_9  and  C9_10 
REMARK    5  A    between atoms: C9_10  and  O1_11 
REMARK    6  A    between atoms: O1_11  and  C10_12 
REMARK    7  A    between atoms: C13_17  and  C14_18 
REMARK    8  A    between atoms: C19_23  and  C20_24 
REMARK    9  A    between atoms: C20_24  and  N3_25 
ROOT
HETATM    1  C10 UNL     1     -28.954  30.546   3.532  1.00  0.00     0.149 C 
HETATM    2  N2  UNL     1     -28.898  29.325   3.161  1.00  0.00    -0.367 N 
ATOM      3  H2  UNL     1     -29.795  28.841   3.199  1.00  0.00     0.161 HD
HETATM    4  C11 UNL     1     -27.807  28.498   2.697  1.00  0.00     0.163 C 
HETATM    5  C12 UNL     1     -26.579  28.647   3.498  1.00  0.00     0.001 A 
HETATM    6  C13 UNL     1     -25.845  27.490   3.481  1.00  0.00    -0.044 A 
HETATM    7  C17 UNL     1     -24.633  27.528   4.169  1.00  0.00     0.009 A 
HETATM    8  C18 UNL     1     -24.191  28.668   4.835  1.00  0.00     0.016 A 
HETATM    9  C19 UNL     1     -24.927  29.818   4.852  1.00  0.00     0.013 A 
HETATM   10  C23 UNL     1     -26.147  29.785   4.160  1.00  0.00     0.090 A 
HETATM   11  O2  UNL     1     -26.733  31.040   4.297  1.00  0.00    -0.331 OA
HETATM   12  C24 UNL     1     -27.841  31.523   3.597  1.00  0.00     0.125 C 
HETATM   13  C25 UNL     1     -28.317  32.758   4.340  1.00  0.00     0.055 C 
HETATM   14  C26 UNL     1     -27.432  31.986   2.212  1.00  0.00     0.055 C 
ENDROOT
BRANCH   1  15
HETATM   15  O1  UNL     1     -30.232  30.907   3.895  1.00  0.00    -0.337 OA
BRANCH  15  16
HETATM   16  C9  UNL     1     -31.376  30.161   3.747  1.00  0.00     0.177 C 
BRANCH  16  17
HETATM   17  C8  UNL     1     -32.438  30.209   4.773  1.00  0.00     0.028 C 
BRANCH  17  18
HETATM   18  C7  UNL     1     -32.630  28.876   5.488  1.00  0.00     0.022 C 
BRANCH  18  19
HETATM   19  C6  UNL     1     -31.745  27.803   4.962  1.00  0.00     0.128 C 
BRANCH  19  20
HETATM   20  N1  UNL     1     -30.903  27.310   6.033  1.00  0.00    -0.360 N 
HETATM   21  C5  UNL     1     -31.084  27.756   7.283  1.00  0.00     0.091 A 
HETATM   22  C4  UNL     1     -30.299  27.302   8.301  1.00  0.00     0.018 A 
HETATM   23  C3  UNL     1     -29.318  26.383   8.043  1.00  0.00     0.010 A 
HETATM   24  C2  UNL     1     -29.116  25.915   6.776  1.00  0.00    -0.040 A 
HETATM   25  C1  UNL     1     -28.049  24.909   6.456  1.00  0.00     0.050 C 
HETATM   26  C27 UNL     1     -29.932  26.398   5.764  1.00  0.00     0.013 A 
HETATM   27  C28 UNL     1     -29.711  25.896   4.403  1.00  0.00     0.069 C 
ENDBRANCH  19  20
ENDBRANCH  18  19
ENDBRANCH  17  18
ENDBRANCH  16  17
ENDBRANCH  15  16
ENDBRANCH   1  15
BRANCH   6  28
HETATM   28  C14 UNL     1     -26.230  26.218   2.843  1.00  0.00     0.011 C 
HETATM   29  C15 UNL     1     -25.595  26.160   1.441  1.00  0.00     0.015 C 
HETATM   30  C16 UNL     1     -25.511  25.088   3.600  1.00  0.00     0.015 C 
ENDBRANCH   6  28
BRANCH   9  31
HETATM   31  C20 UNL     1     -24.501  31.054   5.537  1.00  0.00     0.098 C 
BRANCH  31  32
HETATM   32  N3  UNL     1     -24.449  31.065   6.929  1.00  0.00    -0.398 N 
HETATM   33  C21 UNL     1     -25.596  30.760   7.690  1.00  0.00     0.148 C 
HETATM   34  C22 UNL     1     -23.194  30.977   7.579  1.00  0.00     0.148 C 
ENDBRANCH  31  32
ENDBRANCH   9  31
TORSDOF 9
ENDMDL
MODEL 2
REMARK VINA RESULT: -7.262887310      0.663      1.580
REMARK  9 active torsions:
REMARK  status: ('A' for Active; 'I' for Inactive)
REMARK    1  A    between atoms: N1_6  and  C6_7 
REMARK    2  A    between atoms: C6_7  and  C7_8 
REMARK    3  A    between atoms: C7_8  and  C8_9 
REMARK    4  A    between atoms: C8_9  and  C9_10 
REMARK    5  A    between atoms: C9_10  and  O1_11 
REMARK    6  A    between atoms: O1_11  and  C10_12 
REMARK    7  A    between atoms: C13_17  and  C14_18 
REMARK    8  A    between atoms: C19_23  and  C20_24 
REMARK    9  A    between atoms: C20_24  and  N3_25 
ROOT
HETATM    1  C10 UNL     1     -28.585  30.831   3.688  1.00  0.00     0.149 C 
HETATM    2  N2  UNL     1     -28.622  29.642   3.224  1.00  0.00    -0.367 N 
ATOM      3  H2  UNL     1     -29.559  29.238   3.200  1.00  0.00     0.161 HD
HETATM    4  C11 UNL     1     -27.591  28.759   2.727  1.00  0.00     0.163 C 
HETATM    5  C12 UNL     1     -26.383  28.737   3.572  1.00  0.00     0.001 A 
HETATM    6  C13 UNL     1     -25.752  27.523   3.484  1.00  0.00    -0.044 A 
HETATM    7  C17 UNL     1     -24.566  27.402   4.206  1.00  0.00     0.009 A 
HETATM    8  C18 UNL     1     -24.050  28.444   4.972  1.00  0.00     0.016 A 
HETATM    9  C19 UNL     1     -24.684  29.650   5.058  1.00  0.00     0.013 A 
HETATM   10  C23 UNL     1     -25.877  29.779   4.332  1.00  0.00     0.090 A 
HETATM   11  O2  UNL     1     -26.356  31.067   4.551  1.00  0.00    -0.331 OA
HETATM   12  C24 UNL     1     -27.394  31.698   3.860  1.00  0.00     0.125 C 
HETATM   13  C25 UNL     1     -27.786  32.910   4.684  1.00  0.00     0.055 C 
HETATM   14  C26 UNL     1     -26.899  32.225   2.527  1.00  0.00     0.055 C 
ENDROOT
BRANCH   1  15
HETATM   15  O1  UNL     1     -29.838  31.276   4.042  1.00  0.00    -0.337 OA
BRANCH  15  16
HETATM   16  C9  UNL     1     -30.965  31.286   3.257  1.00  0.00     0.177 C 
BRANCH  16  17
HETATM   17  C8  UNL     1     -32.207  30.634   3.723  1.00  0.00     0.028 C 
BRANCH  17  18
HETATM   18  C7  UNL     1     -32.102  29.113   3.750  1.00  0.00     0.022 C 
BRANCH  18  19
HETATM   19  C6  UNL     1     -32.118  28.555   5.128  1.00  0.00     0.128 C 
BRANCH  19  20
HETATM   20  N1  UNL     1     -31.078  27.554   5.252  1.00  0.00    -0.360 N 
HETATM   21  C5  UNL     1     -30.592  26.960   4.154  1.00  0.00     0.091 A 
HETATM   22  C4  UNL     1     -29.613  26.016   4.254  1.00  0.00     0.018 A 
HETATM   23  C3  UNL     1     -29.123  25.673   5.486  1.00  0.00     0.010 A 
HETATM   24  C2  UNL     1     -29.605  26.267   6.617  1.00  0.00    -0.040 A 
HETATM   25  C1  UNL     1     -29.094  25.915   7.984  1.00  0.00     0.050 C 
HETATM   26  C27 UNL     1     -30.601  27.223   6.480  1.00  0.00     0.013 A 
HETATM   27  C28 UNL     1     -31.119  27.857   7.697  1.00  0.00     0.069 C 
ENDBRANCH  19  20
ENDBRANCH  18  19
ENDBRANCH  17  18
ENDBRANCH  16  17
ENDBRANCH  15  16
ENDBRANCH   1  15
BRANCH   6  28
HETATM   28  C14 UNL     1     -26.224  26.343   2.739  1.00  0.00     0.011 C 
HETATM   29  C15 UNL     1     -25.472  26.278   1.396  1.00  0.00     0.015 C 
HETATM   30  C16 UNL     1     -25.717  25.096   3.484  1.00  0.00     0.015 C 
ENDBRANCH   6  28
BRANCH   9  31
HETATM   31  C20 UNL     1     -24.176  30.789   5.849  1.00  0.00     0.098 C 
BRANCH  31  32
HETATM   32  N3  UNL     1     -24.175  30.692   7.239  1.00  0.00    -0.398 N 
HETATM   33  C21 UNL     1     -22.961  30.679   7.955  1.00  0.00     0.148 C 
HETATM   34  C22 UNL     1     -25.352  31.012   7.959  1.00  0.00     0.148 C 
ENDBRANCH  31  32
ENDBRANCH   9  31
TORSDOF 9
ENDMDL
MODEL 3
REMARK VINA RESULT: -7.191292117      1.312      1.598
REMARK  9 active torsions:
REMARK  status: ('A' for Active; 'I' for Inactive)
REMARK    1  A    between atoms: N1_6  and  C6_7 
REMARK    2  A    between atoms: C6_7  and  C7_8 
REMARK    3  A    between atoms: C7_8  and  C8_9 
REMARK    4  A    between atoms: C8_9  and  C9_10 
REMARK    5  A    between atoms: C9_10  and  O1_11 
REMARK    6  A    between atoms: O1_11  and  C10_12 
REMARK    7  A    between atoms: C13_17  and  C14_18 
REMARK    8  A    between atoms: C19_23  and  C20_24 
REMARK    9  A    between atoms: C20_24  and  N3_25 
ROOT
HETATM    1  C10 UNL     1     -30.541  30.372   2.631  1.00  0.00     0.149 C 
HETATM    2  N2  UNL     1     -30.199  29.345   1.952  1.00  0.00    -0.367 N 
ATOM      3  H2  UNL     1     -30.984  28.855   1.522  1.00  0.00     0.161 HD
HETATM    4  C11 UNL     1     -28.913  28.743   1.678  1.00  0.00     0.163 C 
HETATM    5  C12 UNL     1     -28.048  28.645   2.867  1.00  0.00     0.001 A 
HETATM    6  C13 UNL     1     -27.198  27.575   2.761  1.00  0.00    -0.044 A 
HETATM    7  C17 UNL     1     -26.295  27.410   3.810  1.00  0.00     0.009 A 
HETATM    8  C18 UNL     1     -26.257  28.274   4.902  1.00  0.00     0.016 A 
HETATM    9  C19 UNL     1     -27.107  29.336   5.005  1.00  0.00     0.013 A 
HETATM   10  C23 UNL     1     -28.017  29.508   3.951  1.00  0.00     0.090 A 
HETATM   11  O2  UNL     1     -28.782  30.633   4.245  1.00  0.00    -0.331 OA
HETATM   12  C24 UNL     1     -29.655  31.296   3.378  1.00  0.00     0.125 C 
HETATM   13  C25 UNL     1     -30.512  32.204   4.242  1.00  0.00     0.055 C 
HETATM   14  C26 UNL     1     -28.882  32.202   2.438  1.00  0.00     0.055 C 
ENDROOT
BRANCH   1  15
HETATM   15  O1  UNL     1     -31.903  30.564   2.608  1.00  0.00    -0.337 OA
BRANCH  15  16
HETATM   16  C9  UNL     1     -32.868  29.696   3.057  1.00  0.00     0.177 C 
BRANCH  16  17
HETATM   17  C8  UNL     1     -33.416  29.827   4.423  1.00  0.00     0.028 C 
BRANCH  17  18
HETATM   18  C7  UNL     1     -32.484  29.262   5.490  1.00  0.00     0.022 C 
BRANCH  18  19
HETATM   19  C6  UNL     1     -32.360  27.782   5.428  1.00  0.00     0.128 C 
BRANCH  19  20
HETATM   20  N1  UNL     1     -31.278  27.355   6.291  1.00  0.00    -0.360 N 
HETATM   21  C5  UNL     1     -31.242  27.764   7.566  1.00  0.00     0.091 A 
HETATM   22  C4  UNL     1     -30.229  27.371   8.391  1.00  0.00     0.018 A 
HETATM   23  C3  UNL     1     -29.242  26.552   7.911  1.00  0.00     0.010 A 
HETATM   24  C2  UNL     1     -29.260  26.124   6.615  1.00  0.00    -0.040 A 
HETATM   25  C1  UNL     1     -28.194  25.228   6.054  1.00  0.00     0.050 C 
HETATM   26  C27 UNL     1     -30.304  26.543   5.803  1.00  0.00     0.013 A 
HETATM   27  C28 UNL     1     -30.320  26.083   4.409  1.00  0.00     0.069 C 
ENDBRANCH  19  20
ENDBRANCH  18  19
ENDBRANCH  17  18
ENDBRANCH  16  17
ENDBRANCH  15  16
ENDBRANCH   1  15
BRANCH   6  28
HETATM   28  C14 UNL     1     -27.175  26.579   1.675  1.00  0.00     0.011 C 
HETATM   29  C15 UNL     1     -25.717  26.385   1.218  1.00  0.00     0.015 C 
HETATM   30  C16 UNL     1     -27.532  25.217   2.293  1.00  0.00     0.015 C 
ENDBRANCH   6  28
BRANCH   9  31
HETATM   31  C20 UNL     1     -27.103  30.285   6.136  1.00  0.00     0.098 C 
BRANCH  31  32
HETATM   32  N3  UNL     1     -25.946  31.017   6.393  1.00  0.00    -0.398 N 
HETATM   33  C21 UNL     1     -25.200  30.788   7.567  1.00  0.00     0.148 C 
HETATM   34  C22 UNL     1     -25.294  31.683   5.327  1.00  0.00     0.148 C 
ENDBRANCH  31  32
ENDBRANCH   9  31
TORSDOF 9
ENDMDL
MODEL 4
REMARK VINA RESULT: -7.190507280      2.597      7.368
REMARK  9 active torsions:
REMARK  status: ('A' for Active; 'I' for Inactive)
REMARK    1  A    between atoms: N1_6  and  C6_7 
REMARK    2  A    between atoms: C6_7  and  C7_8 
REMARK    3  A    between atoms: C7_8  and  C8_9 
REMARK    4  A    between atoms: C8_9  and  C9_10 
REMARK    5  A    between atoms: C9_10  and  O1_11 
REMARK    6  A    between atoms: O1_11  and  C10_12 
REMARK    7  A    between atoms: C13_17  and  C14_18 
REMARK    8  A    between atoms: C19_23  and  C20_24 
REMARK    9  A    between atoms: C20_24  and  N3_25 
ROOT
HETATM    1  C10 UNL     1     -26.596  29.937   5.078  1.00  0.00     0.149 C 
HETATM    2  N2  UNL     1     -27.402  29.720   6.045  1.00  0.00    -0.367 N 
ATOM      3  H2  UNL     1     -27.067  30.061   6.946  1.00  0.00     0.161 HD
HETATM    4  C11 UNL     1     -28.698  29.083   6.106  1.00  0.00     0.163 C 
HETATM    5  C12 UNL     1     -28.769  27.825   5.340  1.00  0.00     0.001 A 
HETATM    6  C13 UNL     1     -29.684  26.970   5.896  1.00  0.00    -0.044 A 
HETATM    7  C17 UNL     1     -29.872  25.763   5.225  1.00  0.00     0.009 A 
HETATM    8  C18 UNL     1     -29.175  25.439   4.064  1.00  0.00     0.016 A 
HETATM    9  C19 UNL     1     -28.262  26.293   3.516  1.00  0.00     0.013 A 
HETATM   10  C23 UNL     1     -28.070  27.511   4.186  1.00  0.00     0.090 A 
HETATM   11  O2  UNL     1     -27.113  28.228   3.473  1.00  0.00    -0.331 OA
HETATM   12  C24 UNL     1     -26.775  29.571   3.652  1.00  0.00     0.125 C 
HETATM   13  C25 UNL     1     -25.461  29.786   2.924  1.00  0.00     0.055 C 
HETATM   14  C26 UNL     1     -27.793  30.469   2.976  1.00  0.00     0.055 C 
ENDROOT
BRANCH   1  15
HETATM   15  O1  UNL     1     -25.460  30.589   5.502  1.00  0.00    -0.337 OA
BRANCH  15  16
HETATM   16  C9  UNL     1     -24.642  30.231   6.545  1.00  0.00     0.177 C 
BRANCH  16  17
HETATM   17  C8  UNL     1     -23.448  29.394   6.305  1.00  0.00     0.028 C 
BRANCH  17  18
HETATM   18  C7  UNL     1     -22.189  30.217   6.054  1.00  0.00     0.022 C 
BRANCH  18  19
HETATM   19  C6  UNL     1     -21.677  30.883   7.281  1.00  0.00     0.128 C 
BRANCH  19  20
HETATM   20  N1  UNL     1     -20.955  29.918   8.084  1.00  0.00    -0.360 N 
HETATM   21  C5  UNL     1     -19.915  29.258   7.557  1.00  0.00     0.091 A 
HETATM   22  C4  UNL     1     -19.224  28.347   8.301  1.00  0.00     0.018 A 
HETATM   23  C3  UNL     1     -19.598  28.105   9.595  1.00  0.00     0.010 A 
HETATM   24  C2  UNL     1     -20.655  28.766  10.152  1.00  0.00    -0.040 A 
HETATM   25  C1  UNL     1     -21.093  28.525  11.567  1.00  0.00     0.050 C 
HETATM   26  C27 UNL     1     -21.335  29.687   9.368  1.00  0.00     0.013 A 
HETATM   27  C28 UNL     1     -22.472  30.394   9.967  1.00  0.00     0.069 C 
ENDBRANCH  19  20
ENDBRANCH  18  19
ENDBRANCH  17  18
ENDBRANCH  16  17
ENDBRANCH  15  16
ENDBRANCH   1  15
BRANCH   6  28
HETATM   28  C14 UNL     1     -30.449  27.190   7.136  1.00  0.00     0.011 C 
HETATM   29  C15 UNL     1     -31.906  26.752   6.899  1.00  0.00     0.015 C 
HETATM   30  C16 UNL     1     -29.942  26.175   8.175  1.00  0.00     0.015 C 
ENDBRANCH   6  28
BRANCH   9  31
HETATM   31  C20 UNL     1     -27.502  26.002   2.284  1.00  0.00     0.098 C 
BRANCH  31  32
HETATM   32  N3  UNL     1     -26.155  25.664   2.392  1.00  0.00    -0.398 N 
HETATM   33  C21 UNL     1     -25.193  26.289   1.572  1.00  0.00     0.148 C 
HETATM   34  C22 UNL     1     -25.691  25.020   3.564  1.00  0.00     0.148 C 
ENDBRANCH  31  32
ENDBRANCH   9  31
TORSDOF 9
ENDMDL
MODEL 5
REMARK VINA RESULT: -7.002016582      2.059      6.261
REMARK  9 active torsions:
REMARK  status: ('A' for Active; 'I' for Inactive)
REMARK    1  A    between atoms: N1_6  and  C6_7 
REMARK    2  A    between atoms: C6_7  and  C7_8 
REMARK    3  A    between atoms: C7_8  and  C8_9 
REMARK    4  A    between atoms: C8_9  and  C9_10 
REMARK    5  A    between atoms: C9_10  and  O1_11 
REMARK    6  A    between atoms: O1_11  and  C10_12 
REMARK    7  A    between atoms: C13_17  and  C14_18 
REMARK    8  A    between atoms: C19_23  and  C20_24 
REMARK    9  A    between atoms: C20_24  and  N3_25 
ROOT
HETATM    1  C10 UNL     1     -27.858  26.550   2.855  1.00  0.00     0.149 C 
HETATM    2  N2  UNL     1     -28.088  27.444   1.972  1.00  0.00    -0.367 N 
ATOM      3  H2  UNL     1     -27.520  27.349   1.130  1.00  0.00     0.161 HD
HETATM    4  C11 UNL     1     -29.000  28.566   1.939  1.00  0.00     0.163 C 
HETATM    5  C12 UNL     1     -29.022  29.340   3.193  1.00  0.00     0.001 A 
HETATM    6  C13 UNL     1     -29.336  30.651   2.949  1.00  0.00    -0.044 A 
HETATM    7  C17 UNL     1     -29.434  31.472   4.071  1.00  0.00     0.009 A 
HETATM    8  C18 UNL     1     -29.224  30.995   5.363  1.00  0.00     0.016 A 
HETATM    9  C19 UNL     1     -28.909  29.689   5.601  1.00  0.00     0.013 A 
HETATM   10  C23 UNL     1     -28.810  28.858   4.475  1.00  0.00     0.090 A 
HETATM   11  O2  UNL     1     -28.486  27.583   4.930  1.00  0.00    -0.331 OA
HETATM   12  C24 UNL     1     -28.503  26.403   4.182  1.00  0.00     0.125 C 
HETATM   13  C25 UNL     1     -27.734  25.371   4.987  1.00  0.00     0.055 C 
HETATM   14  C26 UNL     1     -29.919  25.878   4.052  1.00  0.00     0.055 C 
ENDROOT
BRANCH   1  15
HETATM   15  O1  UNL     1     -26.887  25.667   2.440  1.00  0.00    -0.337 OA
BRANCH  15  16
HETATM   16  C9  UNL     1     -25.596  25.967   2.082  1.00  0.00     0.177 C 
BRANCH  16  17
HETATM   17  C8  UNL     1     -24.522  25.981   3.096  1.00  0.00     0.028 C 
BRANCH  17  18
HETATM   18  C7  UNL     1     -24.560  27.223   3.980  1.00  0.00     0.022 C 
BRANCH  18  19
HETATM   19  C6  UNL     1     -24.928  28.456   3.233  1.00  0.00     0.128 C 
BRANCH  19  20
HETATM   20  N1  UNL     1     -25.154  29.535   4.172  1.00  0.00    -0.360 N 
HETATM   21  C5  UNL     1     -25.017  29.315   5.486  1.00  0.00     0.091 A 
HETATM   22  C4  UNL     1     -25.227  30.321   6.383  1.00  0.00     0.018 A 
HETATM   23  C3  UNL     1     -25.579  31.566   5.935  1.00  0.00     0.010 A 
HETATM   24  C2  UNL     1     -25.724  31.812   4.600  1.00  0.00    -0.040 A 
HETATM   25  C1  UNL     1     -26.111  33.163   4.074  1.00  0.00     0.050 C 
HETATM   26  C27 UNL     1     -25.503  30.766   3.715  1.00  0.00     0.013 A 
HETATM   27  C28 UNL     1     -25.662  31.033   2.281  1.00  0.00     0.069 C 
ENDBRANCH  19  20
ENDBRANCH  18  19
ENDBRANCH  17  18
ENDBRANCH  16  17
ENDBRANCH  15  16
ENDBRANCH   1  15
BRANCH   6  28
HETATM   28  C14 UNL     1     -29.542  31.271   1.628  1.00  0.00     0.011 C 
HETATM   29  C15 UNL     1     -31.046  31.543   1.442  1.00  0.00     0.015 C 
HETATM   30  C16 UNL     1     -28.934  32.683   1.683  1.00  0.00     0.015 C 
ENDBRANCH   6  28
BRANCH   9  31
HETATM   31  C20 UNL     1     -28.683  29.132   6.950  1.00  0.00     0.098 C 
BRANCH  31  32
HETATM   32  N3  UNL     1     -29.711  28.417   7.560  1.00  0.00    -0.398 N 
HETATM   33  C21 UNL     1     -31.059  28.722   7.281  1.00  0.00     0.148 C 
HETATM   34  C22 UNL     1     -29.435  27.149   8.126  1.00  0.00     0.148 C 
ENDBRANCH  31  32
ENDBRANCH   9  31
TORSDOF 9
ENDMDL
