MODEL 1
REMARK VINA RESULT: -7.744989902      0.000      0.000
REMARK  9 active torsions:
REMARK  status: ('A' for Active; 'I' for Inactive)
REMARK    1  A    between atoms: C2_2  and  C3_3 
REMARK    2  A    between atoms: C3_3  and  N1_4 
REMARK    3  A    between atoms: C9_12  and  C10_13 
REMARK    4  A    between atoms: C10_13  and  C11_14 
REMARK    5  A    between atoms: C12_15  and  C14_17 
REMARK    6  A    between atoms: C15_18  and  C16_19 
REMARK    7  A    between atoms: C20_23  and  C21_24 
REMARK    8  A    between atoms: C21_24  and  C22_25 
REMARK    9  A    between atoms: C22_25  and  N2_26 
ROOT
HETATM    1  C14 UNL     1     -24.922  28.809   4.434  1.00  0.00     0.005 C 
HETATM    2  C15 UNL     1     -24.629  27.547   4.473  1.00  0.00     0.011 C 
ENDROOT
BRANCH   1   3
HETATM    3  C12 UNL     1     -24.166  29.849   5.139  1.00  0.00    -0.066 C 
HETATM    4  C11 UNL     1     -23.124  29.478   5.795  1.00  0.00    -0.016 C 
HETATM    5  C13 UNL     1     -24.633  31.233   5.061  1.00  0.00     0.048 C 
BRANCH   4   6
HETATM    6  C10 UNL     1     -22.137  30.173   6.602  1.00  0.00     0.057 C 
BRANCH   6   7
HETATM    7  C9  UNL     1     -22.547  30.612   7.918  1.00  0.00     0.010 C 
HETATM    8  C8  UNL     1     -22.000  30.191   9.035  1.00  0.00     0.080 C 
HETATM    9  N1  UNL     1     -22.433  30.643  10.339  1.00  0.00    -0.311 N 
HETATM   10  C7  UNL     1     -20.891  29.240   9.082  1.00  0.00     0.176 C 
HETATM   11  C4  UNL     1     -21.772  30.142  11.489  1.00  0.00     0.225 C 
HETATM   12  O1  UNL     1     -21.659  30.854  12.514  1.00  0.00    -0.273 OA
HETATM   13  C5  UNL     1     -21.215  28.786  11.495  1.00  0.00     0.111 C 
HETATM   14  C6  UNL     1     -20.899  28.218  10.152  1.00  0.00     0.095 C 
HETATM   15  O2  UNL     1     -19.958  29.269   8.263  1.00  0.00    -0.291 OA
BRANCH   9  16
HETATM   16  C3  UNL     1     -23.497  31.574  10.466  1.00  0.00     0.158 C 
BRANCH  16  17
HETATM   17  C2  UNL     1     -24.745  30.945  10.996  1.00  0.00    -0.017 C 
HETATM   18  C1  UNL     1     -25.204  31.169  12.227  1.00  0.00     0.008 C 
ENDBRANCH  16  17
ENDBRANCH   9  16
ENDBRANCH   6   7
ENDBRANCH   4   6
ENDBRANCH   1   3
BRANCH   2  19
HETATM   19  C16 UNL     1     -25.476  26.550   3.708  1.00  0.00     0.078 C 
HETATM   20  C17 UNL     1     -24.595  25.804   2.707  1.00  0.00     0.051 C 
HETATM   21  C18 UNL     1     -26.523  27.276   2.900  1.00  0.00     0.069 C 
HETATM   22  C19 UNL     1     -27.849  26.621   2.979  1.00  0.00    -0.019 C 
HETATM   23  C20 UNL     1     -28.205  25.967   4.106  1.00  0.00    -0.058 C 
HETATM   24  C28 UNL     1     -27.189  25.980   5.180  1.00  0.00     0.203 C 
HETATM   25  O3  UNL     1     -25.973  25.641   4.594  1.00  0.00    -0.372 OA
BRANCH  23  26
HETATM   26  C21 UNL     1     -29.518  25.308   4.212  1.00  0.00     0.066 C 
BRANCH  26  27
HETATM   27  C22 UNL     1     -30.597  26.334   4.300  1.00  0.00     0.276 C 
BRANCH  27  28
HETATM   28  N2  UNL     1     -30.569  27.119   5.495  1.00  0.00     0.088 N 
HETATM   29  C23 UNL     1     -31.146  26.337   6.575  1.00  0.00     0.272 C 
HETATM   30  C24 UNL     1     -30.475  26.800   7.855  1.00  0.00     0.030 C 
HETATM   31  C25 UNL     1     -30.270  28.301   7.719  1.00  0.00     0.003 C 
HETATM   32  C26 UNL     1     -31.356  28.916   6.843  1.00  0.00     0.030 C 
HETATM   33  C27 UNL     1     -31.254  28.369   5.413  1.00  0.00     0.272 C 
ENDBRANCH  27  28
ENDBRANCH  26  27
ENDBRANCH  23  26
ENDBRANCH   2  19
TORSDOF 9
ENDMDL
MODEL 2
REMARK VINA RESULT: -7.601439559      1.325      1.917
REMARK  9 active torsions:
REMARK  status: ('A' for Active; 'I' for Inactive)
REMARK    1  A    between atoms: C2_2  and  C3_3 
REMARK    2  A    between atoms: C3_3  and  N1_4 
REMARK    3  A    between atoms: C9_12  and  C10_13 
REMARK    4  A    between atoms: C10_13  and  C11_14 
REMARK    5  A    between atoms: C12_15  and  C14_17 
REMARK    6  A    between atoms: C15_18  and  C16_19 
REMARK    7  A    between atoms: C20_23  and  C21_24 
REMARK    8  A    between atoms: C21_24  and  C22_25 
REMARK    9  A    between atoms: C22_25  and  N2_26 
ROOT
HETATM    1  C14 UNL     1     -24.831  28.806   4.488  1.00  0.00     0.005 C 
HETATM    2  C15 UNL     1     -24.563  27.540   4.545  1.00  0.00     0.011 C 
ENDROOT
BRANCH   1   3
HETATM    3  C12 UNL     1     -24.071  29.838   5.201  1.00  0.00    -0.066 C 
HETATM    4  C11 UNL     1     -23.003  29.466   5.813  1.00  0.00    -0.016 C 
HETATM    5  C13 UNL     1     -24.564  31.215   5.179  1.00  0.00     0.048 C 
BRANCH   4   6
HETATM    6  C10 UNL     1     -22.004  30.155   6.612  1.00  0.00     0.057 C 
BRANCH   6   7
HETATM    7  C9  UNL     1     -21.707  29.608   7.918  1.00  0.00     0.010 C 
HETATM    8  C8  UNL     1     -20.503  29.268   8.314  1.00  0.00     0.080 C 
HETATM    9  N1  UNL     1     -20.235  28.719   9.625  1.00  0.00    -0.311 N 
HETATM   10  C7  UNL     1     -19.308  29.421   7.486  1.00  0.00     0.176 C 
HETATM   11  C4  UNL     1     -18.899  28.393   9.968  1.00  0.00     0.225 C 
HETATM   12  O1  UNL     1     -18.510  28.488  11.156  1.00  0.00    -0.273 OA
HETATM   13  C5  UNL     1     -17.956  27.941   8.941  1.00  0.00     0.111 C 
HETATM   14  C6  UNL     1     -18.283  28.355   7.546  1.00  0.00     0.095 C 
HETATM   15  O2  UNL     1     -19.134  30.405   6.750  1.00  0.00    -0.291 OA
BRANCH   9  16
HETATM   16  C3  UNL     1     -21.289  28.514  10.554  1.00  0.00     0.158 C 
BRANCH  16  17
HETATM   17  C2  UNL     1     -21.500  29.693  11.448  1.00  0.00    -0.017 C 
HETATM   18  C1  UNL     1     -22.584  30.465  11.385  1.00  0.00     0.008 C 
ENDBRANCH  16  17
ENDBRANCH   9  16
ENDBRANCH   6   7
ENDBRANCH   4   6
ENDBRANCH   1   3
BRANCH   2  19
HETATM   19  C16 UNL     1     -25.411  26.551   3.770  1.00  0.00     0.078 C 
HETATM   20  C17 UNL     1     -24.531  25.817   2.758  1.00  0.00     0.051 C 
HETATM   21  C18 UNL     1     -26.459  27.288   2.971  1.00  0.00     0.069 C 
HETATM   22  C19 UNL     1     -27.785  26.632   3.043  1.00  0.00    -0.019 C 
HETATM   23  C20 UNL     1     -28.140  25.965   4.163  1.00  0.00    -0.058 C 
HETATM   24  C28 UNL     1     -27.122  25.965   5.236  1.00  0.00     0.203 C 
HETATM   25  O3  UNL     1     -25.907  25.632   4.645  1.00  0.00    -0.372 OA
BRANCH  23  26
HETATM   26  C21 UNL     1     -29.453  25.305   4.263  1.00  0.00     0.066 C 
BRANCH  26  27
HETATM   27  C22 UNL     1     -30.538  26.328   4.263  1.00  0.00     0.276 C 
BRANCH  27  28
HETATM   28  N2  UNL     1     -30.582  27.142   5.438  1.00  0.00     0.088 N 
HETATM   29  C23 UNL     1     -30.965  26.307   6.564  1.00  0.00     0.272 C 
HETATM   30  C24 UNL     1     -30.318  26.913   7.796  1.00  0.00     0.030 C 
HETATM   31  C25 UNL     1     -30.374  28.423   7.617  1.00  0.00     0.003 C 
HETATM   32  C26 UNL     1     -31.590  28.822   6.789  1.00  0.00     0.030 C 
HETATM   33  C27 UNL     1     -31.470  28.257   5.368  1.00  0.00     0.272 C 
ENDBRANCH  27  28
ENDBRANCH  26  27
ENDBRANCH  23  26
ENDBRANCH   2  19
TORSDOF 9
ENDMDL
MODEL 3
REMARK VINA RESULT: -7.563654813      1.263      2.428
REMARK  9 active torsions:
REMARK  status: ('A' for Active; 'I' for Inactive)
REMARK    1  A    between atoms: C2_2  and  C3_3 
REMARK    2  A    between atoms: C3_3  and  N1_4 
REMARK    3  A    between atoms: C9_12  and  C10_13 
REMARK    4  A    between atoms: C10_13  and  C11_14 
REMARK    5  A    between atoms: C12_15  and  C14_17 
REMARK    6  A    between atoms: C15_18  and  C16_19 
REMARK    7  A    between atoms: C20_23  and  C21_24 
REMARK    8  A    between atoms: C21_24  and  C22_25 
REMARK    9  A    between atoms: C22_25  and  N2_26 
ROOT
HETATM    1  C14 UNL     1     -24.979  28.850   4.390  1.00  0.00     0.005 C 
HETATM    2  C15 UNL     1     -24.675  27.592   4.458  1.00  0.00     0.011 C 
ENDROOT
BRANCH   1   3
HETATM    3  C12 UNL     1     -24.236  29.912   5.076  1.00  0.00    -0.066 C 
HETATM    4  C11 UNL     1     -23.111  29.593   5.611  1.00  0.00    -0.016 C 
HETATM    5  C13 UNL     1     -24.808  31.258   5.115  1.00  0.00     0.048 C 
BRANCH   4   6
HETATM    6  C10 UNL     1     -22.103  30.325   6.359  1.00  0.00     0.057 C 
BRANCH   6   7
HETATM    7  C9  UNL     1     -21.405  29.609   7.404  1.00  0.00     0.010 C 
HETATM    8  C8  UNL     1     -21.637  29.771   8.685  1.00  0.00     0.080 C 
HETATM    9  N1  UNL     1     -20.920  29.046   9.711  1.00  0.00    -0.311 N 
HETATM   10  C7  UNL     1     -22.651  30.683   9.212  1.00  0.00     0.176 C 
HETATM   11  C4  UNL     1     -21.251  29.278  11.070  1.00  0.00     0.225 C 
HETATM   12  O1  UNL     1     -21.144  28.357  11.913  1.00  0.00    -0.273 OA
HETATM   13  C5  UNL     1     -21.721  30.597  11.506  1.00  0.00     0.111 C 
HETATM   14  C6  UNL     1     -22.328  31.444  10.440  1.00  0.00     0.095 C 
HETATM   15  O2  UNL     1     -23.757  30.830   8.667  1.00  0.00    -0.291 OA
BRANCH   9  16
HETATM   16  C3  UNL     1     -19.906  28.115   9.364  1.00  0.00     0.158 C 
BRANCH  16  17
HETATM   17  C2  UNL     1     -18.533  28.640   9.634  1.00  0.00    -0.017 C 
HETATM   18  C1  UNL     1     -17.900  29.474   8.810  1.00  0.00     0.008 C 
ENDBRANCH  16  17
ENDBRANCH   9  16
ENDBRANCH   6   7
ENDBRANCH   4   6
ENDBRANCH   1   3
BRANCH   2  19
HETATM   19  C16 UNL     1     -25.509  26.571   3.710  1.00  0.00     0.078 C 
HETATM   20  C17 UNL     1     -24.616  25.814   2.727  1.00  0.00     0.051 C 
HETATM   21  C18 UNL     1     -26.560  27.270   2.884  1.00  0.00     0.069 C 
HETATM   22  C19 UNL     1     -27.880  26.603   2.971  1.00  0.00    -0.019 C 
HETATM   23  C20 UNL     1     -28.234  25.969   4.110  1.00  0.00    -0.058 C 
HETATM   24  C28 UNL     1     -27.221  26.014   5.187  1.00  0.00     0.203 C 
HETATM   25  O3  UNL     1     -26.000  25.675   4.613  1.00  0.00    -0.372 OA
BRANCH  23  26
HETATM   26  C21 UNL     1     -29.540  25.298   4.224  1.00  0.00     0.066 C 
BRANCH  26  27
HETATM   27  C22 UNL     1     -30.629  26.315   4.291  1.00  0.00     0.276 C 
BRANCH  27  28
HETATM   28  N2  UNL     1     -30.611  27.124   5.470  1.00  0.00     0.088 N 
HETATM   29  C23 UNL     1     -31.099  26.329   6.584  1.00  0.00     0.272 C 
HETATM   30  C24 UNL     1     -30.415  26.860   7.830  1.00  0.00     0.030 C 
HETATM   31  C25 UNL     1     -30.312  28.368   7.659  1.00  0.00     0.003 C 
HETATM   32  C26 UNL     1     -31.465  28.894   6.812  1.00  0.00     0.030 C 
HETATM   33  C27 UNL     1     -31.378  28.326   5.390  1.00  0.00     0.272 C 
ENDBRANCH  27  28
ENDBRANCH  26  27
ENDBRANCH  23  26
ENDBRANCH   2  19
TORSDOF 9
ENDMDL
MODEL 4
REMARK VINA RESULT: -7.281192150      3.225      4.829
REMARK  9 active torsions:
REMARK  status: ('A' for Active; 'I' for Inactive)
REMARK    1  A    between atoms: C2_2  and  C3_3 
REMARK    2  A    between atoms: C3_3  and  N1_4 
REMARK    3  A    between atoms: C9_12  and  C10_13 
REMARK    4  A    between atoms: C10_13  and  C11_14 
REMARK    5  A    between atoms: C12_15  and  C14_17 
REMARK    6  A    between atoms: C15_18  and  C16_19 
REMARK    7  A    between atoms: C20_23  and  C21_24 
REMARK    8  A    between atoms: C21_24  and  C22_25 
REMARK    9  A    between atoms: C22_25  and  N2_26 
ROOT
HETATM    1  C14 UNL     1     -23.402  29.248   5.954  1.00  0.00     0.005 C 
HETATM    2  C15 UNL     1     -23.968  29.535   4.824  1.00  0.00     0.011 C 
ENDROOT
BRANCH   1   3
HETATM    3  C12 UNL     1     -22.276  29.997   6.521  1.00  0.00    -0.066 C 
HETATM    4  C11 UNL     1     -21.510  29.375   7.346  1.00  0.00    -0.016 C 
HETATM    5  C13 UNL     1     -22.090  31.392   6.124  1.00  0.00     0.048 C 
BRANCH   4   6
HETATM    6  C10 UNL     1     -20.329  29.747   8.105  1.00  0.00     0.057 C 
BRANCH   6   7
HETATM    7  C9  UNL     1     -19.059  29.716   7.413  1.00  0.00     0.010 C 
HETATM    8  C8  UNL     1     -18.128  28.817   7.629  1.00  0.00     0.080 C 
HETATM    9  N1  UNL     1     -16.864  28.812   6.926  1.00  0.00    -0.311 N 
HETATM   10  C7  UNL     1     -18.271  27.721   8.586  1.00  0.00     0.176 C 
HETATM   11  C4  UNL     1     -15.924  27.792   7.218  1.00  0.00     0.225 C 
HETATM   12  O1  UNL     1     -15.148  27.372   6.327  1.00  0.00    -0.273 OA
HETATM   13  C5  UNL     1     -15.847  27.214   8.564  1.00  0.00     0.111 C 
HETATM   14  C6  UNL     1     -17.086  27.338   9.385  1.00  0.00     0.095 C 
HETATM   15  O2  UNL     1     -19.342  27.112   8.739  1.00  0.00    -0.291 OA
BRANCH   9  16
HETATM   16  C3  UNL     1     -16.570  29.808   5.957  1.00  0.00     0.158 C 
BRANCH  16  17
HETATM   17  C2  UNL     1     -15.666  30.872   6.489  1.00  0.00    -0.017 C 
HETATM   18  C1  UNL     1     -16.106  32.070   6.876  1.00  0.00     0.008 C 
ENDBRANCH  16  17
ENDBRANCH   9  16
ENDBRANCH   6   7
ENDBRANCH   4   6
ENDBRANCH   1   3
BRANCH   2  19
HETATM   19  C16 UNL     1     -25.127  28.695   4.324  1.00  0.00     0.078 C 
HETATM   20  C17 UNL     1     -24.692  27.233   4.240  1.00  0.00     0.051 C 
HETATM   21  C18 UNL     1     -25.499  29.114   2.922  1.00  0.00     0.069 C 
HETATM   22  C19 UNL     1     -26.964  29.207   2.732  1.00  0.00    -0.019 C 
HETATM   23  C20 UNL     1     -27.751  29.565   3.771  1.00  0.00    -0.058 C 
HETATM   24  C28 UNL     1     -27.030  29.837   5.033  1.00  0.00     0.203 C 
HETATM   25  O3  UNL     1     -26.142  28.783   5.230  1.00  0.00    -0.372 OA
BRANCH  23  26
HETATM   26  C21 UNL     1     -29.212  29.667   3.610  1.00  0.00     0.066 C 
BRANCH  26  27
HETATM   27  C22 UNL     1     -29.897  28.992   4.749  1.00  0.00     0.276 C 
BRANCH  27  28
HETATM   28  N2  UNL     1     -29.364  27.708   5.083  1.00  0.00     0.088 N 
HETATM   29  C23 UNL     1     -30.068  26.700   4.309  1.00  0.00     0.272 C 
HETATM   30  C24 UNL     1     -29.092  25.559   4.088  1.00  0.00     0.030 C 
HETATM   31  C25 UNL     1     -28.274  25.435   5.365  1.00  0.00     0.003 C 
HETATM   32  C26 UNL     1     -29.092  25.873   6.573  1.00  0.00     0.030 C 
HETATM   33  C27 UNL     1     -29.440  27.363   6.467  1.00  0.00     0.272 C 
ENDBRANCH  27  28
ENDBRANCH  26  27
ENDBRANCH  23  26
ENDBRANCH   2  19
TORSDOF 9
ENDMDL
MODEL 5
REMARK VINA RESULT: -7.249894817      2.152      2.704
REMARK  9 active torsions:
REMARK  status: ('A' for Active; 'I' for Inactive)
REMARK    1  A    between atoms: C2_2  and  C3_3 
REMARK    2  A    between atoms: C3_3  and  N1_4 
REMARK    3  A    between atoms: C9_12  and  C10_13 
REMARK    4  A    between atoms: C10_13  and  C11_14 
REMARK    5  A    between atoms: C12_15  and  C14_17 
REMARK    6  A    between atoms: C15_18  and  C16_19 
REMARK    7  A    between atoms: C20_23  and  C21_24 
REMARK    8  A    between atoms: C21_24  and  C22_25 
REMARK    9  A    between atoms: C22_25  and  N2_26 
ROOT
HETATM    1  C14 UNL     1     -23.747  29.185   5.697  1.00  0.00     0.005 C 
HETATM    2  C15 UNL     1     -24.243  29.237   4.501  1.00  0.00     0.011 C 
ENDROOT
BRANCH   1   3
HETATM    3  C12 UNL     1     -22.763  30.138   6.220  1.00  0.00    -0.066 C 
HETATM    4  C11 UNL     1     -21.696  29.654   6.749  1.00  0.00    -0.016 C 
HETATM    5  C13 UNL     1     -23.047  31.569   6.114  1.00  0.00     0.048 C 
BRANCH   4   6
HETATM    6  C10 UNL     1     -20.518  30.239   7.365  1.00  0.00     0.057 C 
BRANCH   6   7
HETATM    7  C9  UNL     1     -20.294  29.960   8.766  1.00  0.00     0.010 C 
HETATM    8  C8  UNL     1     -19.373  29.139   9.213  1.00  0.00     0.080 C 
HETATM    9  N1  UNL     1     -19.174  28.874  10.621  1.00  0.00    -0.311 N 
HETATM   10  C7  UNL     1     -18.443  28.420   8.344  1.00  0.00     0.176 C 
HETATM   11  C4  UNL     1     -18.144  27.981  11.008  1.00  0.00     0.225 C 
HETATM   12  O1  UNL     1     -17.543  28.142  12.097  1.00  0.00    -0.273 OA
HETATM   13  C5  UNL     1     -17.767  26.858  10.144  1.00  0.00     0.111 C 
HETATM   14  C6  UNL     1     -18.099  27.025   8.699  1.00  0.00     0.095 C 
HETATM   15  O2  UNL     1     -17.942  28.942   7.335  1.00  0.00    -0.291 OA
BRANCH   9  16
HETATM   16  C3  UNL     1     -19.992  29.500  11.598  1.00  0.00     0.158 C 
BRANCH  16  17
HETATM   17  C2  UNL     1     -21.041  28.581  12.137  1.00  0.00    -0.017 C 
HETATM   18  C1  UNL     1     -21.943  28.962  13.042  1.00  0.00     0.008 C 
ENDBRANCH  16  17
ENDBRANCH   9  16
ENDBRANCH   6   7
ENDBRANCH   4   6
ENDBRANCH   1   3
BRANCH   2  19
HETATM   19  C16 UNL     1     -25.255  28.201   4.055  1.00  0.00     0.078 C 
HETATM   20  C17 UNL     1     -24.571  26.837   3.958  1.00  0.00     0.051 C 
HETATM   21  C18 UNL     1     -25.752  28.530   2.668  1.00  0.00     0.069 C 
HETATM   22  C19 UNL     1     -27.217  28.361   2.541  1.00  0.00    -0.019 C 
HETATM   23  C20 UNL     1     -28.011  28.588   3.610  1.00  0.00    -0.058 C 
HETATM   24  C28 UNL     1     -27.298  28.998   4.838  1.00  0.00     0.203 C 
HETATM   25  O3  UNL     1     -26.231  28.120   5.002  1.00  0.00    -0.372 OA
BRANCH  23  26
HETATM   26  C21 UNL     1     -29.472  28.428   3.511  1.00  0.00     0.066 C 
BRANCH  26  27
HETATM   27  C22 UNL     1     -29.889  27.148   4.154  1.00  0.00     0.276 C 
BRANCH  27  28
HETATM   28  N2  UNL     1     -30.260  27.271   5.529  1.00  0.00     0.088 N 
HETATM   29  C23 UNL     1     -29.591  26.225   6.283  1.00  0.00     0.272 C 
HETATM   30  C24 UNL     1     -29.374  26.768   7.683  1.00  0.00     0.030 C 
HETATM   31  C25 UNL     1     -30.600  27.603   8.020  1.00  0.00     0.003 C 
HETATM   32  C26 UNL     1     -31.832  27.063   7.303  1.00  0.00     0.030 C 
HETATM   33  C27 UNL     1     -31.663  27.200   5.785  1.00  0.00     0.272 C 
ENDBRANCH  27  28
ENDBRANCH  26  27
ENDBRANCH  23  26
ENDBRANCH   2  19
TORSDOF 9
ENDMDL
