MODEL 1
REMARK VINA RESULT: -6.727148568      0.000      0.000
REMARK  9 active torsions:
REMARK  status: ('A' for Active; 'I' for Inactive)
REMARK    1  A    between atoms: N1_3  and  C4_5 
REMARK    2  A    between atoms: C4_5  and  C5_6 
REMARK    3  A    between atoms: C5_6  and  C6_7 
REMARK    4  A    between atoms: C9_10  and  C10_11 
REMARK    5  A    between atoms: C10_11  and  C11_12 
REMARK    6  A    between atoms: C11_12  and  N2_13 
REMARK    7  A    between atoms: N2_13  and  C14_16 
REMARK    8  A    between atoms: C14_16  and  C15_17 
REMARK    9  A    between atoms: C20_24  and  O1_25 
ROOT
HETATM    1  C1  UNL     1     -27.259  26.205  39.625  1.00  0.00     0.037 C 
HETATM    2  C2  UNL     1     -26.863  25.997  40.747  1.00  0.00    -0.004 C 
HETATM    3  N1  UNL     1     -26.387  25.771  42.033  1.00  0.00    -0.346 N 
HETATM    4  C3  UNL     1     -25.153  25.054  42.216  1.00  0.00     0.160 C 
ENDROOT
BRANCH   3   5
HETATM    5  C4  UNL     1     -27.138  26.262  43.156  1.00  0.00     0.136 C 
BRANCH   5   6
HETATM    6  C5  UNL     1     -28.218  25.366  43.650  1.00  0.00     0.059 C 
BRANCH   6   7
HETATM    7  C6  UNL     1     -29.475  26.019  44.019  1.00  0.00    -0.057 A 
HETATM    8  C7  UNL     1     -30.189  26.709  43.067  1.00  0.00     0.007 A 
HETATM    9  C8  UNL     1     -31.383  27.344  43.352  1.00  0.00     0.007 A 
HETATM   10  C9  UNL     1     -31.891  27.296  44.624  1.00  0.00    -0.057 A 
HETATM   11  C27 UNL     1     -31.208  26.618  45.601  1.00  0.00     0.007 A 
HETATM   12  C28 UNL     1     -30.020  25.991  45.303  1.00  0.00     0.007 A 
BRANCH  10  13
HETATM   13  C10 UNL     1     -33.192  27.990  44.921  1.00  0.00     0.066 C 
BRANCH  13  14
HETATM   14  C11 UNL     1     -32.886  29.449  45.171  1.00  0.00     0.241 C 
BRANCH  14  15
HETATM   15  N2  UNL     1     -33.643  30.354  44.350  1.00  0.00    -0.070 N 
HETATM   16  C12 UNL     1     -34.731  30.869  45.194  1.00  0.00     0.272 C 
HETATM   17  C13 UNL     1     -34.209  29.708  43.183  1.00  0.00     0.272 C 
BRANCH  15  18
HETATM   18  C14 UNL     1     -32.827  31.463  43.974  1.00  0.00     0.282 C 
BRANCH  18  19
HETATM   19  C15 UNL     1     -31.460  31.048  43.544  1.00  0.00     0.011 A 
HETATM   20  C16 UNL     1     -30.367  30.792  44.303  1.00  0.00     0.047 A 
HETATM   21  C17 UNL     1     -29.231  30.430  43.645  1.00  0.00     0.051 A 
HETATM   22  N3  UNL     1     -28.013  30.128  44.209  1.00  0.00    -0.354 N 
HETATM   23  C26 UNL     1     -29.298  30.358  42.284  1.00  0.00     0.033 A 
HETATM   24  C18 UNL     1     -26.971  29.786  43.456  1.00  0.00     0.045 A 
ATOM     25  H3  UNL     1     -27.907  30.166  45.223  1.00  0.00     0.166 HD
HETATM   26  C19 UNL     1     -25.741  29.482  44.038  1.00  0.00     0.067 A 
HETATM   27  C24 UNL     1     -26.998  29.702  42.083  1.00  0.00    -0.008 A 
HETATM   28  C20 UNL     1     -24.633  29.125  43.315  1.00  0.00     0.070 A 
HETATM   29  C22 UNL     1     -24.691  29.050  41.938  1.00  0.00     0.038 A 
HETATM   30  C23 UNL     1     -25.902  29.347  41.330  1.00  0.00     0.016 A 
HETATM   31  C25 UNL     1     -28.202  29.999  41.487  1.00  0.00     0.034 A 
HETATM   32  S1  UNL     1     -30.916  30.789  41.955  1.00  0.00    -0.091 SA
BRANCH  28  33
HETATM   33  O1  UNL     1     -23.413  28.829  43.966  1.00  0.00    -0.356 OA
HETATM   34  C21 UNL     1     -23.122  29.366  45.241  1.00  0.00     0.210 C 
ENDBRANCH  28  33
ENDBRANCH  18  19
ENDBRANCH  15  18
ENDBRANCH  14  15
ENDBRANCH  13  14
ENDBRANCH  10  13
ENDBRANCH   6   7
ENDBRANCH   5   6
ENDBRANCH   3   5
TORSDOF 9
ENDMDL
MODEL 2
REMARK VINA RESULT: -6.353642402      3.627      5.344
REMARK  9 active torsions:
REMARK  status: ('A' for Active; 'I' for Inactive)
REMARK    1  A    between atoms: N1_3  and  C4_5 
REMARK    2  A    between atoms: C4_5  and  C5_6 
REMARK    3  A    between atoms: C5_6  and  C6_7 
REMARK    4  A    between atoms: C9_10  and  C10_11 
REMARK    5  A    between atoms: C10_11  and  C11_12 
REMARK    6  A    between atoms: C11_12  and  N2_13 
REMARK    7  A    between atoms: N2_13  and  C14_16 
REMARK    8  A    between atoms: C14_16  and  C15_17 
REMARK    9  A    between atoms: C20_24  and  O1_25 
ROOT
HETATM    1  C1  UNL     1     -25.357  29.896  41.370  1.00  0.00     0.037 C 
HETATM    2  C2  UNL     1     -25.201  28.700  41.437  1.00  0.00    -0.004 C 
HETATM    3  N1  UNL     1     -25.040  27.323  41.532  1.00  0.00    -0.346 N 
HETATM    4  C3  UNL     1     -24.560  26.749  42.761  1.00  0.00     0.160 C 
ENDROOT
BRANCH   3   5
HETATM    5  C4  UNL     1     -25.359  26.499  40.399  1.00  0.00     0.136 C 
BRANCH   5   6
HETATM    6  C5  UNL     1     -26.774  26.552  39.942  1.00  0.00     0.059 C 
BRANCH   6   7
HETATM    7  C6  UNL     1     -27.791  26.504  40.994  1.00  0.00    -0.057 A 
HETATM    8  C7  UNL     1     -28.557  27.618  41.252  1.00  0.00     0.007 A 
HETATM    9  C8  UNL     1     -29.534  27.635  42.229  1.00  0.00     0.007 A 
HETATM   10  C9  UNL     1     -29.764  26.511  42.980  1.00  0.00    -0.057 A 
HETATM   11  C27 UNL     1     -29.020  25.381  42.752  1.00  0.00     0.007 A 
HETATM   12  C28 UNL     1     -28.050  25.379  41.777  1.00  0.00     0.007 A 
BRANCH  10  13
HETATM   13  C10 UNL     1     -30.831  26.542  44.039  1.00  0.00     0.066 C 
BRANCH  13  14
HETATM   14  C11 UNL     1     -31.739  27.714  43.739  1.00  0.00     0.241 C 
BRANCH  14  15
HETATM   15  N2  UNL     1     -32.488  28.177  44.874  1.00  0.00    -0.070 N 
HETATM   16  C12 UNL     1     -31.541  28.252  45.997  1.00  0.00     0.272 C 
HETATM   17  C13 UNL     1     -33.575  27.284  45.227  1.00  0.00     0.272 C 
BRANCH  15  18
HETATM   18  C14 UNL     1     -32.971  29.497  44.628  1.00  0.00     0.282 C 
BRANCH  18  19
HETATM   19  C15 UNL     1     -32.399  30.093  43.386  1.00  0.00     0.011 A 
HETATM   20  C16 UNL     1     -32.811  29.953  42.103  1.00  0.00     0.047 A 
HETATM   21  C17 UNL     1     -32.096  30.612  41.150  1.00  0.00     0.051 A 
HETATM   22  N3  UNL     1     -32.333  30.612  39.794  1.00  0.00    -0.354 N 
HETATM   23  C26 UNL     1     -31.032  31.353  41.574  1.00  0.00     0.033 A 
HETATM   24  C18 UNL     1     -31.559  31.299  38.960  1.00  0.00     0.045 A 
ATOM     25  H3  UNL     1     -33.117  30.074  39.423  1.00  0.00     0.166 HD
HETATM   26  C19 UNL     1     -31.808  31.291  37.587  1.00  0.00     0.067 A 
HETATM   27  C24 UNL     1     -30.478  32.056  39.347  1.00  0.00    -0.008 A 
HETATM   28  C20 UNL     1     -31.046  31.978  36.680  1.00  0.00     0.070 A 
HETATM   29  C22 UNL     1     -29.967  32.730  37.099  1.00  0.00     0.038 A 
HETATM   30  C23 UNL     1     -29.694  32.757  38.459  1.00  0.00     0.016 A 
HETATM   31  C25 UNL     1     -30.214  32.079  40.697  1.00  0.00     0.034 A 
HETATM   32  S1  UNL     1     -31.049  31.119  43.264  1.00  0.00    -0.091 SA
BRANCH  28  33
HETATM   33  O1  UNL     1     -31.350  31.929  35.300  1.00  0.00    -0.356 OA
HETATM   34  C21 UNL     1     -31.714  30.710  34.680  1.00  0.00     0.210 C 
ENDBRANCH  28  33
ENDBRANCH  18  19
ENDBRANCH  15  18
ENDBRANCH  14  15
ENDBRANCH  13  14
ENDBRANCH  10  13
ENDBRANCH   6   7
ENDBRANCH   5   6
ENDBRANCH   3   5
TORSDOF 9
ENDMDL
MODEL 3
REMARK VINA RESULT: -6.324914792      2.098      3.247
REMARK  9 active torsions:
REMARK  status: ('A' for Active; 'I' for Inactive)
REMARK    1  A    between atoms: N1_3  and  C4_5 
REMARK    2  A    between atoms: C4_5  and  C5_6 
REMARK    3  A    between atoms: C5_6  and  C6_7 
REMARK    4  A    between atoms: C9_10  and  C10_11 
REMARK    5  A    between atoms: C10_11  and  C11_12 
REMARK    6  A    between atoms: C11_12  and  N2_13 
REMARK    7  A    between atoms: N2_13  and  C14_16 
REMARK    8  A    between atoms: C14_16  and  C15_17 
REMARK    9  A    between atoms: C20_24  and  O1_25 
ROOT
HETATM    1  C1  UNL     1     -29.484  25.171  42.953  1.00  0.00     0.037 C 
HETATM    2  C2  UNL     1     -29.209  25.971  43.815  1.00  0.00    -0.004 C 
HETATM    3  N1  UNL     1     -28.909  26.906  44.799  1.00  0.00    -0.346 N 
HETATM    4  C3  UNL     1     -28.385  28.190  44.419  1.00  0.00     0.160 C 
ENDROOT
BRANCH   3   5
HETATM    5  C4  UNL     1     -29.133  26.570  46.179  1.00  0.00     0.136 C 
BRANCH   5   6
HETATM    6  C5  UNL     1     -30.555  26.395  46.577  1.00  0.00     0.059 C 
BRANCH   6   7
HETATM    7  C6  UNL     1     -31.506  27.346  45.998  1.00  0.00    -0.057 A 
HETATM    8  C7  UNL     1     -31.375  28.689  46.269  1.00  0.00     0.007 A 
HETATM    9  C8  UNL     1     -32.238  29.636  45.750  1.00  0.00     0.007 A 
HETATM   10  C9  UNL     1     -33.268  29.244  44.935  1.00  0.00    -0.057 A 
HETATM   11  C27 UNL     1     -33.430  27.914  44.643  1.00  0.00     0.007 A 
HETATM   12  C28 UNL     1     -32.565  26.982  45.166  1.00  0.00     0.007 A 
BRANCH  10  13
HETATM   13  C10 UNL     1     -34.198  30.284  44.376  1.00  0.00     0.066 C 
BRANCH  13  14
HETATM   14  C11 UNL     1     -33.535  30.883  43.156  1.00  0.00     0.241 C 
BRANCH  14  15
HETATM   15  N2  UNL     1     -34.389  30.952  42.002  1.00  0.00    -0.070 N 
HETATM   16  C12 UNL     1     -35.393  31.987  42.288  1.00  0.00     0.272 C 
HETATM   17  C13 UNL     1     -35.061  29.697  41.730  1.00  0.00     0.272 C 
BRANCH  15  18
HETATM   18  C14 UNL     1     -33.635  31.384  40.869  1.00  0.00     0.282 C 
BRANCH  18  19
HETATM   19  C15 UNL     1     -32.201  30.979  40.948  1.00  0.00     0.011 A 
HETATM   20  C16 UNL     1     -31.640  29.770  40.708  1.00  0.00     0.047 A 
HETATM   21  C17 UNL     1     -30.291  29.674  40.860  1.00  0.00     0.051 A 
HETATM   22  N3  UNL     1     -29.517  28.552  40.672  1.00  0.00    -0.354 N 
HETATM   23  C26 UNL     1     -29.628  30.804  41.239  1.00  0.00     0.033 A 
HETATM   24  C18 UNL     1     -28.201  28.584  40.853  1.00  0.00     0.045 A 
ATOM     25  H3  UNL     1     -29.962  27.679  40.388  1.00  0.00     0.166 HD
HETATM   26  C19 UNL     1     -27.426  27.441  40.660  1.00  0.00     0.067 A 
HETATM   27  C24 UNL     1     -27.495  29.702  41.235  1.00  0.00    -0.008 A 
HETATM   28  C20 UNL     1     -26.067  27.413  40.833  1.00  0.00     0.070 A 
HETATM   29  C22 UNL     1     -25.387  28.552  41.216  1.00  0.00     0.038 A 
HETATM   30  C23 UNL     1     -26.131  29.706  41.416  1.00  0.00     0.016 A 
HETATM   31  C25 UNL     1     -28.239  30.843  41.431  1.00  0.00     0.034 A 
HETATM   32  S1  UNL     1     -30.878  31.958  41.374  1.00  0.00    -0.091 SA
BRANCH  28  33
HETATM   33  O1  UNL     1     -25.338  26.220  40.621  1.00  0.00    -0.356 OA
HETATM   34  C21 UNL     1     -24.714  25.551  41.700  1.00  0.00     0.210 C 
ENDBRANCH  28  33
ENDBRANCH  18  19
ENDBRANCH  15  18
ENDBRANCH  14  15
ENDBRANCH  13  14
ENDBRANCH  10  13
ENDBRANCH   6   7
ENDBRANCH   5   6
ENDBRANCH   3   5
TORSDOF 9
ENDMDL
MODEL 4
REMARK VINA RESULT: -6.250332480      3.252      4.870
REMARK  9 active torsions:
REMARK  status: ('A' for Active; 'I' for Inactive)
REMARK    1  A    between atoms: N1_3  and  C4_5 
REMARK    2  A    between atoms: C4_5  and  C5_6 
REMARK    3  A    between atoms: C5_6  and  C6_7 
REMARK    4  A    between atoms: C9_10  and  C10_11 
REMARK    5  A    between atoms: C10_11  and  C11_12 
REMARK    6  A    between atoms: C11_12  and  N2_13 
REMARK    7  A    between atoms: N2_13  and  C14_16 
REMARK    8  A    between atoms: C14_16  and  C15_17 
REMARK    9  A    between atoms: C20_24  and  O1_25 
ROOT
HETATM    1  C1  UNL     1     -25.211  29.720  41.297  1.00  0.00     0.037 C 
HETATM    2  C2  UNL     1     -25.097  28.521  41.394  1.00  0.00    -0.004 C 
HETATM    3  N1  UNL     1     -24.985  27.142  41.521  1.00  0.00    -0.346 N 
HETATM    4  C3  UNL     1     -24.607  26.577  42.789  1.00  0.00     0.160 C 
ENDROOT
BRANCH   3   5
HETATM    5  C4  UNL     1     -25.253  26.307  40.382  1.00  0.00     0.136 C 
BRANCH   5   6
HETATM    6  C5  UNL     1     -26.642  26.366  39.852  1.00  0.00     0.059 C 
BRANCH   6   7
HETATM    7  C6  UNL     1     -27.707  26.467  40.851  1.00  0.00    -0.057 A 
HETATM    8  C7  UNL     1     -28.020  25.373  41.625  1.00  0.00     0.007 A 
HETATM    9  C8  UNL     1     -29.012  25.406  42.587  1.00  0.00     0.007 A 
HETATM   10  C9  UNL     1     -29.722  26.560  42.792  1.00  0.00    -0.057 A 
HETATM   11  C27 UNL     1     -29.439  27.672  42.039  1.00  0.00     0.007 A 
HETATM   12  C28 UNL     1     -28.449  27.625  41.085  1.00  0.00     0.007 A 
BRANCH  10  13
HETATM   13  C10 UNL     1     -30.798  26.583  43.842  1.00  0.00     0.066 C 
BRANCH  13  14
HETATM   14  C11 UNL     1     -30.750  27.936  44.517  1.00  0.00     0.241 C 
BRANCH  14  15
HETATM   15  N2  UNL     1     -31.877  28.205  45.366  1.00  0.00    -0.070 N 
HETATM   16  C12 UNL     1     -31.369  28.198  46.746  1.00  0.00     0.272 C 
HETATM   17  C13 UNL     1     -32.923  27.210  45.238  1.00  0.00     0.272 C 
BRANCH  15  18
HETATM   18  C14 UNL     1     -32.381  29.514  45.099  1.00  0.00     0.282 C 
BRANCH  18  19
HETATM   19  C15 UNL     1     -32.111  29.956  43.700  1.00  0.00     0.011 A 
HETATM   20  C16 UNL     1     -31.157  30.800  43.240  1.00  0.00     0.047 A 
HETATM   21  C17 UNL     1     -31.137  31.036  41.899  1.00  0.00     0.051 A 
HETATM   22  N3  UNL     1     -30.262  31.854  41.219  1.00  0.00    -0.354 N 
HETATM   23  C26 UNL     1     -32.078  30.402  41.143  1.00  0.00     0.033 A 
HETATM   24  C18 UNL     1     -30.345  32.004  39.901  1.00  0.00     0.045 A 
ATOM     25  H3  UNL     1     -29.538  32.353  41.737  1.00  0.00     0.166 HD
HETATM   26  C19 UNL     1     -29.454  32.835  39.221  1.00  0.00     0.067 A 
HETATM   27  C24 UNL     1     -31.278  31.383  39.104  1.00  0.00    -0.008 A 
HETATM   28  C20 UNL     1     -29.490  33.031  37.866  1.00  0.00     0.070 A 
HETATM   29  C22 UNL     1     -30.439  32.392  37.093  1.00  0.00     0.038 A 
HETATM   30  C23 UNL     1     -31.340  31.559  37.740  1.00  0.00     0.016 A 
HETATM   31  C25 UNL     1     -32.168  30.558  39.752  1.00  0.00     0.034 A 
HETATM   32  S1  UNL     1     -32.958  29.503  42.296  1.00  0.00    -0.091 SA
BRANCH  28  33
HETATM   33  O1  UNL     1     -28.558  33.888  37.237  1.00  0.00    -0.356 OA
HETATM   34  C21 UNL     1     -27.897  33.493  36.050  1.00  0.00     0.210 C 
ENDBRANCH  28  33
ENDBRANCH  18  19
ENDBRANCH  15  18
ENDBRANCH  14  15
ENDBRANCH  13  14
ENDBRANCH  10  13
ENDBRANCH   6   7
ENDBRANCH   5   6
ENDBRANCH   3   5
TORSDOF 9
ENDMDL
MODEL 5
REMARK VINA RESULT: -6.207184538      1.680      2.831
REMARK  9 active torsions:
REMARK  status: ('A' for Active; 'I' for Inactive)
REMARK    1  A    between atoms: N1_3  and  C4_5 
REMARK    2  A    between atoms: C4_5  and  C5_6 
REMARK    3  A    between atoms: C5_6  and  C6_7 
REMARK    4  A    between atoms: C9_10  and  C10_11 
REMARK    5  A    between atoms: C10_11  and  C11_12 
REMARK    6  A    between atoms: C11_12  and  N2_13 
REMARK    7  A    between atoms: N2_13  and  C14_16 
REMARK    8  A    between atoms: C14_16  and  C15_17 
REMARK    9  A    between atoms: C20_24  and  O1_25 
ROOT
HETATM    1  C1  UNL     1     -25.383  29.309  41.147  1.00  0.00     0.037 C 
HETATM    2  C2  UNL     1     -25.535  28.111  41.099  1.00  0.00    -0.004 C 
HETATM    3  N1  UNL     1     -25.708  26.733  41.069  1.00  0.00    -0.346 N 
HETATM    4  C3  UNL     1     -24.652  25.876  41.539  1.00  0.00     0.160 C 
ENDROOT
BRANCH   3   5
HETATM    5  C4  UNL     1     -26.943  26.191  40.571  1.00  0.00     0.136 C 
BRANCH   5   6
HETATM    6  C5  UNL     1     -27.536  25.090  41.377  1.00  0.00     0.059 C 
BRANCH   6   7
HETATM    7  C6  UNL     1     -28.385  25.500  42.497  1.00  0.00    -0.057 A 
HETATM    8  C7  UNL     1     -29.679  25.903  42.258  1.00  0.00     0.007 A 
HETATM    9  C8  UNL     1     -30.531  26.299  43.272  1.00  0.00     0.007 A 
HETATM   10  C9  UNL     1     -30.090  26.296  44.570  1.00  0.00    -0.057 A 
HETATM   11  C27 UNL     1     -28.806  25.901  44.848  1.00  0.00     0.007 A 
HETATM   12  C28 UNL     1     -27.969  25.510  43.828  1.00  0.00     0.007 A 
BRANCH  10  13
HETATM   13  C10 UNL     1     -31.026  26.727  45.664  1.00  0.00     0.066 C 
BRANCH  13  14
HETATM   14  C11 UNL     1     -30.767  28.192  45.938  1.00  0.00     0.241 C 
BRANCH  14  15
HETATM   15  N2  UNL     1     -31.710  29.079  45.315  1.00  0.00    -0.070 N 
HETATM   16  C12 UNL     1     -31.976  30.151  46.286  1.00  0.00     0.272 C 
HETATM   17  C13 UNL     1     -32.956  28.421  44.978  1.00  0.00     0.272 C 
BRANCH  15  18
HETATM   18  C14 UNL     1     -31.120  29.679  44.162  1.00  0.00     0.282 C 
BRANCH  18  19
HETATM   19  C15 UNL     1     -29.697  30.069  44.385  1.00  0.00     0.011 A 
HETATM   20  C16 UNL     1     -28.579  29.309  44.299  1.00  0.00     0.047 A 
HETATM   21  C17 UNL     1     -27.393  29.924  44.560  1.00  0.00     0.051 A 
HETATM   22  N3  UNL     1     -26.143  29.350  44.533  1.00  0.00    -0.354 N 
HETATM   23  C26 UNL     1     -27.439  31.249  44.884  1.00  0.00     0.033 A 
HETATM   24  C18 UNL     1     -25.053  30.060  44.810  1.00  0.00     0.045 A 
ATOM     25  H3  UNL     1     -26.051  28.362  44.297  1.00  0.00     0.166 HD
HETATM   26  C19 UNL     1     -23.790  29.468  44.780  1.00  0.00     0.067 A 
HETATM   27  C24 UNL     1     -25.057  31.395  45.140  1.00  0.00    -0.008 A 
HETATM   28  C20 UNL     1     -22.633  30.146  45.056  1.00  0.00     0.070 A 
HETATM   29  C22 UNL     1     -22.670  31.487  45.385  1.00  0.00     0.038 A 
HETATM   30  C23 UNL     1     -23.912  32.104  45.422  1.00  0.00     0.016 A 
HETATM   31  C25 UNL     1     -26.292  32.001  45.176  1.00  0.00     0.034 A 
HETATM   32  S1  UNL     1     -29.107  31.604  44.819  1.00  0.00    -0.091 SA
BRANCH  28  33
HETATM   33  O1  UNL     1     -21.383  29.488  45.009  1.00  0.00    -0.356 OA
HETATM   34  C21 UNL     1     -20.702  29.139  46.199  1.00  0.00     0.210 C 
ENDBRANCH  28  33
ENDBRANCH  18  19
ENDBRANCH  15  18
ENDBRANCH  14  15
ENDBRANCH  13  14
ENDBRANCH  10  13
ENDBRANCH   6   7
ENDBRANCH   5   6
ENDBRANCH   3   5
TORSDOF 9
ENDMDL
