MODEL 1
REMARK VINA RESULT: -7.167134702      0.000      0.000
REMARK  8 active torsions:
REMARK  status: ('A' for Active; 'I' for Inactive)
REMARK    1  A    between atoms: O1_2  and  C2_3 
REMARK    2  A    between atoms: C6_7  and  N1_8 
REMARK    3  A    between atoms: N1_8  and  C7_9 
REMARK       I    between atoms: N1_8  and  C10_13 
REMARK    4  A    between atoms: C7_9  and  C8_10 
REMARK    5  A    between atoms: C10_13  and  C11_15 
REMARK    6  A    between atoms: C14_18  and  C15_19 
REMARK    7  A    between atoms: C15_19  and  N3_20 
REMARK    8  A    between atoms: C18_23  and  C19_24 
ROOT
HETATM    1  C8  UNL     1     -25.938  31.323  42.294  1.00  0.00     0.144 C 
HETATM    2  C9  UNL     1     -24.968  32.374  42.614  1.00  0.00     0.060 C 
HETATM    3  N2  UNL     1     -24.224  33.207  42.855  1.00  0.00    -0.197 NA
ENDROOT
BRANCH   1   4
HETATM    4  C7  UNL     1     -26.026  30.359  43.453  1.00  0.00     0.146 C 
BRANCH   4   5
HETATM    5  N1  UNL     1     -25.469  29.082  43.106  1.00  0.00    -0.312 N 
HETATM    6  C10 UNL     1     -24.222  28.579  43.516  1.00  0.00     0.275 C 
HETATM    7  O2  UNL     1     -23.911  27.416  43.066  1.00  0.00    -0.265 OA
BRANCH   5   8
HETATM    8  C6  UNL     1     -26.276  28.235  42.236  1.00  0.00     0.040 A 
HETATM    9  C5  UNL     1     -25.703  27.843  41.054  1.00  0.00     0.030 A 
HETATM   10  C4  UNL     1     -26.454  27.027  40.198  1.00  0.00     0.005 A 
HETATM   11  C3  UNL     1     -27.739  26.639  40.555  1.00  0.00     0.037 A 
HETATM   12  C2  UNL     1     -28.310  27.035  41.745  1.00  0.00     0.070 A 
HETATM   13  C29 UNL     1     -27.539  27.846  42.576  1.00  0.00     0.066 A 
BRANCH  12  14
HETATM   14  O1  UNL     1     -29.591  26.655  42.113  1.00  0.00    -0.356 OA
HETATM   15  C1  UNL     1     -29.883  25.571  42.935  1.00  0.00     0.210 C 
ENDBRANCH  12  14
ENDBRANCH   5   8
BRANCH   6  16
HETATM   16  C11 UNL     1     -23.298  29.251  44.379  1.00  0.00     0.101 A 
HETATM   17  C12 UNL     1     -22.986  28.624  45.596  1.00  0.00     0.036 A 
HETATM   18  C13 UNL     1     -22.111  29.241  46.435  1.00  0.00     0.012 A 
HETATM   19  C14 UNL     1     -21.538  30.444  46.122  1.00  0.00    -0.025 A 
HETATM   20  C28 UNL     1     -21.845  31.059  44.927  1.00  0.00     0.097 A 
HETATM   21  N4  UNL     1     -22.706  30.425  44.130  1.00  0.00    -0.361 N 
ATOM     22  H4  UNL     1     -22.934  30.878  43.246  1.00  0.00     0.165 HD
BRANCH  19  23
HETATM   23  C15 UNL     1     -20.581  31.126  47.031  1.00  0.00     0.167 C 
BRANCH  23  24
HETATM   24  N3  UNL     1     -20.002  30.178  47.972  1.00  0.00    -0.362 N 
HETATM   25  C16 UNL     1     -20.441  30.030  49.233  1.00  0.00     0.091 A 
HETATM   26  C17 UNL     1     -19.885  29.126  50.114  1.00  0.00     0.029 A 
HETATM   27  C18 UNL     1     -18.830  28.322  49.723  1.00  0.00    -0.023 A 
HETATM   28  C26 UNL     1     -18.376  28.472  48.430  1.00  0.00     0.029 A 
HETATM   29  C27 UNL     1     -18.966  29.389  47.587  1.00  0.00     0.091 A 
BRANCH  27  30
HETATM   30  C19 UNL     1     -18.232  27.368  50.634  1.00  0.00    -0.026 A 
HETATM   31  C20 UNL     1     -18.873  26.974  51.789  1.00  0.00     0.013 A 
HETATM   32  C21 UNL     1     -18.296  26.060  52.656  1.00  0.00     0.007 A 
HETATM   33  C22 UNL     1     -17.061  25.519  52.386  1.00  0.00    -0.062 A 
HETATM   34  C23 UNL     1     -16.430  24.539  53.307  1.00  0.00     0.048 C 
HETATM   35  C24 UNL     1     -16.400  25.900  51.234  1.00  0.00     0.007 A 
HETATM   36  C25 UNL     1     -16.986  26.811  50.379  1.00  0.00     0.013 A 
ENDBRANCH  27  30
ENDBRANCH  23  24
ENDBRANCH  19  23
ENDBRANCH   6  16
ENDBRANCH   4   5
ENDBRANCH   1   4
TORSDOF 8
ENDMDL
MODEL 2
REMARK VINA RESULT: -7.164300661      0.796      1.398
REMARK  8 active torsions:
REMARK  status: ('A' for Active; 'I' for Inactive)
REMARK    1  A    between atoms: O1_2  and  C2_3 
REMARK    2  A    between atoms: C6_7  and  N1_8 
REMARK    3  A    between atoms: N1_8  and  C7_9 
REMARK       I    between atoms: N1_8  and  C10_13 
REMARK    4  A    between atoms: C7_9  and  C8_10 
REMARK    5  A    between atoms: C10_13  and  C11_15 
REMARK    6  A    between atoms: C14_18  and  C15_19 
REMARK    7  A    between atoms: C15_19  and  N3_20 
REMARK    8  A    between atoms: C18_23  and  C19_24 
ROOT
HETATM    1  C8  UNL     1     -26.423  30.908  43.502  1.00  0.00     0.144 C 
HETATM    2  C9  UNL     1     -25.750  31.889  44.358  1.00  0.00     0.060 C 
HETATM    3  N2  UNL     1     -25.235  32.646  45.041  1.00  0.00    -0.197 NA
ENDROOT
BRANCH   1   4
HETATM    4  C7  UNL     1     -25.446  30.397  42.470  1.00  0.00     0.146 C 
BRANCH   4   5
HETATM    5  N1  UNL     1     -25.180  28.998  42.660  1.00  0.00    -0.312 N 
HETATM    6  C10 UNL     1     -24.203  28.444  43.504  1.00  0.00     0.275 C 
HETATM    7  O2  UNL     1     -24.122  27.161  43.503  1.00  0.00    -0.265 OA
BRANCH   5   8
HETATM    8  C6  UNL     1     -26.002  28.070  41.893  1.00  0.00     0.040 A 
HETATM    9  C5  UNL     1     -25.455  27.571  40.740  1.00  0.00     0.030 A 
HETATM   10  C4  UNL     1     -26.221  26.675  39.983  1.00  0.00     0.005 A 
HETATM   11  C3  UNL     1     -27.495  26.318  40.404  1.00  0.00     0.037 A 
HETATM   12  C2  UNL     1     -28.041  26.822  41.565  1.00  0.00     0.070 A 
HETATM   13  C29 UNL     1     -27.255  27.710  42.298  1.00  0.00     0.066 A 
BRANCH  12  14
HETATM   14  O1  UNL     1     -29.310  26.474  41.998  1.00  0.00    -0.356 OA
HETATM   15  C1  UNL     1     -29.585  25.414  42.856  1.00  0.00     0.210 C 
ENDBRANCH  12  14
ENDBRANCH   5   8
BRANCH   6  16
HETATM   16  C11 UNL     1     -23.313  29.187  44.344  1.00  0.00     0.101 A 
HETATM   17  C12 UNL     1     -22.950  28.602  45.569  1.00  0.00     0.036 A 
HETATM   18  C13 UNL     1     -22.106  29.287  46.386  1.00  0.00     0.012 A 
HETATM   19  C14 UNL     1     -21.611  30.517  46.046  1.00  0.00    -0.025 A 
HETATM   20  C28 UNL     1     -21.968  31.090  44.844  1.00  0.00     0.097 A 
HETATM   21  N4  UNL     1     -22.796  30.391  44.068  1.00  0.00    -0.361 N 
ATOM     22  H4  UNL     1     -23.061  30.813  43.179  1.00  0.00     0.165 HD
BRANCH  19  23
HETATM   23  C15 UNL     1     -20.689  31.272  46.932  1.00  0.00     0.167 C 
BRANCH  23  24
HETATM   24  N3  UNL     1     -20.145  30.405  47.966  1.00  0.00    -0.362 N 
HETATM   25  C16 UNL     1     -19.008  29.703  47.819  1.00  0.00     0.091 A 
HETATM   26  C17 UNL     1     -18.503  28.886  48.809  1.00  0.00     0.029 A 
HETATM   27  C18 UNL     1     -19.163  28.755  50.016  1.00  0.00    -0.023 A 
HETATM   28  C26 UNL     1     -20.331  29.471  50.171  1.00  0.00     0.029 A 
HETATM   29  C27 UNL     1     -20.795  30.275  49.152  1.00  0.00     0.091 A 
BRANCH  27  30
HETATM   30  C19 UNL     1     -18.649  27.900  51.067  1.00  0.00    -0.026 A 
HETATM   31  C20 UNL     1     -17.518  27.134  50.884  1.00  0.00     0.013 A 
HETATM   32  C21 UNL     1     -17.030  26.320  51.893  1.00  0.00     0.007 A 
HETATM   33  C22 UNL     1     -17.666  26.253  53.111  1.00  0.00    -0.062 A 
HETATM   34  C23 UNL     1     -17.155  25.384  54.201  1.00  0.00     0.048 C 
HETATM   35  C24 UNL     1     -18.802  27.013  53.316  1.00  0.00     0.007 A 
HETATM   36  C25 UNL     1     -19.277  27.819  52.303  1.00  0.00     0.013 A 
ENDBRANCH  27  30
ENDBRANCH  23  24
ENDBRANCH  19  23
ENDBRANCH   6  16
ENDBRANCH   4   5
ENDBRANCH   1   4
TORSDOF 8
ENDMDL
MODEL 3
REMARK VINA RESULT: -7.133851637      1.702      2.868
REMARK  8 active torsions:
REMARK  status: ('A' for Active; 'I' for Inactive)
REMARK    1  A    between atoms: O1_2  and  C2_3 
REMARK    2  A    between atoms: C6_7  and  N1_8 
REMARK    3  A    between atoms: N1_8  and  C7_9 
REMARK       I    between atoms: N1_8  and  C10_13 
REMARK    4  A    between atoms: C7_9  and  C8_10 
REMARK    5  A    between atoms: C10_13  and  C11_15 
REMARK    6  A    between atoms: C14_18  and  C15_19 
REMARK    7  A    between atoms: C15_19  and  N3_20 
REMARK    8  A    between atoms: C18_23  and  C19_24 
ROOT
HETATM    1  C8  UNL     1     -25.968  27.879  40.985  1.00  0.00     0.144 C 
HETATM    2  C9  UNL     1     -25.010  27.158  41.827  1.00  0.00     0.060 C 
HETATM    3  N2  UNL     1     -24.256  26.587  42.468  1.00  0.00    -0.197 NA
ENDROOT
BRANCH   1   4
HETATM    4  C7  UNL     1     -26.125  29.289  41.506  1.00  0.00     0.146 C 
BRANCH   4   5
HETATM    5  N1  UNL     1     -26.850  29.303  42.745  1.00  0.00    -0.312 N 
HETATM    6  C10 UNL     1     -26.314  29.544  44.021  1.00  0.00     0.275 C 
HETATM    7  O2  UNL     1     -27.145  29.486  44.999  1.00  0.00    -0.265 OA
BRANCH   5   8
HETATM    8  C6  UNL     1     -28.280  29.032  42.664  1.00  0.00     0.040 A 
HETATM    9  C5  UNL     1     -29.107  30.120  42.546  1.00  0.00     0.030 A 
HETATM   10  C4  UNL     1     -30.487  29.891  42.465  1.00  0.00     0.005 A 
HETATM   11  C3  UNL     1     -30.982  28.595  42.504  1.00  0.00     0.037 A 
HETATM   12  C2  UNL     1     -30.147  27.504  42.622  1.00  0.00     0.070 A 
HETATM   13  C29 UNL     1     -28.779  27.762  42.701  1.00  0.00     0.066 A 
BRANCH  12  14
HETATM   14  O1  UNL     1     -30.627  26.205  42.662  1.00  0.00    -0.356 OA
HETATM   15  C1  UNL     1     -29.850  25.088  42.952  1.00  0.00     0.210 C 
ENDBRANCH  12  14
ENDBRANCH   5   8
BRANCH   6  16
HETATM   16  C11 UNL     1     -24.942  29.843  44.302  1.00  0.00     0.101 A 
HETATM   17  C12 UNL     1     -24.568  31.197  44.298  1.00  0.00     0.036 A 
HETATM   18  C13 UNL     1     -23.271  31.509  44.562  1.00  0.00     0.012 A 
HETATM   19  C14 UNL     1     -22.335  30.545  44.826  1.00  0.00    -0.025 A 
HETATM   20  C28 UNL     1     -22.703  29.217  44.830  1.00  0.00     0.097 A 
HETATM   21  N4  UNL     1     -23.983  28.948  44.568  1.00  0.00    -0.361 N 
ATOM     22  H4  UNL     1     -24.257  27.966  44.570  1.00  0.00     0.165 HD
BRANCH  19  23
HETATM   23  C15 UNL     1     -20.916  30.876  45.116  1.00  0.00     0.167 C 
BRANCH  23  24
HETATM   24  N3  UNL     1     -20.440  30.126  46.268  1.00  0.00    -0.362 N 
HETATM   25  C16 UNL     1     -19.541  29.131  46.181  1.00  0.00     0.091 A 
HETATM   26  C17 UNL     1     -19.096  28.430  47.282  1.00  0.00     0.029 A 
HETATM   27  C18 UNL     1     -19.571  28.730  48.546  1.00  0.00    -0.023 A 
HETATM   28  C26 UNL     1     -20.495  29.749  48.639  1.00  0.00     0.029 A 
HETATM   29  C27 UNL     1     -20.908  30.421  47.509  1.00  0.00     0.091 A 
BRANCH  27  30
HETATM   30  C19 UNL     1     -19.118  28.004  49.714  1.00  0.00    -0.026 A 
HETATM   31  C20 UNL     1     -19.819  28.037  50.900  1.00  0.00     0.013 A 
HETATM   32  C21 UNL     1     -19.381  27.339  52.014  1.00  0.00     0.007 A 
HETATM   33  C22 UNL     1     -18.228  26.590  51.965  1.00  0.00    -0.062 A 
HETATM   34  C23 UNL     1     -17.747  25.837  53.151  1.00  0.00     0.048 C 
HETATM   35  C24 UNL     1     -17.509  26.543  50.785  1.00  0.00     0.007 A 
HETATM   36  C25 UNL     1     -17.957  27.242  49.684  1.00  0.00     0.013 A 
ENDBRANCH  27  30
ENDBRANCH  23  24
ENDBRANCH  19  23
ENDBRANCH   6  16
ENDBRANCH   4   5
ENDBRANCH   1   4
TORSDOF 8
ENDMDL
MODEL 4
REMARK VINA RESULT: -7.119707578      3.046      5.637
REMARK  8 active torsions:
REMARK  status: ('A' for Active; 'I' for Inactive)
REMARK    1  A    between atoms: O1_2  and  C2_3 
REMARK    2  A    between atoms: C6_7  and  N1_8 
REMARK    3  A    between atoms: N1_8  and  C7_9 
REMARK       I    between atoms: N1_8  and  C10_13 
REMARK    4  A    between atoms: C7_9  and  C8_10 
REMARK    5  A    between atoms: C10_13  and  C11_15 
REMARK    6  A    between atoms: C14_18  and  C15_19 
REMARK    7  A    between atoms: C15_19  and  N3_20 
REMARK    8  A    between atoms: C18_23  and  C19_24 
ROOT
HETATM    1  C8  UNL     1     -29.765  26.236  42.818  1.00  0.00     0.144 C 
HETATM    2  C9  UNL     1     -28.572  25.840  43.571  1.00  0.00     0.060 C 
HETATM    3  N2  UNL     1     -27.639  25.516  44.145  1.00  0.00    -0.197 NA
ENDROOT
BRANCH   1   4
HETATM    4  C7  UNL     1     -29.785  27.739  42.672  1.00  0.00     0.146 C 
BRANCH   4   5
HETATM    5  N1  UNL     1     -30.289  28.367  43.861  1.00  0.00    -0.312 N 
HETATM    6  C10 UNL     1     -29.576  29.226  44.714  1.00  0.00     0.275 C 
HETATM    7  O2  UNL     1     -30.219  29.659  45.739  1.00  0.00    -0.265 OA
BRANCH   5   8
HETATM    8  C6  UNL     1     -31.672  28.073  44.215  1.00  0.00     0.040 A 
HETATM    9  C5  UNL     1     -31.873  27.079  45.138  1.00  0.00     0.030 A 
HETATM   10  C4  UNL     1     -33.192  26.775  45.499  1.00  0.00     0.005 A 
HETATM   11  C3  UNL     1     -34.249  27.470  44.927  1.00  0.00     0.037 A 
HETATM   12  C2  UNL     1     -34.042  28.469  44.000  1.00  0.00     0.070 A 
HETATM   13  C29 UNL     1     -32.720  28.749  43.660  1.00  0.00     0.066 A 
BRANCH  12  14
HETATM   14  O1  UNL     1     -35.088  29.170  43.422  1.00  0.00    -0.356 OA
HETATM   15  C1  UNL     1     -34.964  29.981  42.298  1.00  0.00     0.210 C 
ENDBRANCH  12  14
ENDBRANCH   5   8
BRANCH   6  16
HETATM   16  C11 UNL     1     -28.220  29.645  44.527  1.00  0.00     0.101 A 
HETATM   17  C12 UNL     1     -27.933  31.003  44.745  1.00  0.00     0.036 A 
HETATM   18  C13 UNL     1     -26.652  31.428  44.574  1.00  0.00     0.012 A 
HETATM   19  C14 UNL     1     -25.652  30.572  44.199  1.00  0.00    -0.025 A 
HETATM   20  C28 UNL     1     -25.935  29.240  43.985  1.00  0.00     0.097 A 
HETATM   21  N4  UNL     1     -27.200  28.859  44.163  1.00  0.00    -0.361 N 
ATOM     22  H4  UNL     1     -27.411  27.874  44.006  1.00  0.00     0.165 HD
BRANCH  19  23
HETATM   23  C15 UNL     1     -24.250  31.026  44.010  1.00  0.00     0.167 C 
BRANCH  23  24
HETATM   24  N3  UNL     1     -23.395  30.503  45.066  1.00  0.00    -0.362 N 
HETATM   25  C16 UNL     1     -22.381  29.652  44.840  1.00  0.00     0.091 A 
HETATM   26  C17 UNL     1     -21.576  29.166  45.850  1.00  0.00     0.029 A 
HETATM   27  C18 UNL     1     -21.791  29.544  47.162  1.00  0.00    -0.023 A 
HETATM   28  C26 UNL     1     -22.832  30.417  47.399  1.00  0.00     0.029 A 
HETATM   29  C27 UNL     1     -23.607  30.875  46.355  1.00  0.00     0.091 A 
BRANCH  27  30
HETATM   30  C19 UNL     1     -20.959  29.043  48.236  1.00  0.00    -0.026 A 
HETATM   31  C20 UNL     1     -19.684  28.572  48.002  1.00  0.00     0.013 A 
HETATM   32  C21 UNL     1     -18.893  28.096  49.034  1.00  0.00     0.007 A 
HETATM   33  C22 UNL     1     -19.359  28.079  50.327  1.00  0.00    -0.062 A 
HETATM   34  C23 UNL     1     -18.522  27.571  51.443  1.00  0.00     0.048 C 
HETATM   35  C24 UNL     1     -20.634  28.547  50.586  1.00  0.00     0.007 A 
HETATM   36  C25 UNL     1     -21.412  29.019  49.549  1.00  0.00     0.013 A 
ENDBRANCH  27  30
ENDBRANCH  23  24
ENDBRANCH  19  23
ENDBRANCH   6  16
ENDBRANCH   4   5
ENDBRANCH   1   4
TORSDOF 8
ENDMDL
MODEL 5
REMARK VINA RESULT: -7.094287638      5.874      9.603
REMARK  8 active torsions:
REMARK  status: ('A' for Active; 'I' for Inactive)
REMARK    1  A    between atoms: O1_2  and  C2_3 
REMARK    2  A    between atoms: C6_7  and  N1_8 
REMARK    3  A    between atoms: N1_8  and  C7_9 
REMARK       I    between atoms: N1_8  and  C10_13 
REMARK    4  A    between atoms: C7_9  and  C8_10 
REMARK    5  A    between atoms: C10_13  and  C11_15 
REMARK    6  A    between atoms: C14_18  and  C15_19 
REMARK    7  A    between atoms: C15_19  and  N3_20 
REMARK    8  A    between atoms: C18_23  and  C19_24 
ROOT
HETATM    1  C8  UNL     1     -24.711  29.790  43.226  1.00  0.00     0.144 C 
HETATM    2  C9  UNL     1     -24.011  28.721  43.944  1.00  0.00     0.060 C 
HETATM    3  N2  UNL     1     -23.476  27.891  44.519  1.00  0.00    -0.197 NA
ENDROOT
BRANCH   1   4
HETATM    4  C7  UNL     1     -24.944  29.359  41.797  1.00  0.00     0.146 C 
BRANCH   4   5
HETATM    5  N1  UNL     1     -26.344  29.183  41.532  1.00  0.00    -0.312 N 
HETATM    6  C10 UNL     1     -27.285  30.204  41.317  1.00  0.00     0.275 C 
HETATM    7  O2  UNL     1     -28.495  29.819  41.120  1.00  0.00    -0.265 OA
BRANCH   5   8
HETATM    8  C6  UNL     1     -26.830  27.809  41.494  1.00  0.00     0.040 A 
HETATM    9  C5  UNL     1     -26.735  27.156  40.292  1.00  0.00     0.030 A 
HETATM   10  C4  UNL     1     -27.193  25.834  40.224  1.00  0.00     0.005 A 
HETATM   11  C3  UNL     1     -27.726  25.222  41.351  1.00  0.00     0.037 A 
HETATM   12  C2  UNL     1     -27.819  25.883  42.557  1.00  0.00     0.070 A 
HETATM   13  C29 UNL     1     -27.355  27.197  42.595  1.00  0.00     0.066 A 
BRANCH  12  14
HETATM   14  O1  UNL     1     -28.348  25.284  43.690  1.00  0.00    -0.356 OA
HETATM   15  C1  UNL     1     -29.001  25.970  44.709  1.00  0.00     0.210 C 
ENDBRANCH  12  14
ENDBRANCH   5   8
BRANCH   6  16
HETATM   16  C11 UNL     1     -26.999  31.607  41.301  1.00  0.00     0.101 A 
HETATM   17  C12 UNL     1     -26.570  32.159  40.082  1.00  0.00     0.036 A 
HETATM   18  C13 UNL     1     -26.291  33.489  40.038  1.00  0.00     0.012 A 
HETATM   19  C14 UNL     1     -26.418  34.290  41.141  1.00  0.00    -0.025 A 
HETATM   20  C28 UNL     1     -26.839  33.747  42.337  1.00  0.00     0.097 A 
HETATM   21  N4  UNL     1     -27.104  32.441  42.342  1.00  0.00    -0.361 N 
ATOM     22  H4  UNL     1     -27.416  32.038  43.225  1.00  0.00     0.165 HD
BRANCH  19  23
HETATM   23  C15 UNL     1     -26.116  35.744  41.104  1.00  0.00     0.167 C 
BRANCH  23  24
HETATM   24  N3  UNL     1     -24.720  35.970  40.764  1.00  0.00    -0.362 N 
HETATM   25  C16 UNL     1     -24.323  36.553  39.621  1.00  0.00     0.091 A 
HETATM   26  C17 UNL     1     -22.995  36.764  39.313  1.00  0.00     0.029 A 
HETATM   27  C18 UNL     1     -22.000  36.371  40.189  1.00  0.00    -0.023 A 
HETATM   28  C26 UNL     1     -22.402  35.771  41.362  1.00  0.00     0.029 A 
HETATM   29  C27 UNL     1     -23.743  35.584  41.625  1.00  0.00     0.091 A 
BRANCH  27  30
HETATM   30  C19 UNL     1     -20.600  36.582  39.882  1.00  0.00    -0.026 A 
HETATM   31  C20 UNL     1     -20.204  37.267  38.753  1.00  0.00     0.013 A 
HETATM   32  C21 UNL     1     -18.864  37.466  38.466  1.00  0.00     0.007 A 
HETATM   33  C22 UNL     1     -17.887  36.983  39.304  1.00  0.00    -0.062 A 
HETATM   34  C23 UNL     1     -16.446  37.189  39.008  1.00  0.00     0.048 C 
HETATM   35  C24 UNL     1     -18.261  36.293  40.442  1.00  0.00     0.007 A 
HETATM   36  C25 UNL     1     -19.599  36.102  40.716  1.00  0.00     0.013 A 
ENDBRANCH  27  30
ENDBRANCH  23  24
ENDBRANCH  19  23
ENDBRANCH   6  16
ENDBRANCH   4   5
ENDBRANCH   1   4
TORSDOF 8
ENDMDL
