MODEL 1
REMARK VINA RESULT: -6.854614169      0.000      0.000
REMARK  9 active torsions:
REMARK  status: ('A' for Active; 'I' for Inactive)
REMARK    1  A    between atoms: C2_2  and  S1_3 
REMARK    2  A    between atoms: S1_3  and  C3_4 
REMARK    3  A    between atoms: C6_7  and  C7_8 
REMARK    4  A    between atoms: C7_8  and  N1_9 
REMARK    5  A    between atoms: N1_9  and  C8_10 
REMARK    6  A    between atoms: N1_9  and  C16_23 
REMARK    7  A    between atoms: N2_11  and  S2_13 
REMARK    8  A    between atoms: S2_13  and  C9_16 
REMARK    9  A    between atoms: C19_26  and  O3_27 
ROOT
HETATM    1  N1  UNL     1     -30.616  30.518  41.286  1.00  0.00    -0.338 N 
ENDROOT
BRANCH   1   2
HETATM    2  C7  UNL     1     -29.237  30.854  41.220  1.00  0.00     0.168 C 
BRANCH   2   3
HETATM    3  C6  UNL     1     -28.315  29.703  41.043  1.00  0.00    -0.040 A 
HETATM    4  C5  UNL     1     -28.681  28.491  40.501  1.00  0.00     0.010 A 
HETATM    5  C4  UNL     1     -27.783  27.435  40.354  1.00  0.00     0.019 A 
HETATM    6  C3  UNL     1     -26.470  27.567  40.753  1.00  0.00     0.000 A 
HETATM    7  C24 UNL     1     -26.101  28.781  41.296  1.00  0.00     0.019 A 
HETATM    8  C23 UNL     1     -26.988  29.827  41.442  1.00  0.00     0.010 A 
BRANCH   6   9
HETATM    9  S1  UNL     1     -25.287  26.240  40.578  1.00  0.00    -0.130 SA
BRANCH   9  10
HETATM   10  C2  UNL     1     -25.042  25.359  42.135  1.00  0.00     0.075 C 
HETATM   11  C1  UNL     1     -26.351  25.426  42.910  1.00  0.00     0.016 C 
ENDBRANCH   9  10
ENDBRANCH   6   9
ENDBRANCH   2   3
ENDBRANCH   1   2
BRANCH   1  12
HETATM   12  C8  UNL     1     -31.125  29.841  42.423  1.00  0.00     0.195 C 
HETATM   13  N2  UNL     1     -30.823  30.201  43.624  1.00  0.00    -0.276 N 
ATOM     14  H2  UNL     1     -30.200  30.997  43.757  1.00  0.00     0.179 HD
BRANCH  13  15
HETATM   15  S2  UNL     1     -31.435  29.387  45.013  1.00  0.00     0.263 S 
HETATM   16  O1  UNL     1     -31.404  30.353  46.168  1.00  0.00    -0.200 OA
HETATM   17  O2  UNL     1     -32.892  29.014  44.809  1.00  0.00    -0.200 OA
BRANCH  15  18
HETATM   18  C9  UNL     1     -30.523  27.940  45.369  1.00  0.00     0.079 A 
HETATM   19  C10 UNL     1     -30.180  27.097  44.332  1.00  0.00     0.026 A 
HETATM   20  C11 UNL     1     -29.453  25.952  44.646  1.00  0.00     0.008 A 
HETATM   21  C12 UNL     1     -29.073  25.643  45.934  1.00  0.00    -0.062 A 
HETATM   22  C13 UNL     1     -28.294  24.409  46.230  1.00  0.00     0.048 C 
HETATM   23  C14 UNL     1     -29.423  26.493  46.948  1.00  0.00     0.008 A 
HETATM   24  C15 UNL     1     -30.150  27.644  46.661  1.00  0.00     0.026 A 
ENDBRANCH  15  18
ENDBRANCH  13  15
ENDBRANCH   1  12
BRANCH   1  25
HETATM   25  C16 UNL     1     -31.530  30.836  40.246  1.00  0.00     0.035 A 
HETATM   26  C17 UNL     1     -32.893  30.930  40.441  1.00  0.00     0.032 A 
HETATM   27  C18 UNL     1     -33.764  31.247  39.410  1.00  0.00     0.039 A 
HETATM   28  C19 UNL     1     -33.293  31.484  38.138  1.00  0.00     0.068 A 
HETATM   29  C21 UNL     1     -31.933  31.392  37.931  1.00  0.00     0.039 A 
HETATM   30  C22 UNL     1     -31.069  31.076  38.959  1.00  0.00     0.032 A 
BRANCH  28  31
HETATM   31  O3  UNL     1     -34.152  31.806  37.083  1.00  0.00    -0.356 OA
HETATM   32  C20 UNL     1     -33.722  31.942  35.764  1.00  0.00     0.210 C 
ENDBRANCH  28  31
ENDBRANCH   1  25
TORSDOF 9
ENDMDL
MODEL 2
REMARK VINA RESULT: -6.436462471      3.121      5.854
REMARK  9 active torsions:
REMARK  status: ('A' for Active; 'I' for Inactive)
REMARK    1  A    between atoms: C2_2  and  S1_3 
REMARK    2  A    between atoms: S1_3  and  C3_4 
REMARK    3  A    between atoms: C6_7  and  C7_8 
REMARK    4  A    between atoms: C7_8  and  N1_9 
REMARK    5  A    between atoms: N1_9  and  C8_10 
REMARK    6  A    between atoms: N1_9  and  C16_23 
REMARK    7  A    between atoms: N2_11  and  S2_13 
REMARK    8  A    between atoms: S2_13  and  C9_16 
REMARK    9  A    between atoms: C19_26  and  O3_27 
ROOT
HETATM    1  N1  UNL     1     -32.124  28.161  43.885  1.00  0.00    -0.338 N 
ENDROOT
BRANCH   1   2
HETATM    2  C7  UNL     1     -31.558  26.962  44.395  1.00  0.00     0.168 C 
BRANCH   2   3
HETATM    3  C6  UNL     1     -30.225  26.610  43.844  1.00  0.00    -0.040 A 
HETATM    4  C5  UNL     1     -29.052  27.243  44.185  1.00  0.00     0.010 A 
HETATM    5  C4  UNL     1     -27.820  26.881  43.641  1.00  0.00     0.019 A 
HETATM    6  C3  UNL     1     -27.729  25.855  42.724  1.00  0.00     0.000 A 
HETATM    7  C24 UNL     1     -28.904  25.219  42.381  1.00  0.00     0.019 A 
HETATM    8  C23 UNL     1     -30.124  25.576  42.918  1.00  0.00     0.010 A 
BRANCH   6   9
HETATM    9  S1  UNL     1     -26.170  25.358  42.007  1.00  0.00    -0.130 SA
BRANCH   9  10
HETATM   10  C2  UNL     1     -25.802  26.291  40.506  1.00  0.00     0.075 C 
HETATM   11  C1  UNL     1     -27.013  26.181  39.590  1.00  0.00     0.016 C 
ENDBRANCH   9  10
ENDBRANCH   6   9
ENDBRANCH   2   3
ENDBRANCH   1   2
BRANCH   1  12
HETATM   12  C8  UNL     1     -31.422  28.915  42.911  1.00  0.00     0.195 C 
HETATM   13  N2  UNL     1     -31.806  28.970  41.681  1.00  0.00    -0.276 N 
ATOM     14  H2  UNL     1     -32.641  28.454  41.404  1.00  0.00     0.179 HD
BRANCH  13  15
HETATM   15  S2  UNL     1     -30.962  29.882  40.489  1.00  0.00     0.263 S 
HETATM   16  O1  UNL     1     -30.955  29.084  39.213  1.00  0.00    -0.200 OA
HETATM   17  O2  UNL     1     -31.705  31.169  40.183  1.00  0.00    -0.200 OA
BRANCH  15  18
HETATM   18  C9  UNL     1     -29.338  30.272  41.004  1.00  0.00     0.079 A 
HETATM   19  C10 UNL     1     -29.064  31.556  41.426  1.00  0.00     0.026 A 
HETATM   20  C11 UNL     1     -27.762  31.838  41.830  1.00  0.00     0.008 A 
HETATM   21  C12 UNL     1     -26.761  30.891  41.822  1.00  0.00    -0.062 A 
HETATM   22  C13 UNL     1     -25.380  31.230  42.264  1.00  0.00     0.048 C 
HETATM   23  C14 UNL     1     -27.054  29.623  41.401  1.00  0.00     0.008 A 
HETATM   24  C15 UNL     1     -28.348  29.316  40.991  1.00  0.00     0.026 A 
ENDBRANCH  15  18
ENDBRANCH  13  15
ENDBRANCH   1  12
BRANCH   1  25
HETATM   25  C16 UNL     1     -33.388  28.651  44.310  1.00  0.00     0.035 A 
HETATM   26  C17 UNL     1     -33.651  29.992  44.508  1.00  0.00     0.032 A 
HETATM   27  C18 UNL     1     -34.895  30.445  44.919  1.00  0.00     0.039 A 
HETATM   28  C19 UNL     1     -35.927  29.561  45.147  1.00  0.00     0.068 A 
HETATM   29  C21 UNL     1     -35.675  28.219  44.953  1.00  0.00     0.039 A 
HETATM   30  C22 UNL     1     -34.436  27.771  44.545  1.00  0.00     0.032 A 
BRANCH  28  31
HETATM   31  O3  UNL     1     -37.190  29.995  45.561  1.00  0.00    -0.356 OA
HETATM   32  C20 UNL     1     -37.380  30.906  46.599  1.00  0.00     0.210 C 
ENDBRANCH  28  31
ENDBRANCH   1  25
TORSDOF 9
ENDMDL
MODEL 3
REMARK VINA RESULT: -6.362176585      8.273     12.069
REMARK  9 active torsions:
REMARK  status: ('A' for Active; 'I' for Inactive)
REMARK    1  A    between atoms: C2_2  and  S1_3 
REMARK    2  A    between atoms: S1_3  and  C3_4 
REMARK    3  A    between atoms: C6_7  and  C7_8 
REMARK    4  A    between atoms: C7_8  and  N1_9 
REMARK    5  A    between atoms: N1_9  and  C8_10 
REMARK    6  A    between atoms: N1_9  and  C16_23 
REMARK    7  A    between atoms: N2_11  and  S2_13 
REMARK    8  A    between atoms: S2_13  and  C9_16 
REMARK    9  A    between atoms: C19_26  and  O3_27 
ROOT
HETATM    1  N1  UNL     1     -20.636  28.940  46.731  1.00  0.00    -0.338 N 
ENDROOT
BRANCH   1   2
HETATM    2  C7  UNL     1     -20.876  28.276  47.964  1.00  0.00     0.168 C 
BRANCH   2   3
HETATM    3  C6  UNL     1     -21.190  29.166  49.109  1.00  0.00    -0.040 A 
HETATM    4  C5  UNL     1     -21.360  30.529  49.010  1.00  0.00     0.010 A 
HETATM    5  C4  UNL     1     -21.653  31.329  50.114  1.00  0.00     0.019 A 
HETATM    6  C3  UNL     1     -21.786  30.775  51.369  1.00  0.00     0.000 A 
HETATM    7  C24 UNL     1     -21.617  29.410  51.471  1.00  0.00     0.019 A 
HETATM    8  C23 UNL     1     -21.327  28.617  50.381  1.00  0.00     0.010 A 
BRANCH   6   9
HETATM    9  S1  UNL     1     -22.165  31.765  52.808  1.00  0.00    -0.130 SA
BRANCH   9  10
HETATM   10  C2  UNL     1     -23.771  32.574  52.654  1.00  0.00     0.075 C 
HETATM   11  C1  UNL     1     -24.760  31.535  52.144  1.00  0.00     0.016 C 
ENDBRANCH   9  10
ENDBRANCH   6   9
ENDBRANCH   2   3
ENDBRANCH   1   2
BRANCH   1  12
HETATM   12  C8  UNL     1     -21.709  29.561  46.043  1.00  0.00     0.195 C 
HETATM   13  N2  UNL     1     -22.653  28.878  45.489  1.00  0.00    -0.276 N 
ATOM     14  H2  UNL     1     -22.623  27.860  45.551  1.00  0.00     0.179 HD
BRANCH  13  15
HETATM   15  S2  UNL     1     -23.961  29.621  44.651  1.00  0.00     0.263 S 
HETATM   16  O1  UNL     1     -25.078  29.839  45.636  1.00  0.00    -0.200 OA
HETATM   17  O2  UNL     1     -23.556  30.996  44.153  1.00  0.00    -0.200 OA
BRANCH  15  18
HETATM   18  C9  UNL     1     -24.489  28.657  43.293  1.00  0.00     0.079 A 
HETATM   19  C10 UNL     1     -24.252  27.299  43.308  1.00  0.00     0.026 A 
HETATM   20  C11 UNL     1     -24.685  26.557  42.212  1.00  0.00     0.008 A 
HETATM   21  C12 UNL     1     -25.329  27.128  41.137  1.00  0.00    -0.062 A 
HETATM   22  C13 UNL     1     -25.779  26.300  39.983  1.00  0.00     0.048 C 
HETATM   23  C14 UNL     1     -25.555  28.477  41.141  1.00  0.00     0.008 A 
HETATM   24  C15 UNL     1     -25.132  29.242  42.225  1.00  0.00     0.026 A 
ENDBRANCH  15  18
ENDBRANCH  13  15
ENDBRANCH   1  12
BRANCH   1  25
HETATM   25  C16 UNL     1     -19.345  29.016  46.143  1.00  0.00     0.035 A 
HETATM   26  C17 UNL     1     -18.402  28.015  46.260  1.00  0.00     0.032 A 
HETATM   27  C18 UNL     1     -17.150  28.111  45.672  1.00  0.00     0.039 A 
HETATM   28  C19 UNL     1     -16.799  29.223  44.939  1.00  0.00     0.068 A 
HETATM   29  C21 UNL     1     -17.734  30.229  44.815  1.00  0.00     0.039 A 
HETATM   30  C22 UNL     1     -18.979  30.131  45.402  1.00  0.00     0.032 A 
BRANCH  28  31
HETATM   31  O3  UNL     1     -15.543  29.341  44.337  1.00  0.00    -0.356 OA
HETATM   32  C20 UNL     1     -15.076  28.455  43.367  1.00  0.00     0.210 C 
ENDBRANCH  28  31
ENDBRANCH   1  25
TORSDOF 9
ENDMDL
MODEL 4
REMARK VINA RESULT: -6.349857789      4.384      6.015
REMARK  9 active torsions:
REMARK  status: ('A' for Active; 'I' for Inactive)
REMARK    1  A    between atoms: C2_2  and  S1_3 
REMARK    2  A    between atoms: S1_3  and  C3_4 
REMARK    3  A    between atoms: C6_7  and  C7_8 
REMARK    4  A    between atoms: C7_8  and  N1_9 
REMARK    5  A    between atoms: N1_9  and  C8_10 
REMARK    6  A    between atoms: N1_9  and  C16_23 
REMARK    7  A    between atoms: N2_11  and  S2_13 
REMARK    8  A    between atoms: S2_13  and  C9_16 
REMARK    9  A    between atoms: C19_26  and  O3_27 
ROOT
HETATM    1  N1  UNL     1     -25.933  28.770  42.288  1.00  0.00    -0.338 N 
ENDROOT
BRANCH   1   2
HETATM    2  C7  UNL     1     -24.629  28.578  42.819  1.00  0.00     0.168 C 
BRANCH   2   3
HETATM    3  C6  UNL     1     -24.361  29.275  44.102  1.00  0.00    -0.040 A 
HETATM    4  C5  UNL     1     -25.283  30.046  44.774  1.00  0.00     0.010 A 
HETATM    5  C4  UNL     1     -24.989  30.685  45.978  1.00  0.00     0.019 A 
HETATM    6  C3  UNL     1     -23.741  30.567  46.551  1.00  0.00     0.000 A 
HETATM    7  C24 UNL     1     -22.816  29.795  45.880  1.00  0.00     0.019 A 
HETATM    8  C23 UNL     1     -23.104  29.162  44.689  1.00  0.00     0.010 A 
BRANCH   6   9
HETATM    9  S1  UNL     1     -23.326  31.367  48.094  1.00  0.00    -0.130 SA
BRANCH   9  10
HETATM   10  C2  UNL     1     -24.780  31.591  49.139  1.00  0.00     0.075 C 
HETATM   11  C1  UNL     1     -24.640  30.648  50.327  1.00  0.00     0.016 C 
ENDBRANCH   9  10
ENDBRANCH   6   9
ENDBRANCH   2   3
ENDBRANCH   1   2
BRANCH   1  12
HETATM   12  C8  UNL     1     -26.901  27.741  42.406  1.00  0.00     0.195 C 
HETATM   13  N2  UNL     1     -27.336  27.339  43.551  1.00  0.00    -0.276 N 
ATOM     14  H2  UNL     1     -26.971  27.777  44.397  1.00  0.00     0.179 HD
BRANCH  13  15
HETATM   15  S2  UNL     1     -28.512  26.090  43.707  1.00  0.00     0.263 S 
HETATM   16  O1  UNL     1     -28.480  25.265  42.448  1.00  0.00    -0.200 OA
HETATM   17  O2  UNL     1     -28.141  25.152  44.841  1.00  0.00    -0.200 OA
BRANCH  15  18
HETATM   18  C9  UNL     1     -30.108  26.736  44.003  1.00  0.00     0.079 A 
HETATM   19  C10 UNL     1     -30.624  27.665  43.123  1.00  0.00     0.026 A 
HETATM   20  C11 UNL     1     -31.898  28.162  43.385  1.00  0.00     0.008 A 
HETATM   21  C12 UNL     1     -32.642  27.762  44.473  1.00  0.00    -0.062 A 
HETATM   22  C13 UNL     1     -34.002  28.315  44.718  1.00  0.00     0.048 C 
HETATM   23  C14 UNL     1     -32.112  26.840  45.333  1.00  0.00     0.008 A 
HETATM   24  C15 UNL     1     -30.840  26.327  45.095  1.00  0.00     0.026 A 
ENDBRANCH  15  18
ENDBRANCH  13  15
ENDBRANCH   1  12
BRANCH   1  25
HETATM   25  C16 UNL     1     -26.323  29.968  41.634  1.00  0.00     0.035 A 
HETATM   26  C17 UNL     1     -25.424  30.828  41.034  1.00  0.00     0.032 A 
HETATM   27  C18 UNL     1     -25.831  31.990  40.397  1.00  0.00     0.039 A 
HETATM   28  C19 UNL     1     -27.164  32.332  40.337  1.00  0.00     0.068 A 
HETATM   29  C21 UNL     1     -28.070  31.480  40.933  1.00  0.00     0.039 A 
HETATM   30  C22 UNL     1     -27.663  30.325  41.567  1.00  0.00     0.032 A 
BRANCH  28  31
HETATM   31  O3  UNL     1     -27.597  33.498  39.700  1.00  0.00    -0.356 OA
HETATM   32  C20 UNL     1     -27.402  33.742  38.341  1.00  0.00     0.210 C 
ENDBRANCH  28  31
ENDBRANCH   1  25
TORSDOF 9
ENDMDL
MODEL 5
REMARK VINA RESULT: -6.217779590      3.751      7.513
REMARK  9 active torsions:
REMARK  status: ('A' for Active; 'I' for Inactive)
REMARK    1  A    between atoms: C2_2  and  S1_3 
REMARK    2  A    between atoms: S1_3  and  C3_4 
REMARK    3  A    between atoms: C6_7  and  C7_8 
REMARK    4  A    between atoms: C7_8  and  N1_9 
REMARK    5  A    between atoms: N1_9  and  C8_10 
REMARK    6  A    between atoms: N1_9  and  C16_23 
REMARK    7  A    between atoms: N2_11  and  S2_13 
REMARK    8  A    between atoms: S2_13  and  C9_16 
REMARK    9  A    between atoms: C19_26  and  O3_27 
ROOT
HETATM    1  N1  UNL     1     -26.275  28.683  42.734  1.00  0.00    -0.338 N 
ENDROOT
BRANCH   1   2
HETATM    2  C7  UNL     1     -26.380  29.294  41.456  1.00  0.00     0.168 C 
BRANCH   2   3
HETATM    3  C6  UNL     1     -27.720  29.842  41.126  1.00  0.00    -0.040 A 
HETATM    4  C5  UNL     1     -28.795  29.078  40.731  1.00  0.00     0.010 A 
HETATM    5  C4  UNL     1     -30.038  29.634  40.429  1.00  0.00     0.019 A 
HETATM    6  C3  UNL     1     -30.240  30.995  40.517  1.00  0.00     0.000 A 
HETATM    7  C24 UNL     1     -29.164  31.762  40.913  1.00  0.00     0.019 A 
HETATM    8  C23 UNL     1     -27.934  31.214  41.212  1.00  0.00     0.010 A 
BRANCH   6   9
HETATM    9  S1  UNL     1     -31.818  31.746  40.143  1.00  0.00    -0.130 SA
BRANCH   9  10
HETATM   10  C2  UNL     1     -32.292  31.473  38.423  1.00  0.00     0.075 C 
HETATM   11  C1  UNL     1     -31.091  31.821  37.555  1.00  0.00     0.016 C 
ENDBRANCH   9  10
ENDBRANCH   6   9
ENDBRANCH   2   3
ENDBRANCH   1   2
BRANCH   1  12
HETATM   12  C8  UNL     1     -27.146  27.620  43.083  1.00  0.00     0.195 C 
HETATM   13  N2  UNL     1     -27.992  27.719  44.051  1.00  0.00    -0.276 N 
ATOM     14  H2  UNL     1     -28.033  28.590  44.581  1.00  0.00     0.179 HD
BRANCH  13  15
HETATM   15  S2  UNL     1     -29.055  26.435  44.484  1.00  0.00     0.263 S 
HETATM   16  O1  UNL     1     -28.859  25.318  43.492  1.00  0.00    -0.200 OA
HETATM   17  O2  UNL     1     -28.678  25.870  45.841  1.00  0.00    -0.200 OA
BRANCH  15  18
HETATM   18  C9  UNL     1     -30.720  26.961  44.529  1.00  0.00     0.079 A 
HETATM   19  C10 UNL     1     -31.580  26.371  45.432  1.00  0.00     0.026 A 
HETATM   20  C11 UNL     1     -32.901  26.811  45.446  1.00  0.00     0.008 A 
HETATM   21  C12 UNL     1     -33.364  27.797  44.602  1.00  0.00    -0.062 A 
HETATM   22  C13 UNL     1     -34.784  28.242  44.648  1.00  0.00     0.048 C 
HETATM   23  C14 UNL     1     -32.495  28.369  43.715  1.00  0.00     0.008 A 
HETATM   24  C15 UNL     1     -31.169  27.948  43.680  1.00  0.00     0.026 A 
ENDBRANCH  15  18
ENDBRANCH  13  15
ENDBRANCH   1  12
BRANCH   1  25
HETATM   25  C16 UNL     1     -25.318  29.093  43.701  1.00  0.00     0.035 A 
HETATM   26  C17 UNL     1     -24.102  28.463  43.874  1.00  0.00     0.032 A 
HETATM   27  C18 UNL     1     -23.182  28.886  44.821  1.00  0.00     0.039 A 
HETATM   28  C19 UNL     1     -23.453  29.965  45.633  1.00  0.00     0.068 A 
HETATM   29  C21 UNL     1     -24.664  30.602  45.468  1.00  0.00     0.039 A 
HETATM   30  C22 UNL     1     -25.578  30.179  44.526  1.00  0.00     0.032 A 
BRANCH  28  31
HETATM   31  O3  UNL     1     -22.541  30.410  46.595  1.00  0.00    -0.356 OA
HETATM   32  C20 UNL     1     -21.665  29.559  47.266  1.00  0.00     0.210 C 
ENDBRANCH  28  31
ENDBRANCH   1  25
TORSDOF 9
ENDMDL
