MODEL 1
REMARK VINA RESULT: -8.672728197      0.000      0.000
REMARK  1 active torsions:
REMARK  status: ('A' for Active; 'I' for Inactive)
REMARK    1  A    between atoms: O1_1  and  C1_3 
ROOT
HETATM    1  C1  UNL     1       6.748 -40.168   0.973  1.00  0.00     0.157 C 
HETATM    2  C2  UNL     1       6.905 -38.724   0.709  1.00  0.00     0.038 A 
HETATM    3  C3  UNL     1       8.027 -38.607  -0.258  1.00  0.00     0.017 A 
HETATM    4  C4  UNL     1       8.568 -37.505  -0.783  1.00  0.00     0.001 A 
HETATM    5  C5  UNL     1       8.039 -36.314  -0.396  1.00  0.00     0.002 A 
HETATM    6  C6  UNL     1       7.009 -36.346   0.485  1.00  0.00     0.026 A 
HETATM    7  C7  UNL     1       6.444 -37.518   1.034  1.00  0.00     0.094 A 
HETATM    8  S1  UNL     1       5.118 -36.861   2.115  1.00  0.00     0.269 S 
HETATM    9  O2  UNL     1       5.573 -35.909   3.090  1.00  0.00    -0.200 OA
HETATM   10  O3  UNL     1       4.166 -36.066   1.252  1.00  0.00    -0.200 OA
HETATM   11  N1  UNL     1       4.307 -38.303   2.792  1.00  0.00    -0.257 N 
HETATM   12  C8  UNL     1       3.142 -38.721   2.240  1.00  0.00     0.110 A 
HETATM   13  C9  UNL     1       3.188 -40.120   2.318  1.00  0.00     0.036 A 
HETATM   14  C10 UNL     1       4.424 -40.326   2.929  1.00  0.00     0.040 A 
HETATM   15  C11 UNL     1       5.114 -39.238   3.269  1.00  0.00     0.125 A 
HETATM   16  C12 UNL     1       5.278 -41.657   2.534  1.00  0.00     0.195 C 
HETATM   17  N2  UNL     1       4.636 -42.691   2.674  1.00  0.00    -0.385 NA
HETATM   18  C13 UNL     1       4.138 -43.947   2.746  1.00  0.00     0.122 A 
HETATM   19  C14 UNL     1       2.808 -44.237   3.061  1.00  0.00     0.045 A 
HETATM   20  C15 UNL     1       2.257 -45.475   3.093  1.00  0.00     0.003 A 
HETATM   21  C16 UNL     1       3.020 -46.585   2.801  1.00  0.00     0.001 A 
HETATM   22  C17 UNL     1       4.340 -46.384   2.482  1.00  0.00     0.017 A 
HETATM   23  C18 UNL     1       4.846 -45.144   2.462  1.00  0.00     0.031 A 
HETATM   24  C19 UNL     1       6.269 -44.998   2.125  1.00  0.00     0.046 A 
HETATM   25  C20 UNL     1       7.151 -45.904   1.666  1.00  0.00     0.030 A 
HETATM   26  C21 UNL     1       8.469 -45.510   1.400  1.00  0.00     0.004 A 
HETATM   27  C22 UNL     1       8.762 -44.152   1.644  1.00  0.00     0.027 A 
HETATM   28  C23 UNL     1       7.811 -43.297   2.110  1.00  0.00     0.028 A 
HETATM   29  N3  UNL     1       6.648 -43.780   2.314  1.00  0.00    -0.357 N 
ATOM     30  H3  UNL     1       5.941 -43.133   2.666  1.00  0.00     0.166 HD
HETATM   31  C24 UNL     1       7.821 -41.866   2.456  1.00  0.00     0.191 C 
HETATM   32  N4  UNL     1       6.577 -41.208   1.958  1.00  0.00    -0.295 N 
ENDROOT
BRANCH   1  33
HETATM   33  O1  UNL     1       6.785 -40.823  -0.232  1.00  0.00    -0.345 OA
ATOM     34  H1  UNL     1       7.436 -41.511  -0.172  1.00  0.00     0.219 HD
ENDBRANCH   1  33
TORSDOF 1
ENDMDL
MODEL 2
REMARK VINA RESULT: -8.612781019      2.597      4.246
REMARK  1 active torsions:
REMARK  status: ('A' for Active; 'I' for Inactive)
REMARK    1  A    between atoms: O1_1  and  C1_3 
ROOT
HETATM    1  C1  UNL     1       5.338 -40.378   0.762  1.00  0.00     0.157 C 
HETATM    2  C2  UNL     1       5.560 -38.933   0.966  1.00  0.00     0.038 A 
HETATM    3  C3  UNL     1       4.208 -38.323   1.058  1.00  0.00     0.017 A 
HETATM    4  C4  UNL     1       3.878 -37.039   1.215  1.00  0.00     0.001 A 
HETATM    5  C5  UNL     1       4.899 -36.147   1.305  1.00  0.00     0.002 A 
HETATM    6  C6  UNL     1       6.162 -36.634   1.231  1.00  0.00     0.026 A 
HETATM    7  C7  UNL     1       6.500 -37.995   1.065  1.00  0.00     0.094 A 
HETATM    8  S1  UNL     1       8.332 -37.961   1.056  1.00  0.00     0.269 S 
HETATM    9  O2  UNL     1       8.898 -37.084   0.068  1.00  0.00    -0.200 OA
HETATM   10  O3  UNL     1       8.792 -37.368   2.369  1.00  0.00    -0.200 OA
HETATM   11  N1  UNL     1       8.834 -39.670   0.922  1.00  0.00    -0.257 N 
HETATM   12  C8  UNL     1       9.219 -40.332   2.040  1.00  0.00     0.110 A 
HETATM   13  C9  UNL     1       8.756 -41.642   1.862  1.00  0.00     0.036 A 
HETATM   14  C10 UNL     1       8.140 -41.554   0.614  1.00  0.00     0.040 A 
HETATM   15  C11 UNL     1       8.205 -40.377  -0.005  1.00  0.00     0.125 A 
HETATM   16  C12 UNL     1       6.828 -42.477   0.324  1.00  0.00     0.195 C 
HETATM   17  N2  UNL     1       7.028 -43.667   0.539  1.00  0.00    -0.385 NA
HETATM   18  C13 UNL     1       7.008 -45.009   0.705  1.00  0.00     0.122 A 
HETATM   19  C14 UNL     1       8.069 -45.740   1.245  1.00  0.00     0.045 A 
HETATM   20  C15 UNL     1       8.070 -47.076   1.476  1.00  0.00     0.003 A 
HETATM   21  C16 UNL     1       6.961 -47.836   1.174  1.00  0.00     0.001 A 
HETATM   22  C17 UNL     1       5.874 -47.191   0.637  1.00  0.00     0.017 A 
HETATM   23  C18 UNL     1       5.914 -45.869   0.424  1.00  0.00     0.031 A 
HETATM   24  C19 UNL     1       4.723 -45.241  -0.164  1.00  0.00     0.046 A 
HETATM   25  C20 UNL     1       3.497 -45.746  -0.395  1.00  0.00     0.030 A 
HETATM   26  C21 UNL     1       2.509 -44.929  -0.959  1.00  0.00     0.004 A 
HETATM   27  C22 UNL     1       2.901 -43.605  -1.244  1.00  0.00     0.027 A 
HETATM   28  C23 UNL     1       4.164 -43.169  -0.982  1.00  0.00     0.028 A 
HETATM   29  N3  UNL     1       4.971 -44.013  -0.468  1.00  0.00    -0.357 N 
ATOM     30  H3  UNL     1       5.916 -43.679  -0.276  1.00  0.00     0.166 HD
HETATM   31  C24 UNL     1       4.847 -41.879  -1.172  1.00  0.00     0.191 C 
HETATM   32  N4  UNL     1       5.690 -41.565   0.020  1.00  0.00    -0.295 N 
ENDROOT
BRANCH   1  33
HETATM   33  O1  UNL     1       4.378 -40.787   1.653  1.00  0.00    -0.345 OA
ATOM     34  H1  UNL     1       3.611 -40.241   1.528  1.00  0.00     0.219 HD
ENDBRANCH   1  33
TORSDOF 1
ENDMDL
MODEL 3
REMARK VINA RESULT: -8.432283541      5.299      7.115
REMARK  1 active torsions:
REMARK  status: ('A' for Active; 'I' for Inactive)
REMARK    1  A    between atoms: O1_1  and  C1_3 
ROOT
HETATM    1  C1  UNL     1       3.575 -41.003  -3.253  1.00  0.00     0.157 C 
HETATM    2  C2  UNL     1       2.489 -41.184  -4.235  1.00  0.00     0.038 A 
HETATM    3  C3  UNL     1       2.593 -40.035  -5.173  1.00  0.00     0.017 A 
HETATM    4  C4  UNL     1       1.818 -39.736  -6.218  1.00  0.00     0.001 A 
HETATM    5  C5  UNL     1       0.786 -40.580  -6.483  1.00  0.00     0.002 A 
HETATM    6  C6  UNL     1       0.632 -41.652  -5.668  1.00  0.00     0.026 A 
HETATM    7  C7  UNL     1       1.458 -41.960  -4.564  1.00  0.00     0.094 A 
HETATM    8  S1  UNL     1       0.718 -43.509  -3.923  1.00  0.00     0.269 S 
HETATM    9  O2  UNL     1      -0.681 -43.404  -3.608  1.00  0.00    -0.200 OA
HETATM   10  O3  UNL     1       0.761 -44.538  -5.030  1.00  0.00    -0.200 OA
HETATM   11  N1  UNL     1       1.762 -44.000  -2.560  1.00  0.00    -0.257 N 
HETATM   12  C8  UNL     1       2.695 -44.963  -2.760  1.00  0.00     0.110 A 
HETATM   13  C9  UNL     1       3.785 -44.580  -1.968  1.00  0.00     0.036 A 
HETATM   14  C10 UNL     1       3.314 -43.399  -1.396  1.00  0.00     0.040 A 
HETATM   15  C11 UNL     1       2.070 -43.038  -1.703  1.00  0.00     0.125 A 
HETATM   16  C12 UNL     1       4.380 -42.206  -1.079  1.00  0.00     0.195 C 
HETATM   17  N2  UNL     1       5.323 -42.582  -0.393  1.00  0.00    -0.385 NA
HETATM   18  C13 UNL     1       6.443 -42.758   0.344  1.00  0.00     0.122 A 
HETATM   19  C14 UNL     1       6.870 -43.998   0.824  1.00  0.00     0.045 A 
HETATM   20  C15 UNL     1       8.011 -44.225   1.521  1.00  0.00     0.003 A 
HETATM   21  C16 UNL     1       8.866 -43.185   1.814  1.00  0.00     0.001 A 
HETATM   22  C17 UNL     1       8.517 -41.932   1.378  1.00  0.00     0.017 A 
HETATM   23  C18 UNL     1       7.381 -41.750   0.692  1.00  0.00     0.031 A 
HETATM   24  C19 UNL     1       7.058 -40.382   0.264  1.00  0.00     0.046 A 
HETATM   25  C20 UNL     1       7.801 -39.260   0.304  1.00  0.00     0.030 A 
HETATM   26  C21 UNL     1       7.269 -38.062  -0.189  1.00  0.00     0.004 A 
HETATM   27  C22 UNL     1       5.957 -38.141  -0.700  1.00  0.00     0.027 A 
HETATM   28  C23 UNL     1       5.269 -39.316  -0.704  1.00  0.00     0.028 A 
HETATM   29  N3  UNL     1       5.867 -40.337  -0.225  1.00  0.00    -0.357 N 
ATOM     30  H3  UNL     1       5.344 -41.213  -0.230  1.00  0.00     0.166 HD
HETATM   31  C24 UNL     1       3.920 -39.696  -1.154  1.00  0.00     0.191 C 
HETATM   32  N4  UNL     1       3.966 -41.008  -1.864  1.00  0.00    -0.295 N 
ENDROOT
BRANCH   1  33
HETATM   33  O1  UNL     1       4.718 -40.685  -3.942  1.00  0.00    -0.345 OA
ATOM     34  H1  UNL     1       5.105 -39.921  -3.530  1.00  0.00     0.219 HD
ENDBRANCH   1  33
TORSDOF 1
ENDMDL
MODEL 4
REMARK VINA RESULT: -8.310201339      4.340      6.540
REMARK  1 active torsions:
REMARK  status: ('A' for Active; 'I' for Inactive)
REMARK    1  A    between atoms: O1_1  and  C1_3 
ROOT
HETATM    1  C1  UNL     1       3.632 -40.831  -2.096  1.00  0.00     0.157 C 
HETATM    2  C2  UNL     1       2.407 -41.153  -2.852  1.00  0.00     0.038 A 
HETATM    3  C3  UNL     1       2.551 -40.476  -4.168  1.00  0.00     0.017 A 
HETATM    4  C4  UNL     1       1.694 -40.444  -5.190  1.00  0.00     0.001 A 
HETATM    5  C5  UNL     1       0.521 -41.113  -5.034  1.00  0.00     0.002 A 
HETATM    6  C6  UNL     1       0.322 -41.756  -3.858  1.00  0.00     0.026 A 
HETATM    7  C7  UNL     1       1.236 -41.785  -2.781  1.00  0.00     0.094 A 
HETATM    8  S1  UNL     1       0.368 -42.814  -1.538  1.00  0.00     0.269 S 
HETATM    9  O2  UNL     1      -0.942 -42.336  -1.192  1.00  0.00    -0.200 OA
HETATM   10  O3  UNL     1       0.105 -44.168  -2.157  1.00  0.00    -0.200 OA
HETATM   11  N1  UNL     1       1.505 -42.954  -0.167  1.00  0.00    -0.257 N 
HETATM   12  C8  UNL     1       2.247 -44.081  -0.041  1.00  0.00     0.110 A 
HETATM   13  C9  UNL     1       3.480 -43.647   0.462  1.00  0.00     0.036 A 
HETATM   14  C10 UNL     1       3.274 -42.271   0.560  1.00  0.00     0.040 A 
HETATM   15  C11 UNL     1       2.067 -41.820   0.224  1.00  0.00     0.125 A 
HETATM   16  C12 UNL     1       4.539 -41.272   0.313  1.00  0.00     0.195 C 
HETATM   17  N2  UNL     1       5.500 -41.540   1.023  1.00  0.00    -0.385 NA
HETATM   18  C13 UNL     1       6.673 -41.639   1.691  1.00  0.00     0.122 A 
HETATM   19  C14 UNL     1       6.971 -42.671   2.585  1.00  0.00     0.045 A 
HETATM   20  C15 UNL     1       8.150 -42.835   3.234  1.00  0.00     0.003 A 
HETATM   21  C16 UNL     1       9.183 -41.945   3.039  1.00  0.00     0.001 A 
HETATM   22  C17 UNL     1       8.969 -40.900   2.175  1.00  0.00     0.017 A 
HETATM   23  C18 UNL     1       7.788 -40.773   1.553  1.00  0.00     0.031 A 
HETATM   24  C19 UNL     1       7.618 -39.626   0.651  1.00  0.00     0.046 A 
HETATM   25  C20 UNL     1       8.518 -38.733   0.199  1.00  0.00     0.030 A 
HETATM   26  C21 UNL     1       8.108 -37.725  -0.683  1.00  0.00     0.004 A 
HETATM   27  C22 UNL     1       6.741 -37.737  -1.030  1.00  0.00     0.027 A 
HETATM   28  C23 UNL     1       5.892 -38.675  -0.529  1.00  0.00     0.028 A 
HETATM   29  N3  UNL     1       6.391 -39.540   0.267  1.00  0.00    -0.357 N 
ATOM     30  H3  UNL     1       5.748 -40.239   0.640  1.00  0.00     0.166 HD
HETATM   31  C24 UNL     1       4.453 -38.931  -0.700  1.00  0.00     0.191 C 
HETATM   32  N4  UNL     1       4.204 -40.396  -0.845  1.00  0.00    -0.295 N 
ENDROOT
BRANCH   1  33
HETATM   33  O1  UNL     1       4.704 -41.015  -2.932  1.00  0.00    -0.345 OA
ATOM     34  H1  UNL     1       5.495 -40.842  -2.435  1.00  0.00     0.219 HD
ENDBRANCH   1  33
TORSDOF 1
ENDMDL
MODEL 5
REMARK VINA RESULT: -8.289941261      3.235      7.136
REMARK  1 active torsions:
REMARK  status: ('A' for Active; 'I' for Inactive)
REMARK    1  A    between atoms: O1_1  and  C1_3 
ROOT
HETATM    1  C1  UNL     1       4.485 -42.739   1.146  1.00  0.00     0.157 C 
HETATM    2  C2  UNL     1       3.331 -43.651   1.028  1.00  0.00     0.038 A 
HETATM    3  C3  UNL     1       3.338 -44.478   2.263  1.00  0.00     0.017 A 
HETATM    4  C4  UNL     1       2.510 -45.465   2.613  1.00  0.00     0.001 A 
HETATM    5  C5  UNL     1       1.517 -45.777   1.740  1.00  0.00     0.002 A 
HETATM    6  C6  UNL     1       1.449 -45.061   0.591  1.00  0.00     0.026 A 
HETATM    7  C7  UNL     1       2.330 -44.017   0.229  1.00  0.00     0.094 A 
HETATM    8  S1  UNL     1       1.682 -43.485  -1.400  1.00  0.00     0.269 S 
HETATM    9  O2  UNL     1       1.587 -44.543  -2.368  1.00  0.00    -0.200 OA
HETATM   10  O3  UNL     1       0.250 -43.041  -1.208  1.00  0.00    -0.200 OA
HETATM   11  N1  UNL     1       2.712 -42.108  -1.888  1.00  0.00    -0.257 N 
HETATM   12  C8  UNL     1       2.252 -40.847  -1.705  1.00  0.00     0.110 A 
HETATM   13  C9  UNL     1       3.385 -40.096  -1.362  1.00  0.00     0.036 A 
HETATM   14  C10 UNL     1       4.385 -41.068  -1.393  1.00  0.00     0.040 A 
HETATM   15  C11 UNL     1       4.016 -42.296  -1.750  1.00  0.00     0.125 A 
HETATM   16  C12 UNL     1       5.633 -40.937  -0.353  1.00  0.00     0.195 C 
HETATM   17  N2  UNL     1       6.193 -39.848  -0.419  1.00  0.00    -0.385 NA
HETATM   18  C13 UNL     1       6.960 -38.739  -0.309  1.00  0.00     0.122 A 
HETATM   19  C14 UNL     1       6.704 -37.548  -0.992  1.00  0.00     0.045 A 
HETATM   20  C15 UNL     1       7.417 -36.401  -0.872  1.00  0.00     0.003 A 
HETATM   21  C16 UNL     1       8.497 -36.338  -0.019  1.00  0.00     0.001 A 
HETATM   22  C17 UNL     1       8.816 -37.470   0.689  1.00  0.00     0.017 A 
HETATM   23  C18 UNL     1       8.086 -38.584   0.541  1.00  0.00     0.031 A 
HETATM   24  C19 UNL     1       8.487 -39.765   1.318  1.00  0.00     0.046 A 
HETATM   25  C20 UNL     1       9.393 -39.890   2.305  1.00  0.00     0.030 A 
HETATM   26  C21 UNL     1       9.585 -41.138   2.912  1.00  0.00     0.004 A 
HETATM   27  C22 UNL     1       8.782 -42.187   2.417  1.00  0.00     0.027 A 
HETATM   28  C23 UNL     1       7.886 -41.979   1.414  1.00  0.00     0.028 A 
HETATM   29  N3  UNL     1       7.808 -40.795   0.944  1.00  0.00    -0.357 N 
ATOM     30  H3  UNL     1       7.136 -40.648   0.191  1.00  0.00     0.166 HD
HETATM   31  C24 UNL     1       6.940 -42.857   0.705  1.00  0.00     0.191 C 
HETATM   32  N4  UNL     1       5.638 -42.154   0.506  1.00  0.00    -0.295 N 
ENDROOT
BRANCH   1  33
HETATM   33  O1  UNL     1       4.479 -42.213   2.414  1.00  0.00    -0.345 OA
ATOM     34  H1  UNL     1       4.588 -41.272   2.341  1.00  0.00     0.219 HD
ENDBRANCH   1  33
TORSDOF 1
ENDMDL
