MODEL 1
REMARK VINA RESULT: -8.209016442      0.000      0.000
REMARK  0 active torsions:
REMARK  status: ('A' for Active; 'I' for Inactive)
REMARK       I    between atoms: C2_2  and  N1_4 
ROOT
HETATM    1  C1  UNL     1       1.667 -39.150  -0.379  1.00  0.00     0.117 C 
HETATM    2  C2  UNL     1       2.724 -38.587   0.481  1.00  0.00     0.221 C 
HETATM    3  O1  UNL     1       2.365 -37.986   1.525  1.00  0.00    -0.273 OA
HETATM    4  N1  UNL     1       4.082 -38.715   0.144  1.00  0.00    -0.299 N 
HETATM    5  C3  UNL     1       4.372 -39.708  -0.894  1.00  0.00     0.177 C 
HETATM    6  C4  UNL     1       5.313 -40.749  -0.333  1.00  0.00     0.023 C 
HETATM    7  C5  UNL     1       4.957 -42.001  -0.354  1.00  0.00     0.089 C 
HETATM    8  N2  UNL     1       5.702 -43.088   0.142  1.00  0.00    -0.316 N 
ATOM      9  H2  UNL     1       6.426 -42.895   0.835  1.00  0.00     0.169 HD
HETATM   10  C6  UNL     1       5.508 -44.435  -0.265  1.00  0.00     0.259 C 
HETATM   11  O2  UNL     1       6.297 -45.300   0.284  1.00  0.00    -0.267 OA
HETATM   12  C7  UNL     1       4.531 -44.887  -1.208  1.00  0.00     0.067 A 
HETATM   13  C8  UNL     1       4.590 -46.222  -1.603  1.00  0.00     0.033 A 
HETATM   14  C9  UNL     1       3.751 -46.701  -2.612  1.00  0.00    -0.008 A 
HETATM   15  C10 UNL     1       3.811 -48.031  -3.004  1.00  0.00     0.014 A 
HETATM   16  C11 UNL     1       2.980 -48.479  -3.997  1.00  0.00     0.001 A 
HETATM   17  C12 UNL     1       2.086 -47.639  -4.615  1.00  0.00     0.002 A 
HETATM   18  C13 UNL     1       2.043 -46.337  -4.214  1.00  0.00     0.030 A 
HETATM   19  C14 UNL     1       2.864 -45.832  -3.211  1.00  0.00     0.043 A 
HETATM   20  N3  UNL     1       2.816 -44.552  -2.823  1.00  0.00    -0.349 N 
ATOM     21  H3  UNL     1       2.156 -43.918  -3.273  1.00  0.00     0.166 HD
HETATM   22  C15 UNL     1       3.622 -44.084  -1.847  1.00  0.00     0.092 A 
HETATM   23  S1  UNL     1       3.441 -42.421  -1.227  1.00  0.00    -0.053 SA
HETATM   24  C16 UNL     1       6.654 -40.389   0.145  1.00  0.00     0.070 A 
HETATM   25  N4  UNL     1       7.579 -41.314  -0.165  1.00  0.00    -0.364 N 
ATOM     26  H4  UNL     1       7.268 -42.147  -0.665  1.00  0.00     0.165 HD
HETATM   27  C17 UNL     1       8.879 -41.218   0.135  1.00  0.00     0.088 A 
HETATM   28  C18 UNL     1       9.302 -40.099   0.805  1.00  0.00     0.019 A 
HETATM   29  C19 UNL     1       8.406 -39.078   1.171  1.00  0.00     0.034 A 
HETATM   30  C20 UNL     1       7.094 -39.248   0.829  1.00  0.00     0.068 A 
HETATM   31  N5  UNL     1       6.312 -38.131   1.200  1.00  0.00    -0.306 N 
HETATM   32  C21 UNL     1       6.786 -37.094   1.905  1.00  0.00     0.099 A 
HETATM   33  C22 UNL     1       5.753 -36.187   2.017  1.00  0.00     0.021 A 
HETATM   34  C23 UNL     1       4.639 -36.688   1.369  1.00  0.00     0.051 A 
HETATM   35  C24 UNL     1       5.020 -37.915   0.866  1.00  0.00     0.117 A 
ENDROOT
TORSDOF 0
ENDMDL
MODEL 2
REMARK VINA RESULT: -8.019097824      2.486      8.189
REMARK  0 active torsions:
REMARK  status: ('A' for Active; 'I' for Inactive)
REMARK       I    between atoms: C2_2  and  N1_4 
ROOT
HETATM    1  C1  UNL     1       2.244 -41.337  -3.231  1.00  0.00     0.117 C 
HETATM    2  C2  UNL     1       2.273 -42.802  -3.067  1.00  0.00     0.221 C 
HETATM    3  O1  UNL     1       2.127 -43.505  -4.099  1.00  0.00    -0.273 OA
HETATM    4  N1  UNL     1       2.452 -43.390  -1.804  1.00  0.00    -0.299 N 
HETATM    5  C3  UNL     1       2.940 -42.482  -0.762  1.00  0.00     0.177 C 
HETATM    6  C4  UNL     1       4.253 -43.005  -0.225  1.00  0.00     0.023 C 
HETATM    7  C5  UNL     1       5.304 -42.239  -0.268  1.00  0.00     0.089 C 
HETATM    8  N2  UNL     1       6.599 -42.576   0.169  1.00  0.00    -0.316 N 
ATOM      9  H2  UNL     1       6.835 -43.565   0.248  1.00  0.00     0.169 HD
HETATM   10  C6  UNL     1       7.597 -41.622   0.507  1.00  0.00     0.259 C 
HETATM   11  O2  UNL     1       8.723 -42.114   0.906  1.00  0.00    -0.267 OA
HETATM   12  C7  UNL     1       7.446 -40.200   0.437  1.00  0.00     0.067 A 
HETATM   13  C8  UNL     1       8.476 -39.420   0.957  1.00  0.00     0.033 A 
HETATM   14  C9  UNL     1       8.343 -38.032   1.039  1.00  0.00    -0.008 A 
HETATM   15  C10 UNL     1       9.370 -37.256   1.557  1.00  0.00     0.014 A 
HETATM   16  C11 UNL     1       9.217 -35.896   1.629  1.00  0.00     0.001 A 
HETATM   17  C12 UNL     1       8.067 -35.281   1.198  1.00  0.00     0.002 A 
HETATM   18  C13 UNL     1       7.071 -36.063   0.691  1.00  0.00     0.030 A 
HETATM   19  C14 UNL     1       7.175 -37.446   0.596  1.00  0.00     0.043 A 
HETATM   20  N3  UNL     1       6.193 -38.206   0.097  1.00  0.00    -0.349 N 
ATOM     21  H3  UNL     1       5.335 -37.762  -0.227  1.00  0.00     0.166 HD
HETATM   22  C15 UNL     1       6.317 -39.548   0.014  1.00  0.00     0.092 A 
HETATM   23  S1  UNL     1       5.072 -40.535  -0.797  1.00  0.00    -0.053 SA
HETATM   24  C16 UNL     1       4.343 -44.317   0.430  1.00  0.00     0.070 A 
HETATM   25  N4  UNL     1       5.178 -44.312   1.484  1.00  0.00    -0.364 N 
ATOM     26  H4  UNL     1       5.659 -43.440   1.704  1.00  0.00     0.165 HD
HETATM   27  C17 UNL     1       5.421 -45.371   2.263  1.00  0.00     0.088 A 
HETATM   28  C18 UNL     1       4.776 -46.545   1.972  1.00  0.00     0.019 A 
HETATM   29  C19 UNL     1       3.883 -46.644   0.889  1.00  0.00     0.034 A 
HETATM   30  C20 UNL     1       3.686 -45.520   0.138  1.00  0.00     0.068 A 
HETATM   31  N5  UNL     1       2.727 -45.734  -0.878  1.00  0.00    -0.306 N 
HETATM   32  C21 UNL     1       2.177 -46.929  -1.140  1.00  0.00     0.099 A 
HETATM   33  C22 UNL     1       1.258 -46.729  -2.147  1.00  0.00     0.021 A 
HETATM   34  C23 UNL     1       1.256 -45.391  -2.498  1.00  0.00     0.051 A 
HETATM   35  C24 UNL     1       2.193 -44.790  -1.683  1.00  0.00     0.117 A 
ENDROOT
TORSDOF 0
ENDMDL
MODEL 3
REMARK VINA RESULT: -7.987919579      3.686      4.963
REMARK  0 active torsions:
REMARK  status: ('A' for Active; 'I' for Inactive)
REMARK       I    between atoms: C2_2  and  N1_4 
ROOT
HETATM    1  C1  UNL     1       4.826 -43.665   2.735  1.00  0.00     0.117 C 
HETATM    2  C2  UNL     1       6.161 -43.059   2.568  1.00  0.00     0.221 C 
HETATM    3  O1  UNL     1       7.160 -43.790   2.781  1.00  0.00    -0.273 OA
HETATM    4  N1  UNL     1       6.307 -41.714   2.190  1.00  0.00    -0.299 N 
HETATM    5  C3  UNL     1       5.096 -41.086   1.654  1.00  0.00     0.177 C 
HETATM    6  C4  UNL     1       5.370 -40.604   0.248  1.00  0.00     0.023 C 
HETATM    7  C5  UNL     1       4.619 -41.031  -0.726  1.00  0.00     0.089 C 
HETATM    8  N2  UNL     1       4.749 -40.698  -2.087  1.00  0.00    -0.316 N 
ATOM      9  H2  UNL     1       5.652 -40.349  -2.410  1.00  0.00     0.169 HD
HETATM   10  C6  UNL     1       3.700 -40.817  -3.038  1.00  0.00     0.259 C 
HETATM   11  O2  UNL     1       3.996 -40.448  -4.241  1.00  0.00    -0.267 OA
HETATM   12  C7  UNL     1       2.382 -41.304  -2.765  1.00  0.00     0.067 A 
HETATM   13  C8  UNL     1       1.437 -41.203  -3.784  1.00  0.00     0.033 A 
HETATM   14  C9  UNL     1       0.102 -41.539  -3.551  1.00  0.00    -0.008 A 
HETATM   15  C10 UNL     1      -0.837 -41.438  -4.567  1.00  0.00     0.014 A 
HETATM   16  C11 UNL     1      -2.143 -41.772  -4.315  1.00  0.00     0.001 A 
HETATM   17  C12 UNL     1      -2.543 -42.206  -3.075  1.00  0.00     0.002 A 
HETATM   18  C13 UNL     1      -1.603 -42.299  -2.091  1.00  0.00     0.030 A 
HETATM   19  C14 UNL     1      -0.267 -41.972  -2.295  1.00  0.00     0.043 A 
HETATM   20  N3  UNL     1       0.649 -42.067  -1.324  1.00  0.00    -0.349 N 
ATOM     21  H3  UNL     1       0.365 -42.389  -0.399  1.00  0.00     0.166 HD
HETATM   22  C15 UNL     1       1.941 -41.745  -1.545  1.00  0.00     0.092 A 
HETATM   23  S1  UNL     1       3.182 -42.025  -0.293  1.00  0.00    -0.053 SA
HETATM   24  C16 UNL     1       6.400 -39.593  -0.028  1.00  0.00     0.070 A 
HETATM   25  N4  UNL     1       6.028 -38.722  -0.981  1.00  0.00    -0.364 N 
ATOM     26  H4  UNL     1       5.114 -38.854  -1.414  1.00  0.00     0.165 HD
HETATM   27  C17 UNL     1       6.773 -37.695  -1.403  1.00  0.00     0.088 A 
HETATM   28  C18 UNL     1       8.002 -37.512  -0.823  1.00  0.00     0.019 A 
HETATM   29  C19 UNL     1       8.476 -38.374   0.183  1.00  0.00     0.034 A 
HETATM   30  C20 UNL     1       7.658 -39.401   0.560  1.00  0.00     0.068 A 
HETATM   31  N5  UNL     1       8.222 -40.154   1.616  1.00  0.00    -0.306 N 
HETATM   32  C21 UNL     1       9.457 -39.951   2.095  1.00  0.00     0.099 A 
HETATM   33  C22 UNL     1       9.624 -40.830   3.143  1.00  0.00     0.021 A 
HETATM   34  C23 UNL     1       8.469 -41.575   3.296  1.00  0.00     0.051 A 
HETATM   35  C24 UNL     1       7.604 -41.129   2.318  1.00  0.00     0.117 A 
ENDROOT
TORSDOF 0
ENDMDL
MODEL 4
REMARK VINA RESULT: -7.805417806      4.896      9.707
REMARK  0 active torsions:
REMARK  status: ('A' for Active; 'I' for Inactive)
REMARK       I    between atoms: C2_2  and  N1_4 
ROOT
HETATM    1  C1  UNL     1       7.618 -35.736   2.021  1.00  0.00     0.117 C 
HETATM    2  C2  UNL     1       8.076 -37.119   1.793  1.00  0.00     0.221 C 
HETATM    3  O1  UNL     1       9.315 -37.326   1.782  1.00  0.00    -0.273 OA
HETATM    4  N1  UNL     1       7.160 -38.166   1.592  1.00  0.00    -0.299 N 
HETATM    5  C3  UNL     1       5.775 -37.856   1.961  1.00  0.00     0.177 C 
HETATM    6  C4  UNL     1       5.319 -38.828   3.025  1.00  0.00     0.023 C 
HETATM    7  C5  UNL     1       4.885 -38.364   4.161  1.00  0.00     0.089 C 
HETATM    8  N2  UNL     1       4.443 -39.126   5.259  1.00  0.00    -0.316 N 
ATOM      9  H2  UNL     1       4.748 -40.098   5.321  1.00  0.00     0.169 HD
HETATM   10  C6  UNL     1       3.596 -38.626   6.284  1.00  0.00     0.259 C 
HETATM   11  O2  UNL     1       3.277 -39.475   7.205  1.00  0.00    -0.267 OA
HETATM   12  C7  UNL     1       3.089 -37.290   6.366  1.00  0.00     0.067 A 
HETATM   13  C8  UNL     1       2.147 -37.021   7.356  1.00  0.00     0.033 A 
HETATM   14  C9  UNL     1       1.516 -35.776   7.416  1.00  0.00    -0.008 A 
HETATM   15  C10 UNL     1       0.577 -35.510   8.403  1.00  0.00     0.014 A 
HETATM   16  C11 UNL     1      -0.031 -34.282   8.442  1.00  0.00     0.001 A 
HETATM   17  C12 UNL     1       0.270 -33.306   7.524  1.00  0.00     0.002 A 
HETATM   18  C13 UNL     1       1.196 -33.588   6.563  1.00  0.00     0.030 A 
HETATM   19  C14 UNL     1       1.841 -34.817   6.480  1.00  0.00     0.043 A 
HETATM   20  N3  UNL     1       2.749 -35.086   5.535  1.00  0.00    -0.349 N 
ATOM     21  H3  UNL     1       2.982 -34.370   4.847  1.00  0.00     0.166 HD
HETATM   22  C15 UNL     1       3.363 -36.287   5.473  1.00  0.00     0.092 A 
HETATM   23  S1  UNL     1       4.684 -36.582   4.311  1.00  0.00    -0.053 SA
HETATM   24  C16 UNL     1       5.263 -40.273   2.769  1.00  0.00     0.070 A 
HETATM   25  N4  UNL     1       4.193 -40.858   3.335  1.00  0.00    -0.364 N 
ATOM     26  H4  UNL     1       3.562 -40.269   3.878  1.00  0.00     0.165 HD
HETATM   27  C17 UNL     1       3.899 -42.158   3.235  1.00  0.00     0.088 A 
HETATM   28  C18 UNL     1       4.743 -42.954   2.505  1.00  0.00     0.019 A 
HETATM   29  C19 UNL     1       5.887 -42.430   1.876  1.00  0.00     0.034 A 
HETATM   30  C20 UNL     1       6.122 -41.092   2.024  1.00  0.00     0.068 A 
HETATM   31  N5  UNL     1       7.264 -40.682   1.299  1.00  0.00    -0.306 N 
HETATM   32  C21 UNL     1       8.076 -41.529   0.651  1.00  0.00     0.099 A 
HETATM   33  C22 UNL     1       9.032 -40.759   0.023  1.00  0.00     0.021 A 
HETATM   34  C23 UNL     1       8.791 -39.426   0.300  1.00  0.00     0.051 A 
HETATM   35  C24 UNL     1       7.672 -39.408   1.107  1.00  0.00     0.117 A 
ENDROOT
TORSDOF 0
ENDMDL
MODEL 5
REMARK VINA RESULT: -7.783923351      6.393      9.701
REMARK  0 active torsions:
REMARK  status: ('A' for Active; 'I' for Inactive)
REMARK       I    between atoms: C2_2  and  N1_4 
ROOT
HETATM    1  C1  UNL     1       0.557 -40.613   3.958  1.00  0.00     0.117 C 
HETATM    2  C2  UNL     1       0.053 -39.992   5.197  1.00  0.00     0.221 C 
HETATM    3  O1  UNL     1      -0.234 -40.755   6.154  1.00  0.00    -0.273 OA
HETATM    4  N1  UNL     1      -0.104 -38.600   5.302  1.00  0.00    -0.299 N 
HETATM    5  C3  UNL     1       0.573 -37.820   4.261  1.00  0.00     0.177 C 
HETATM    6  C4  UNL     1       1.562 -36.881   4.913  1.00  0.00     0.023 C 
HETATM    7  C5  UNL     1       2.816 -36.941   4.566  1.00  0.00     0.089 C 
HETATM    8  N2  UNL     1       3.863 -36.157   5.084  1.00  0.00    -0.316 N 
ATOM      9  H2  UNL     1       3.728 -35.720   5.997  1.00  0.00     0.169 HD
HETATM   10  C6  UNL     1       5.096 -35.934   4.415  1.00  0.00     0.259 C 
HETATM   11  O2  UNL     1       5.936 -35.171   5.034  1.00  0.00    -0.267 OA
HETATM   12  C7  UNL     1       5.462 -36.480   3.143  1.00  0.00     0.067 A 
HETATM   13  C8  UNL     1       6.648 -36.029   2.568  1.00  0.00     0.033 A 
HETATM   14  C9  UNL     1       7.005 -36.421   1.276  1.00  0.00    -0.008 A 
HETATM   15  C10 UNL     1       8.186 -35.969   0.705  1.00  0.00     0.014 A 
HETATM   16  C11 UNL     1       8.516 -36.365  -0.565  1.00  0.00     0.001 A 
HETATM   17  C12 UNL     1       7.700 -37.202  -1.288  1.00  0.00     0.002 A 
HETATM   18  C13 UNL     1       6.545 -37.634  -0.707  1.00  0.00     0.030 A 
HETATM   19  C14 UNL     1       6.164 -37.262   0.578  1.00  0.00     0.043 A 
HETATM   20  N3  UNL     1       5.029 -37.691   1.141  1.00  0.00    -0.349 N 
ATOM     21  H3  UNL     1       4.415 -38.313   0.615  1.00  0.00     0.166 HD
HETATM   22  C15 UNL     1       4.680 -37.317   2.390  1.00  0.00     0.092 A 
HETATM   23  S1  UNL     1       3.247 -38.018   3.190  1.00  0.00    -0.053 SA
HETATM   24  C16 UNL     1       1.125 -35.841   5.854  1.00  0.00     0.070 A 
HETATM   25  N4  UNL     1       1.806 -34.692   5.708  1.00  0.00    -0.364 N 
ATOM     26  H4  UNL     1       2.541 -34.662   5.001  1.00  0.00     0.165 HD
HETATM   27  C17 UNL     1       1.588 -33.585   6.426  1.00  0.00     0.088 A 
HETATM   28  C18 UNL     1       0.601 -33.619   7.376  1.00  0.00     0.019 A 
HETATM   29  C19 UNL     1      -0.165 -34.778   7.599  1.00  0.00     0.034 A 
HETATM   30  C20 UNL     1       0.117 -35.870   6.827  1.00  0.00     0.068 A 
HETATM   31  N5  UNL     1      -0.758 -36.944   7.107  1.00  0.00    -0.306 N 
HETATM   32  C21 UNL     1      -1.666 -36.924   8.093  1.00  0.00     0.099 A 
HETATM   33  C22 UNL     1      -2.359 -38.113   8.016  1.00  0.00     0.021 A 
HETATM   34  C23 UNL     1      -1.858 -38.862   6.967  1.00  0.00     0.051 A 
HETATM   35  C24 UNL     1      -0.849 -38.100   6.414  1.00  0.00     0.117 A 
ENDROOT
TORSDOF 0
ENDMDL
