MODEL 1
REMARK VINA RESULT: -8.878085663      0.000      0.000
REMARK  2 active torsions:
REMARK  status: ('A' for Active; 'I' for Inactive)
REMARK    1  A    between atoms: C13_19  and  C14_20 
REMARK    2  A    between atoms: C15_21  and  C16_22 
ROOT
HETATM    1  N1  UNL     1      -0.899 -36.703  -8.244  1.00  0.00    -0.191 NA
HETATM    2  C1  UNL     1      -0.537 -37.654  -7.673  1.00  0.00     0.099 C 
HETATM    3  C2  UNL     1      -0.108 -38.830  -6.985  1.00  0.00     0.045 A 
HETATM    4  C3  UNL     1       1.192 -39.029  -6.566  1.00  0.00     0.025 A 
HETATM    5  C4  UNL     1       1.574 -40.188  -5.896  1.00  0.00     0.032 A 
HETATM    6  C5  UNL     1       0.593 -41.094  -5.683  1.00  0.00     0.052 A 
HETATM    7  C6  UNL     1      -0.734 -40.923  -6.102  1.00  0.00    -0.006 A 
HETATM    8  C7  UNL     1      -1.084 -39.806  -6.743  1.00  0.00     0.034 A 
HETATM    9  C8  UNL     1      -1.769 -42.014  -5.946  1.00  0.00     0.209 C 
HETATM   10  O1  UNL     1      -1.217 -43.070  -6.662  1.00  0.00    -0.379 OA
HETATM   11  C9  UNL     1      -0.443 -43.977  -6.024  1.00  0.00     0.245 C 
HETATM   12  C10 UNL     1       0.635 -43.493  -5.131  1.00  0.00     0.117 A 
HETATM   13  N2  UNL     1       1.189 -44.470  -4.392  1.00  0.00    -0.329 N 
ATOM     14  H2  UNL     1       0.891 -45.438  -4.511  1.00  0.00     0.168 HD
HETATM   15  C11 UNL     1       2.137 -44.159  -3.497  1.00  0.00     0.122 A 
HETATM   16  N3  UNL     1       2.703 -45.139  -2.750  1.00  0.00    -0.350 N 
ATOM     17  H3  UNL     1       2.394 -46.103  -2.883  1.00  0.00     0.166 HD
HETATM   18  C12 UNL     1       3.656 -44.881  -1.840  1.00  0.00     0.110 A 
HETATM   19  C13 UNL     1       4.124 -43.590  -1.609  1.00  0.00     0.034 A 
HETATM   20  C26 UNL     1       3.539 -42.608  -2.375  1.00  0.00     0.043 A 
HETATM   21  C27 UNL     1       2.568 -42.862  -3.302  1.00  0.00     0.078 A 
HETATM   22  C28 UNL     1       1.993 -41.850  -4.067  1.00  0.00     0.267 A 
HETATM   23  O2  UNL     1       2.354 -40.692  -3.895  1.00  0.00    -0.267 OA
HETATM   24  N4  UNL     1       1.067 -42.217  -4.937  1.00  0.00    -0.265 N 
ENDROOT
BRANCH  19  25
HETATM   25  C14 UNL     1       5.142 -43.310  -0.638  1.00  0.00    -0.060 C 
HETATM   26  C15 UNL     1       6.009 -43.092   0.170  1.00  0.00    -0.060 C 
BRANCH  26  27
HETATM   27  C16 UNL     1       7.030 -42.831   1.154  1.00  0.00     0.029 A 
HETATM   28  C17 UNL     1       7.352 -43.772   2.100  1.00  0.00     0.021 A 
HETATM   29  C18 UNL     1       8.334 -43.547   3.063  1.00  0.00     0.002 A 
HETATM   30  C19 UNL     1       8.982 -42.336   3.037  1.00  0.00     0.012 A 
HETATM   31  C20 UNL     1       8.696 -41.355   2.105  1.00  0.00    -0.025 A 
HETATM   32  C21 UNL     1       9.369 -40.149   2.110  1.00  0.00     0.012 A 
HETATM   33  C25 UNL     1       7.717 -41.619   1.171  1.00  0.00    -0.007 A 
HETATM   34  C22 UNL     1       9.077 -39.175   1.176  1.00  0.00     0.001 A 
HETATM   35  C23 UNL     1       8.085 -39.461   0.243  1.00  0.00     0.001 A 
HETATM   36  C24 UNL     1       7.410 -40.660   0.230  1.00  0.00     0.014 A 
ENDBRANCH  26  27
ENDBRANCH  19  25
TORSDOF 2
ENDMDL
MODEL 2
REMARK VINA RESULT: -8.573737350      1.391      2.097
REMARK  2 active torsions:
REMARK  status: ('A' for Active; 'I' for Inactive)
REMARK    1  A    between atoms: C13_19  and  C14_20 
REMARK    2  A    between atoms: C15_21  and  C16_22 
ROOT
HETATM    1  N1  UNL     1      -2.404 -37.810  -8.301  1.00  0.00    -0.191 NA
HETATM    2  C1  UNL     1      -1.772 -38.530  -7.635  1.00  0.00     0.099 C 
HETATM    3  C2  UNL     1      -1.008 -39.428  -6.827  1.00  0.00     0.045 A 
HETATM    4  C3  UNL     1       0.337 -39.258  -6.571  1.00  0.00     0.025 A 
HETATM    5  C4  UNL     1       1.048 -40.152  -5.777  1.00  0.00     0.032 A 
HETATM    6  C5  UNL     1       0.337 -41.187  -5.275  1.00  0.00     0.052 A 
HETATM    7  C6  UNL     1      -1.028 -41.390  -5.522  1.00  0.00    -0.006 A 
HETATM    8  C7  UNL     1      -1.696 -40.522  -6.286  1.00  0.00     0.034 A 
HETATM    9  C8  UNL     1      -1.754 -42.624  -5.037  1.00  0.00     0.209 C 
HETATM   10  O1  UNL     1      -1.044 -43.658  -5.636  1.00  0.00    -0.379 OA
HETATM   11  C9  UNL     1      -0.017 -44.234  -4.972  1.00  0.00     0.245 C 
HETATM   12  C10 UNL     1       1.001 -43.364  -4.338  1.00  0.00     0.117 A 
HETATM   13  N2  UNL     1       1.843 -44.035  -3.531  1.00  0.00    -0.329 N 
ATOM     14  H2  UNL     1       1.772 -45.048  -3.441  1.00  0.00     0.168 HD
HETATM   15  C11 UNL     1       2.776 -43.357  -2.847  1.00  0.00     0.122 A 
HETATM   16  N3  UNL     1       3.630 -44.027  -2.034  1.00  0.00    -0.350 N 
ATOM     17  H3  UNL     1       3.546 -45.041  -1.956  1.00  0.00     0.166 HD
HETATM   18  C12 UNL     1       4.582 -43.396  -1.328  1.00  0.00     0.110 A 
HETATM   19  C13 UNL     1       4.752 -42.015  -1.387  1.00  0.00     0.034 A 
HETATM   20  C26 UNL     1       3.876 -41.352  -2.216  1.00  0.00     0.043 A 
HETATM   21  C27 UNL     1       2.904 -41.986  -2.938  1.00  0.00     0.078 A 
HETATM   22  C28 UNL     1       2.031 -41.292  -3.773  1.00  0.00     0.267 A 
HETATM   23  O2  UNL     1       2.124 -40.073  -3.853  1.00  0.00    -0.267 OA
HETATM   24  N4  UNL     1       1.136 -42.013  -4.426  1.00  0.00    -0.265 N 
ENDROOT
BRANCH  19  25
HETATM   25  C14 UNL     1       5.767 -41.339  -0.634  1.00  0.00    -0.060 C 
HETATM   26  C15 UNL     1       6.617 -40.752  -0.012  1.00  0.00    -0.060 C 
BRANCH  26  27
HETATM   27  C16 UNL     1       7.648 -40.068   0.726  1.00  0.00     0.029 A 
HETATM   28  C17 UNL     1       8.458 -40.749   1.601  1.00  0.00     0.021 A 
HETATM   29  C18 UNL     1       9.463 -40.112   2.327  1.00  0.00     0.002 A 
HETATM   30  C19 UNL     1       9.624 -38.761   2.138  1.00  0.00     0.012 A 
HETATM   31  C20 UNL     1       8.836 -38.029   1.268  1.00  0.00    -0.025 A 
HETATM   32  C21 UNL     1       9.028 -36.671   1.104  1.00  0.00     0.012 A 
HETATM   33  C25 UNL     1       7.853 -38.698   0.571  1.00  0.00    -0.007 A 
HETATM   34  C22 UNL     1       8.236 -35.948   0.234  1.00  0.00     0.001 A 
HETATM   35  C23 UNL     1       7.249 -36.642  -0.460  1.00  0.00     0.001 A 
HETATM   36  C24 UNL     1       7.052 -37.995  -0.303  1.00  0.00     0.014 A 
ENDBRANCH  26  27
ENDBRANCH  19  25
TORSDOF 2
ENDMDL
MODEL 3
REMARK VINA RESULT: -8.521435615      3.019      3.512
REMARK  2 active torsions:
REMARK  status: ('A' for Active; 'I' for Inactive)
REMARK    1  A    between atoms: C13_19  and  C14_20 
REMARK    2  A    between atoms: C15_21  and  C16_22 
ROOT
HETATM    1  N1  UNL     1      -3.729 -37.643  -9.169  1.00  0.00    -0.191 NA
HETATM    2  C1  UNL     1      -2.982 -38.212  -8.477  1.00  0.00     0.099 C 
HETATM    3  C2  UNL     1      -2.070 -38.927  -7.640  1.00  0.00     0.045 A 
HETATM    4  C3  UNL     1      -0.938 -38.356  -7.095  1.00  0.00     0.025 A 
HETATM    5  C4  UNL     1      -0.073 -39.083  -6.282  1.00  0.00     0.032 A 
HETATM    6  C5  UNL     1      -0.417 -40.372  -6.062  1.00  0.00     0.052 A 
HETATM    7  C6  UNL     1      -1.557 -40.980  -6.605  1.00  0.00    -0.006 A 
HETATM    8  C7  UNL     1      -2.377 -40.270  -7.383  1.00  0.00     0.034 A 
HETATM    9  C8  UNL     1      -1.838 -42.455  -6.427  1.00  0.00     0.209 C 
HETATM   10  O1  UNL     1      -0.715 -43.055  -6.984  1.00  0.00    -0.379 OA
HETATM   11  C9  UNL     1       0.341 -43.356  -6.195  1.00  0.00     0.245 C 
HETATM   12  C10 UNL     1       0.858 -42.322  -5.268  1.00  0.00     0.117 A 
HETATM   13  N2  UNL     1       1.758 -42.800  -4.390  1.00  0.00    -0.329 N 
ATOM     14  H2  UNL     1       2.054 -43.775  -4.436  1.00  0.00     0.168 HD
HETATM   15  C11 UNL     1       2.261 -41.982  -3.455  1.00  0.00     0.122 A 
HETATM   16  N3  UNL     1       3.171 -42.456  -2.568  1.00  0.00    -0.350 N 
ATOM     17  H3  UNL     1       3.458 -43.433  -2.628  1.00  0.00     0.166 HD
HETATM   18  C12 UNL     1       3.705 -41.678  -1.613  1.00  0.00     0.110 A 
HETATM   19  C13 UNL     1       3.358 -40.336  -1.475  1.00  0.00     0.034 A 
HETATM   20  C26 UNL     1       2.434 -39.873  -2.383  1.00  0.00     0.043 A 
HETATM   21  C27 UNL     1       1.885 -40.657  -3.357  1.00  0.00     0.078 A 
HETATM   22  C28 UNL     1       0.952 -40.164  -4.266  1.00  0.00     0.267 A 
HETATM   23  O2  UNL     1       0.597 -38.994  -4.183  1.00  0.00    -0.267 OA
HETATM   24  N4  UNL     1       0.495 -41.014  -5.169  1.00  0.00    -0.265 N 
ENDROOT
BRANCH  19  25
HETATM   25  C14 UNL     1       3.927 -39.503  -0.456  1.00  0.00    -0.060 C 
HETATM   26  C15 UNL     1       4.400 -38.785   0.390  1.00  0.00    -0.060 C 
BRANCH  26  27
HETATM   27  C16 UNL     1       4.986 -37.939   1.399  1.00  0.00     0.029 A 
HETATM   28  C17 UNL     1       4.458 -37.885   2.665  1.00  0.00     0.021 A 
HETATM   29  C18 UNL     1       5.005 -37.076   3.660  1.00  0.00     0.002 A 
HETATM   30  C19 UNL     1       6.106 -36.323   3.332  1.00  0.00     0.012 A 
HETATM   31  C20 UNL     1       6.676 -36.342   2.072  1.00  0.00    -0.025 A 
HETATM   32  C21 UNL     1       7.784 -35.571   1.779  1.00  0.00     0.012 A 
HETATM   33  C25 UNL     1       6.103 -37.155   1.117  1.00  0.00    -0.007 A 
HETATM   34  C22 UNL     1       8.346 -35.595   0.518  1.00  0.00     0.001 A 
HETATM   35  C23 UNL     1       7.753 -36.423  -0.431  1.00  0.00     0.001 A 
HETATM   36  C24 UNL     1       6.650 -37.195  -0.147  1.00  0.00     0.014 A 
ENDBRANCH  26  27
ENDBRANCH  19  25
TORSDOF 2
ENDMDL
MODEL 4
REMARK VINA RESULT: -8.428127727      3.383     10.089
REMARK  2 active torsions:
REMARK  status: ('A' for Active; 'I' for Inactive)
REMARK    1  A    between atoms: C13_19  and  C14_20 
REMARK    2  A    between atoms: C15_21  and  C16_22 
ROOT
HETATM    1  N1  UNL     1       8.498 -34.824   1.642  1.00  0.00    -0.191 NA
HETATM    2  C1  UNL     1       8.053 -35.850   1.310  1.00  0.00     0.099 C 
HETATM    3  C2  UNL     1       7.521 -37.117   0.916  1.00  0.00     0.045 A 
HETATM    4  C3  UNL     1       6.184 -37.325   0.647  1.00  0.00     0.025 A 
HETATM    5  C4  UNL     1       5.702 -38.573   0.263  1.00  0.00     0.032 A 
HETATM    6  C5  UNL     1       6.625 -39.556   0.169  1.00  0.00     0.052 A 
HETATM    7  C6  UNL     1       7.989 -39.376   0.441  1.00  0.00    -0.006 A 
HETATM    8  C7  UNL     1       8.435 -38.173   0.808  1.00  0.00     0.034 A 
HETATM    9  C8  UNL     1       8.965 -40.531   0.436  1.00  0.00     0.209 C 
HETATM   10  O1  UNL     1       8.437 -41.388   1.396  1.00  0.00    -0.379 OA
HETATM   11  C9  UNL     1       7.577 -42.361   1.020  1.00  0.00     0.245 C 
HETATM   12  C10 UNL     1       6.445 -42.011   0.131  1.00  0.00     0.117 A 
HETATM   13  N2  UNL     1       5.793 -43.086  -0.345  1.00  0.00    -0.329 N 
ATOM     14  H2  UNL     1       6.063 -44.025  -0.050  1.00  0.00     0.168 HD
HETATM   15  C11 UNL     1       4.784 -42.912  -1.210  1.00  0.00     0.122 A 
HETATM   16  N3  UNL     1       4.119 -43.992  -1.692  1.00  0.00    -0.350 N 
ATOM     17  H3  UNL     1       4.401 -44.923  -1.386  1.00  0.00     0.166 HD
HETATM   18  C12 UNL     1       3.102 -43.872  -2.560  1.00  0.00     0.110 A 
HETATM   19  C13 UNL     1       2.665 -42.631  -3.018  1.00  0.00     0.034 A 
HETATM   20  C26 UNL     1       3.351 -41.547  -2.519  1.00  0.00     0.043 A 
HETATM   21  C27 UNL     1       4.388 -41.660  -1.636  1.00  0.00     0.078 A 
HETATM   22  C28 UNL     1       5.065 -40.547  -1.143  1.00  0.00     0.267 A 
HETATM   23  O2  UNL     1       4.734 -39.430  -1.524  1.00  0.00    -0.267 OA
HETATM   24  N4  UNL     1       6.047 -40.780  -0.290  1.00  0.00    -0.265 N 
ENDROOT
BRANCH  19  25
HETATM   25  C14 UNL     1       1.579 -42.500  -3.945  1.00  0.00    -0.060 C 
HETATM   26  C15 UNL     1       0.680 -42.384  -4.739  1.00  0.00    -0.060 C 
BRANCH  26  27
HETATM   27  C16 UNL     1      -0.406 -42.230  -5.674  1.00  0.00     0.029 A 
HETATM   28  C17 UNL     1      -1.429 -41.348  -5.427  1.00  0.00     0.021 A 
HETATM   29  C18 UNL     1      -2.491 -41.179  -6.313  1.00  0.00     0.002 A 
HETATM   30  C19 UNL     1      -2.485 -41.934  -7.461  1.00  0.00     0.012 A 
HETATM   31  C20 UNL     1      -1.480 -42.836  -7.758  1.00  0.00    -0.025 A 
HETATM   32  C21 UNL     1      -1.508 -43.577  -8.923  1.00  0.00     0.012 A 
HETATM   33  C25 UNL     1      -0.448 -42.972  -6.853  1.00  0.00    -0.007 A 
HETATM   34  C22 UNL     1      -0.500 -44.476  -9.211  1.00  0.00     0.001 A 
HETATM   35  C23 UNL     1       0.532 -44.598  -8.285  1.00  0.00     0.001 A 
HETATM   36  C24 UNL     1       0.568 -43.863  -7.122  1.00  0.00     0.014 A 
ENDBRANCH  26  27
ENDBRANCH  19  25
TORSDOF 2
ENDMDL
MODEL 5
REMARK VINA RESULT: -8.389078822      2.777      3.801
REMARK  2 active torsions:
REMARK  status: ('A' for Active; 'I' for Inactive)
REMARK    1  A    between atoms: C13_19  and  C14_20 
REMARK    2  A    between atoms: C15_21  and  C16_22 
ROOT
HETATM    1  N1  UNL     1      -3.877 -39.433  -8.549  1.00  0.00    -0.191 NA
HETATM    2  C1  UNL     1      -3.041 -39.848  -7.848  1.00  0.00     0.099 C 
HETATM    3  C2  UNL     1      -2.024 -40.375  -6.994  1.00  0.00     0.045 A 
HETATM    4  C3  UNL     1      -0.798 -39.767  -6.812  1.00  0.00     0.025 A 
HETATM    5  C4  UNL     1       0.168 -40.309  -5.970  1.00  0.00     0.032 A 
HETATM    6  C5  UNL     1      -0.174 -41.458  -5.345  1.00  0.00     0.052 A 
HETATM    7  C6  UNL     1      -1.409 -42.102  -5.514  1.00  0.00    -0.006 A 
HETATM    8  C7  UNL     1      -2.325 -41.569  -6.325  1.00  0.00     0.034 A 
HETATM    9  C8  UNL     1      -1.702 -43.445  -4.886  1.00  0.00     0.209 C 
HETATM   10  O1  UNL     1      -0.708 -44.260  -5.417  1.00  0.00    -0.379 OA
HETATM   11  C9  UNL     1       0.456 -44.415  -4.747  1.00  0.00     0.245 C 
HETATM   12  C10 UNL     1       1.154 -43.211  -4.240  1.00  0.00     0.117 A 
HETATM   13  N2  UNL     1       2.174 -43.499  -3.412  1.00  0.00    -0.329 N 
ATOM     14  H2  UNL     1       2.428 -44.469  -3.226  1.00  0.00     0.168 HD
HETATM   15  C11 UNL     1       2.853 -42.498  -2.834  1.00  0.00     0.122 A 
HETATM   16  N3  UNL     1       3.884 -42.781  -2.000  1.00  0.00    -0.350 N 
ATOM     17  H3  UNL     1       4.126 -43.757  -1.825  1.00  0.00     0.166 HD
HETATM   18  C12 UNL     1       4.597 -41.816  -1.396  1.00  0.00     0.110 A 
HETATM   19  C13 UNL     1       4.321 -40.465  -1.590  1.00  0.00     0.034 A 
HETATM   20  C26 UNL     1       3.271 -40.197  -2.439  1.00  0.00     0.043 A 
HETATM   21  C27 UNL     1       2.541 -41.172  -3.057  1.00  0.00     0.078 A 
HETATM   22  C28 UNL     1       1.484 -40.875  -3.914  1.00  0.00     0.267 A 
HETATM   23  O2  UNL     1       1.185 -39.703  -4.110  1.00  0.00    -0.267 OA
HETATM   24  N4  UNL     1       0.855 -41.901  -4.459  1.00  0.00    -0.265 N 
ENDROOT
BRANCH  19  25
HETATM   25  C14 UNL     1       5.079 -39.432  -0.947  1.00  0.00    -0.060 C 
HETATM   26  C15 UNL     1       5.734 -38.568  -0.419  1.00  0.00    -0.060 C 
BRANCH  26  27
HETATM   27  C16 UNL     1       6.511 -37.545   0.233  1.00  0.00     0.029 A 
HETATM   28  C17 UNL     1       7.567 -36.946  -0.409  1.00  0.00     0.021 A 
HETATM   29  C18 UNL     1       8.335 -35.954   0.198  1.00  0.00     0.002 A 
HETATM   30  C19 UNL     1       8.000 -35.586   1.478  1.00  0.00     0.012 A 
HETATM   31  C20 UNL     1       6.947 -36.157   2.169  1.00  0.00    -0.025 A 
HETATM   32  C21 UNL     1       6.640 -35.762   3.456  1.00  0.00     0.012 A 
HETATM   33  C25 UNL     1       6.214 -37.136   1.531  1.00  0.00    -0.007 A 
HETATM   34  C22 UNL     1       5.587 -36.338   4.138  1.00  0.00     0.001 A 
HETATM   35  C23 UNL     1       4.859 -37.323   3.477  1.00  0.00     0.001 A 
HETATM   36  C24 UNL     1       5.158 -37.723   2.195  1.00  0.00     0.014 A 
ENDBRANCH  26  27
ENDBRANCH  19  25
TORSDOF 2
ENDMDL
