MODEL 1
REMARK VINA RESULT: -4.982023864      0.000      0.000
REMARK  5 active torsions:
REMARK  status: ('A' for Active; 'I' for Inactive)
REMARK    1  A    between atoms: N1_2  and  C2_4 
REMARK    2  A    between atoms: N3_8  and  C4_9 
REMARK    3  A    between atoms: C4_9  and  O1_10 
REMARK    4  A    between atoms: C6_13  and  N4_14 
REMARK    5  A    between atoms: C8_18  and  N6_19 
ROOT
HETATM    1  C2  UNL     1       7.272  14.948  38.471  1.00  0.00     0.706 A 
HETATM    2  N2  UNL     1       6.843  14.788  39.713  1.00  0.00    -0.020 N 
ATOM      3  H2  UNL     1       6.875  15.591  40.342  1.00  0.00     0.203 HD
HETATM    4  C3  UNL     1       6.356  13.594  40.204  1.00  0.00     0.730 A 
HETATM    5  N3  UNL     1       5.926  13.440  41.457  1.00  0.00    -0.124 N 
HETATM    6  S1  UNL     1       5.459  11.822  41.497  1.00  0.00     0.045 SA
HETATM    7  C6  UNL     1       5.842  11.416  39.885  1.00  0.00     0.202 A 
HETATM    8  N5  UNL     1       6.317  12.572  39.400  1.00  0.00     0.047 N 
HETATM    9  C8  UNL     1       6.760  12.734  38.111  1.00  0.00     0.713 A 
HETATM   10  N7  UNL     1       7.232  13.910  37.653  1.00  0.00    -0.021 N 
ATOM     11  H7  UNL     1       7.555  13.998  36.688  1.00  0.00     0.203 HD
ENDROOT
BRANCH   1  12
HETATM   12  N1  UNL     1       7.721  16.107  38.073  1.00  0.00    -0.229 N 
HETATM   13  C1  UNL     1       7.191  16.674  36.848  1.00  0.00     0.165 C 
ATOM     14  H1  UNL     1       8.429  16.604  38.613  1.00  0.00     0.177 HD
ENDBRANCH   1  12
BRANCH   9  15
HETATM   15  N6  UNL     1       6.742  11.752  37.274  1.00  0.00    -0.233 N 
ATOM     16  H62 UNL     1       5.975  11.087  37.366  1.00  0.00     0.174 HD
ATOM     17  H61 UNL     1       7.464  11.658  36.559  1.00  0.00     0.174 HD
ENDBRANCH   9  15
BRANCH   5  18
HETATM   18  C4  UNL     1       5.872  14.437  42.545  1.00  0.00     0.324 C 
BRANCH  18  19
HETATM   19  O1  UNL     1       7.168  14.751  42.880  1.00  0.00    -0.375 OA
HETATM   20  C5  UNL     1       7.173  15.945  43.609  1.00  0.00     0.203 C 
ENDBRANCH  18  19
ENDBRANCH   5  18
BRANCH   7  21
HETATM   21  N4  UNL     1       5.692  10.257  39.313  1.00  0.00    -0.372 N 
HETATM   22  C7  UNL     1       4.498   9.519  39.576  1.00  0.00     0.148 C 
ATOM     23  H4  UNL     1       6.410   9.884  38.692  1.00  0.00     0.161 HD
ENDBRANCH   7  21
TORSDOF 5
ENDMDL
MODEL 2
REMARK VINA RESULT: -4.971812994      3.272      5.182
REMARK  5 active torsions:
REMARK  status: ('A' for Active; 'I' for Inactive)
REMARK    1  A    between atoms: N1_2  and  C2_4 
REMARK    2  A    between atoms: N3_8  and  C4_9 
REMARK    3  A    between atoms: C4_9  and  O1_10 
REMARK    4  A    between atoms: C6_13  and  N4_14 
REMARK    5  A    between atoms: C8_18  and  N6_19 
ROOT
HETATM    1  C2  UNL     1       5.339  19.079  38.325  1.00  0.00     0.706 A 
HETATM    2  N2  UNL     1       5.551  17.961  39.002  1.00  0.00    -0.020 N 
ATOM      3  H2  UNL     1       5.045  17.825  39.878  1.00  0.00     0.203 HD
HETATM    4  C3  UNL     1       6.418  16.971  38.588  1.00  0.00     0.730 A 
HETATM    5  N3  UNL     1       6.627  15.848  39.276  1.00  0.00    -0.124 N 
HETATM    6  S1  UNL     1       7.751  15.029  38.327  1.00  0.00     0.045 SA
HETATM    7  C6  UNL     1       7.901  16.180  37.078  1.00  0.00     0.202 A 
HETATM    8  N5  UNL     1       7.061  17.147  37.472  1.00  0.00     0.047 N 
HETATM    9  C8  UNL     1       6.844  18.305  36.765  1.00  0.00     0.713 A 
HETATM   10  N7  UNL     1       5.992  19.259  37.189  1.00  0.00    -0.021 N 
ATOM     11  H7  UNL     1       5.853  20.109  36.641  1.00  0.00     0.203 HD
ENDROOT
BRANCH   1  12
HETATM   12  N1  UNL     1       4.504  19.974  38.776  1.00  0.00    -0.229 N 
HETATM   13  C1  UNL     1       3.200  20.084  38.151  1.00  0.00     0.165 C 
ATOM     14  H1  UNL     1       4.763  20.584  39.551  1.00  0.00     0.177 HD
ENDBRANCH   1  12
BRANCH   9  15
HETATM   15  N6  UNL     1       7.456  18.529  35.652  1.00  0.00    -0.233 N 
ATOM     16  H62 UNL     1       8.378  18.106  35.545  1.00  0.00     0.174 HD
ATOM     17  H61 UNL     1       7.030  19.101  34.923  1.00  0.00     0.174 HD
ENDBRANCH   9  15
BRANCH   5  18
HETATM   18  C4  UNL     1       6.024  15.422  40.556  1.00  0.00     0.324 C 
BRANCH  18  19
HETATM   19  O1  UNL     1       5.611  14.119  40.403  1.00  0.00    -0.375 OA
HETATM   20  C5  UNL     1       5.603  13.494  41.654  1.00  0.00     0.203 C 
ENDBRANCH  18  19
ENDBRANCH   5  18
BRANCH   7  21
HETATM   21  N4  UNL     1       8.658  16.096  36.022  1.00  0.00    -0.372 N 
HETATM   22  C7  UNL     1       9.199  14.821  35.674  1.00  0.00     0.148 C 
ATOM     23  H4  UNL     1       8.860  16.921  35.457  1.00  0.00     0.161 HD
ENDBRANCH   7  21
TORSDOF 5
ENDMDL
MODEL 3
REMARK VINA RESULT: -4.947861279      1.508      4.231
REMARK  5 active torsions:
REMARK  status: ('A' for Active; 'I' for Inactive)
REMARK    1  A    between atoms: N1_2  and  C2_4 
REMARK    2  A    between atoms: N3_8  and  C4_9 
REMARK    3  A    between atoms: C4_9  and  O1_10 
REMARK    4  A    between atoms: C6_13  and  N4_14 
REMARK    5  A    between atoms: C8_18  and  N6_19 
ROOT
HETATM    1  C2  UNL     1       5.150  10.767  40.138  1.00  0.00     0.706 A 
HETATM    2  N2  UNL     1       5.298  11.876  40.845  1.00  0.00    -0.020 N 
ATOM      3  H2  UNL     1       4.905  11.903  41.786  1.00  0.00     0.203 HD
HETATM    4  C3  UNL     1       5.955  12.996  40.379  1.00  0.00     0.730 A 
HETATM    5  N3  UNL     1       6.100  14.110  41.098  1.00  0.00    -0.124 N 
HETATM    6  S1  UNL     1       6.958  15.119  40.058  1.00  0.00     0.045 SA
HETATM    7  C6  UNL     1       7.092  14.050  38.735  1.00  0.00     0.202 A 
HETATM    8  N5  UNL     1       6.455  12.957  39.180  1.00  0.00     0.047 N 
HETATM    9  C8  UNL     1       6.305  11.809  38.442  1.00  0.00     0.713 A 
HETATM   10  N7  UNL     1       5.659  10.726  38.918  1.00  0.00    -0.021 N 
ATOM     11  H7  UNL     1       5.563   9.887  38.345  1.00  0.00     0.203 HD
ENDROOT
BRANCH   1  12
HETATM   12  N1  UNL     1       4.516   9.743  40.642  1.00  0.00    -0.229 N 
HETATM   13  C1  UNL     1       3.135   9.524  40.259  1.00  0.00     0.165 C 
ATOM     14  H1  UNL     1       4.983   9.111  41.291  1.00  0.00     0.177 HD
ENDBRANCH   1  12
BRANCH   9  15
HETATM   15  N6  UNL     1       6.782  11.719  37.247  1.00  0.00    -0.233 N 
ATOM     16  H62 UNL     1       7.727  11.345  37.159  1.00  0.00     0.174 HD
ATOM     17  H61 UNL     1       6.233  12.010  36.438  1.00  0.00     0.174 HD
ENDBRANCH   9  15
BRANCH   5  18
HETATM   18  C4  UNL     1       5.626  14.395  42.468  1.00  0.00     0.324 C 
BRANCH  18  19
HETATM   19  O1  UNL     1       6.385  13.639  43.331  1.00  0.00    -0.375 OA
HETATM   20  C5  UNL     1       5.550  13.089  44.309  1.00  0.00     0.203 C 
ENDBRANCH  18  19
ENDBRANCH   5  18
BRANCH   7  21
HETATM   21  N4  UNL     1       7.677  14.283  37.596  1.00  0.00    -0.372 N 
HETATM   22  C7  UNL     1       7.536  15.580  37.013  1.00  0.00     0.148 C 
ATOM     23  H4  UNL     1       8.222  13.558  37.131  1.00  0.00     0.161 HD
ENDBRANCH   7  21
TORSDOF 5
ENDMDL
MODEL 4
REMARK VINA RESULT: -4.926303115      3.041      4.957
REMARK  5 active torsions:
REMARK  status: ('A' for Active; 'I' for Inactive)
REMARK    1  A    between atoms: N1_2  and  C2_4 
REMARK    2  A    between atoms: N3_8  and  C4_9 
REMARK    3  A    between atoms: C4_9  and  O1_10 
REMARK    4  A    between atoms: C6_13  and  N4_14 
REMARK    5  A    between atoms: C8_18  and  N6_19 
ROOT
HETATM    1  C2  UNL     1       6.180  14.923  41.043  1.00  0.00     0.706 A 
HETATM    2  N2  UNL     1       6.282  16.055  40.364  1.00  0.00    -0.020 N 
ATOM      3  H2  UNL     1       5.942  16.912  40.802  1.00  0.00     0.203 HD
HETATM    4  C3  UNL     1       6.821  16.139  39.097  1.00  0.00     0.730 A 
HETATM    5  N3  UNL     1       6.920  17.283  38.419  1.00  0.00    -0.124 N 
HETATM    6  S1  UNL     1       7.635  16.803  36.973  1.00  0.00     0.045 SA
HETATM    7  C6  UNL     1       7.776  15.137  37.311  1.00  0.00     0.202 A 
HETATM    8  N5  UNL     1       7.254  15.046  38.542  1.00  0.00     0.047 N 
HETATM    9  C8  UNL     1       7.151  13.869  39.242  1.00  0.00     0.713 A 
HETATM   10  N7  UNL     1       6.620  13.810  40.480  1.00  0.00    -0.021 N 
ATOM     11  H7  UNL     1       6.558  12.920  40.974  1.00  0.00     0.203 HD
ENDROOT
BRANCH   1  12
HETATM   12  N1  UNL     1       5.659  14.916  42.239  1.00  0.00    -0.229 N 
HETATM   13  C1  UNL     1       5.607  13.663  42.967  1.00  0.00     0.165 C 
ATOM     14  H1  UNL     1       5.295  15.775  42.653  1.00  0.00     0.177 HD
ENDBRANCH   1  12
BRANCH   9  15
HETATM   15  N6  UNL     1       7.565  12.756  38.737  1.00  0.00    -0.233 N 
ATOM     16  H62 UNL     1       7.908  12.790  37.777  1.00  0.00     0.174 HD
ATOM     17  H61 UNL     1       7.546  11.893  39.280  1.00  0.00     0.174 HD
ENDBRANCH   9  15
BRANCH   5  18
HETATM   18  C4  UNL     1       6.504  18.640  38.830  1.00  0.00     0.324 C 
BRANCH  18  19
HETATM   19  O1  UNL     1       5.173  18.577  39.171  1.00  0.00    -0.375 OA
HETATM   20  C5  UNL     1       4.470  19.537  38.435  1.00  0.00     0.203 C 
ENDBRANCH  18  19
ENDBRANCH   5  18
BRANCH   7  21
HETATM   21  N4  UNL     1       8.275  14.219  36.534  1.00  0.00    -0.372 N 
HETATM   22  C7  UNL     1       9.330  14.584  35.642  1.00  0.00     0.148 C 
ATOM     23  H4  UNL     1       7.921  13.263  36.561  1.00  0.00     0.161 HD
ENDBRANCH   7  21
TORSDOF 5
ENDMDL
MODEL 5
REMARK VINA RESULT: -4.840757411      2.548      4.107
REMARK  5 active torsions:
REMARK  status: ('A' for Active; 'I' for Inactive)
REMARK    1  A    between atoms: N1_2  and  C2_4 
REMARK    2  A    between atoms: N3_8  and  C4_9 
REMARK    3  A    between atoms: C4_9  and  O1_10 
REMARK    4  A    between atoms: C6_13  and  N4_14 
REMARK    5  A    between atoms: C8_18  and  N6_19 
ROOT
HETATM    1  C2  UNL     1       9.262  12.443  40.171  1.00  0.00     0.706 A 
HETATM    2  N2  UNL     1       8.626  13.329  40.921  1.00  0.00    -0.020 N 
ATOM      3  H2  UNL     1       8.755  13.285  41.933  1.00  0.00     0.203 HD
HETATM    4  C3  UNL     1       7.799  14.308  40.411  1.00  0.00     0.730 A 
HETATM    5  N3  UNL     1       7.162  15.197  41.173  1.00  0.00    -0.124 N 
HETATM    6  S1  UNL     1       6.320  16.124  40.047  1.00  0.00     0.045 SA
HETATM    7  C6  UNL     1       6.832  15.317  38.635  1.00  0.00     0.202 A 
HETATM    8  N5  UNL     1       7.637  14.362  39.122  1.00  0.00     0.047 N 
HETATM    9  C8  UNL     1       8.295  13.446  38.338  1.00  0.00     0.713 A 
HETATM   10  N7  UNL     1       9.098  12.497  38.859  1.00  0.00    -0.021 N 
ATOM     11  H7  UNL     1       9.573  11.830  38.250  1.00  0.00     0.203 HD
ENDROOT
BRANCH   1  12
HETATM   12  N1  UNL     1      10.030  11.543  40.721  1.00  0.00    -0.229 N 
HETATM   13  C1  UNL     1      10.944  10.799  39.876  1.00  0.00     0.165 C 
ATOM     14  H1  UNL     1       9.988  11.367  41.725  1.00  0.00     0.177 HD
ENDBRANCH   1  12
BRANCH   9  15
HETATM   15  N6  UNL     1       8.168  13.456  37.055  1.00  0.00    -0.233 N 
ATOM     16  H62 UNL     1       7.527  12.771  36.654  1.00  0.00     0.174 HD
ATOM     17  H61 UNL     1       8.688  14.120  36.480  1.00  0.00     0.174 HD
ENDBRANCH   9  15
BRANCH   5  18
HETATM   18  C4  UNL     1       7.184  15.339  42.644  1.00  0.00     0.324 C 
BRANCH  18  19
HETATM   19  O1  UNL     1       6.919  14.100  43.180  1.00  0.00    -0.375 OA
HETATM   20  C5  UNL     1       5.533  13.932  43.272  1.00  0.00     0.203 C 
ENDBRANCH  18  19
ENDBRANCH   5  18
BRANCH   7  21
HETATM   21  N4  UNL     1       6.497  15.595  37.408  1.00  0.00    -0.372 N 
HETATM   22  C7  UNL     1       6.814  16.891  36.895  1.00  0.00     0.148 C 
ATOM     23  H4  UNL     1       6.019  14.906  36.828  1.00  0.00     0.161 HD
ENDBRANCH   7  21
TORSDOF 5
ENDMDL
