MODEL 1
REMARK VINA RESULT: -5.566670919      0.000      0.000
REMARK  6 active torsions:
REMARK  status: ('A' for Active; 'I' for Inactive)
REMARK    1  A    between atoms: O1_2  and  C2_3 
REMARK    2  A    between atoms: C2_3  and  C3_5 
REMARK    3  A    between atoms: N3_12  and  C7_13 
REMARK    4  A    between atoms: C7_13  and  O3_14 
REMARK    5  A    between atoms: C7_13  and  O4_16 
REMARK    6  A    between atoms: C9_18  and  O5_20 
ROOT
HETATM    1  C3  UNL     1       7.363  17.465  36.911  1.00  0.00     0.112 C 
HETATM    2  C4  UNL     1       8.052  16.388  36.582  1.00  0.00     0.131 C 
HETATM    3  N1  UNL     1       8.968  15.872  35.590  1.00  0.00    -0.373 N 
ATOM      4  H1  UNL     1       9.369  16.389  34.808  1.00  0.00     0.161 HD
HETATM    5  C5  UNL     1       9.207  14.488  35.914  1.00  0.00     0.142 C 
HETATM    6  C6  UNL     1       8.080  14.117  36.865  1.00  0.00     0.165 C 
HETATM    7  N2  UNL     1       7.821  15.359  37.547  1.00  0.00    -0.287 N 
HETATM    8  N3  UNL     1       7.454  16.092  38.693  1.00  0.00    -0.136 NA
HETATM    9  C9  UNL     1       6.630  17.102  38.150  1.00  0.00     0.169 C 
HETATM   10  C10 UNL     1       6.371  18.280  39.031  1.00  0.00     0.072 C 
ENDROOT
BRANCH   8  11
HETATM   11  C7  UNL     1       6.846  15.157  39.597  1.00  0.00     0.362 C 
BRANCH  11  12
HETATM   12  O3  UNL     1       7.928  14.602  40.334  1.00  0.00    -0.357 OA
ATOM     13  H3  UNL     1       7.539  14.292  41.144  1.00  0.00     0.214 HD
ENDBRANCH  11  12
BRANCH  11  14
HETATM   14  O4  UNL     1       6.062  15.786  40.553  1.00  0.00    -0.352 OA
HETATM   15  C8  UNL     1       5.912  15.017  41.703  1.00  0.00     0.206 C 
ENDBRANCH  11  14
ENDBRANCH   8  11
BRANCH   9  16
HETATM   16  O5  UNL     1       5.385  16.592  37.721  1.00  0.00    -0.369 OA
ATOM     17  H5  UNL     1       4.765  16.818  38.405  1.00  0.00     0.212 HD
ENDBRANCH   9  16
BRANCH   1  18
HETATM   18  C2  UNL     1       7.350  18.719  36.172  1.00  0.00     0.297 C 
HETATM   19  O2  UNL     1       6.330  18.991  35.493  1.00  0.00    -0.259 OA
BRANCH  18  20
HETATM   20  O1  UNL     1       8.372  19.625  36.164  1.00  0.00    -0.323 OA
HETATM   21  C1  UNL     1       9.375  19.754  37.123  1.00  0.00     0.213 C 
ENDBRANCH  18  20
ENDBRANCH   1  18
TORSDOF 6
ENDMDL
MODEL 2
REMARK VINA RESULT: -5.365186757      2.497      5.612
REMARK  6 active torsions:
REMARK  status: ('A' for Active; 'I' for Inactive)
REMARK    1  A    between atoms: O1_2  and  C2_3 
REMARK    2  A    between atoms: C2_3  and  C3_5 
REMARK    3  A    between atoms: N3_12  and  C7_13 
REMARK    4  A    between atoms: C7_13  and  O3_14 
REMARK    5  A    between atoms: C7_13  and  O4_16 
REMARK    6  A    between atoms: C9_18  and  O5_20 
ROOT
HETATM    1  C3  UNL     1       7.971  13.278  39.173  1.00  0.00     0.112 C 
HETATM    2  C4  UNL     1       7.598  13.889  40.283  1.00  0.00     0.131 C 
HETATM    3  N1  UNL     1       7.634  13.770  41.723  1.00  0.00    -0.373 N 
ATOM      4  H1  UNL     1       8.102  13.041  42.260  1.00  0.00     0.161 HD
HETATM    5  C5  UNL     1       6.882  14.878  42.258  1.00  0.00     0.142 C 
HETATM    6  C6  UNL     1       6.067  15.390  41.081  1.00  0.00     0.165 C 
HETATM    7  N2  UNL     1       6.921  15.105  39.957  1.00  0.00    -0.287 N 
HETATM    8  N3  UNL     1       7.442  15.411  38.684  1.00  0.00    -0.136 NA
HETATM    9  C9  UNL     1       7.488  14.142  38.066  1.00  0.00     0.169 C 
HETATM   10  C10 UNL     1       8.340  14.039  36.844  1.00  0.00     0.072 C 
ENDROOT
BRANCH   8  11
HETATM   11  C7  UNL     1       6.565  16.393  38.111  1.00  0.00     0.362 C 
BRANCH  11  12
HETATM   12  O3  UNL     1       6.984  17.631  38.672  1.00  0.00    -0.357 OA
ATOM     13  H3  UNL     1       7.464  18.065  37.976  1.00  0.00     0.214 HD
ENDBRANCH  11  12
BRANCH  11  14
HETATM   14  O4  UNL     1       6.766  16.544  36.747  1.00  0.00    -0.352 OA
HETATM   15  C8  UNL     1       7.485  17.696  36.443  1.00  0.00     0.206 C 
ENDBRANCH  11  14
ENDBRANCH   8  11
BRANCH   9  16
HETATM   16  O5  UNL     1       6.198  13.665  37.745  1.00  0.00    -0.369 OA
ATOM     17  H5  UNL     1       5.601  14.136  38.315  1.00  0.00     0.212 HD
ENDBRANCH   9  16
BRANCH   1  18
HETATM   18  C2  UNL     1       8.693  12.016  39.103  1.00  0.00     0.297 C 
HETATM   19  O2  UNL     1       8.071  11.004  38.700  1.00  0.00    -0.259 OA
BRANCH  18  20
HETATM   20  O1  UNL     1      10.005  11.853  39.447  1.00  0.00    -0.323 OA
HETATM   21  C1  UNL     1      10.498  11.495  40.700  1.00  0.00     0.213 C 
ENDBRANCH  18  20
ENDBRANCH   1  18
TORSDOF 6
ENDMDL
MODEL 3
REMARK VINA RESULT: -5.333907887      2.461      5.765
REMARK  6 active torsions:
REMARK  status: ('A' for Active; 'I' for Inactive)
REMARK    1  A    between atoms: O1_2  and  C2_3 
REMARK    2  A    between atoms: C2_3  and  C3_5 
REMARK    3  A    between atoms: N3_12  and  C7_13 
REMARK    4  A    between atoms: C7_13  and  O3_14 
REMARK    5  A    between atoms: C7_13  and  O4_16 
REMARK    6  A    between atoms: C9_18  and  O5_20 
ROOT
HETATM    1  C3  UNL     1       7.978  13.354  39.170  1.00  0.00     0.112 C 
HETATM    2  C4  UNL     1       7.610  13.979  40.273  1.00  0.00     0.131 C 
HETATM    3  N1  UNL     1       7.649  13.878  41.715  1.00  0.00    -0.373 N 
ATOM      4  H1  UNL     1       8.118  13.155  42.259  1.00  0.00     0.161 HD
HETATM    5  C5  UNL     1       6.901  14.994  42.238  1.00  0.00     0.142 C 
HETATM    6  C6  UNL     1       6.083  15.492  41.057  1.00  0.00     0.165 C 
HETATM    7  N2  UNL     1       6.933  15.191  39.934  1.00  0.00    -0.287 N 
HETATM    8  N3  UNL     1       7.450  15.481  38.656  1.00  0.00    -0.136 NA
HETATM    9  C9  UNL     1       7.493  14.205  38.054  1.00  0.00     0.169 C 
HETATM   10  C10 UNL     1       8.341  14.085  36.830  1.00  0.00     0.072 C 
ENDROOT
BRANCH   8  11
HETATM   11  C7  UNL     1       6.573  16.457  38.073  1.00  0.00     0.362 C 
BRANCH  11  12
HETATM   12  O3  UNL     1       6.976  17.698  38.640  1.00  0.00    -0.357 OA
ATOM     13  H3  UNL     1       6.555  18.360  38.104  1.00  0.00     0.214 HD
ENDBRANCH  11  12
BRANCH  11  14
HETATM   14  O4  UNL     1       6.788  16.611  36.712  1.00  0.00    -0.352 OA
HETATM   15  C8  UNL     1       7.558  17.734  36.422  1.00  0.00     0.206 C 
ENDBRANCH  11  14
ENDBRANCH   8  11
BRANCH   9  16
HETATM   16  O5  UNL     1       6.201  13.725  37.743  1.00  0.00    -0.369 OA
ATOM     17  H5  UNL     1       5.724  13.723  38.564  1.00  0.00     0.212 HD
ENDBRANCH   9  16
BRANCH   1  18
HETATM   18  C2  UNL     1       8.698  12.090  39.114  1.00  0.00     0.297 C 
HETATM   19  O2  UNL     1       9.938  12.111  39.309  1.00  0.00    -0.259 OA
BRANCH  18  20
HETATM   20  O1  UNL     1       8.120  10.878  38.862  1.00  0.00    -0.323 OA
HETATM   21  C1  UNL     1       8.380   9.680  39.524  1.00  0.00     0.213 C 
ENDBRANCH  18  20
ENDBRANCH   1  18
TORSDOF 6
ENDMDL
MODEL 4
REMARK VINA RESULT: -5.292684341      3.324      4.903
REMARK  6 active torsions:
REMARK  status: ('A' for Active; 'I' for Inactive)
REMARK    1  A    between atoms: O1_2  and  C2_3 
REMARK    2  A    between atoms: C2_3  and  C3_5 
REMARK    3  A    between atoms: N3_12  and  C7_13 
REMARK    4  A    between atoms: C7_13  and  O3_14 
REMARK    5  A    between atoms: C7_13  and  O4_16 
REMARK    6  A    between atoms: C9_18  and  O5_20 
ROOT
HETATM    1  C3  UNL     1       6.676  13.236  39.049  1.00  0.00     0.112 C 
HETATM    2  C4  UNL     1       6.075  12.070  39.199  1.00  0.00     0.131 C 
HETATM    3  N1  UNL     1       5.594  10.925  38.460  1.00  0.00    -0.373 N 
ATOM      4  H1  UNL     1       5.699  10.762  37.459  1.00  0.00     0.161 HD
HETATM    5  C5  UNL     1       4.937  10.056  39.404  1.00  0.00     0.142 C 
HETATM    6  C6  UNL     1       4.688  10.934  40.621  1.00  0.00     0.165 C 
HETATM    7  N2  UNL     1       5.800  11.848  40.584  1.00  0.00    -0.287 N 
HETATM    8  N3  UNL     1       6.772  12.646  41.220  1.00  0.00    -0.136 NA
HETATM    9  C9  UNL     1       6.777  13.807  40.416  1.00  0.00     0.169 C 
HETATM   10  C10 UNL     1       7.957  14.709  40.576  1.00  0.00     0.072 C 
ENDROOT
BRANCH   8  11
HETATM   11  C7  UNL     1       6.352  12.790  42.585  1.00  0.00     0.362 C 
BRANCH  11  12
HETATM   12  O3  UNL     1       7.045  11.769  43.292  1.00  0.00    -0.357 OA
ATOM     13  H3  UNL     1       6.906  11.969  44.210  1.00  0.00     0.214 HD
ENDBRANCH  11  12
BRANCH  11  14
HETATM   14  O4  UNL     1       6.804  13.972  43.152  1.00  0.00    -0.352 OA
HETATM   15  C8  UNL     1       5.958  14.435  44.155  1.00  0.00     0.206 C 
ENDBRANCH  11  14
ENDBRANCH   8  11
BRANCH   9  16
HETATM   16  O5  UNL     1       5.607  14.577  40.594  1.00  0.00    -0.369 OA
ATOM     17  H5  UNL     1       5.036  14.053  41.145  1.00  0.00     0.212 HD
ENDBRANCH   9  16
BRANCH   1  18
HETATM   18  C2  UNL     1       7.118  13.803  37.783  1.00  0.00     0.297 C 
HETATM   19  O2  UNL     1       8.099  13.270  37.211  1.00  0.00    -0.259 OA
BRANCH  18  20
HETATM   20  O1  UNL     1       6.539  14.878  37.171  1.00  0.00    -0.323 OA
HETATM   21  C1  UNL     1       7.018  16.186  37.160  1.00  0.00     0.213 C 
ENDBRANCH  18  20
ENDBRANCH   1  18
TORSDOF 6
ENDMDL
MODEL 5
REMARK VINA RESULT: -5.082237950      4.337      6.905
REMARK  6 active torsions:
REMARK  status: ('A' for Active; 'I' for Inactive)
REMARK    1  A    between atoms: O1_2  and  C2_3 
REMARK    2  A    between atoms: C2_3  and  C3_5 
REMARK    3  A    between atoms: N3_12  and  C7_13 
REMARK    4  A    between atoms: C7_13  and  O3_14 
REMARK    5  A    between atoms: C7_13  and  O4_16 
REMARK    6  A    between atoms: C9_18  and  O5_20 
ROOT
HETATM    1  C3  UNL     1       5.949  12.982  41.677  1.00  0.00     0.112 C 
HETATM    2  C4  UNL     1       5.067  12.151  41.152  1.00  0.00     0.131 C 
HETATM    3  N1  UNL     1       3.742  11.609  41.352  1.00  0.00    -0.373 N 
ATOM      4  H1  UNL     1       3.086  11.869  42.088  1.00  0.00     0.161 HD
HETATM    5  C5  UNL     1       3.523  10.631  40.316  1.00  0.00     0.142 C 
HETATM    6  C6  UNL     1       4.912  10.329  39.777  1.00  0.00     0.165 C 
HETATM    7  N2  UNL     1       5.600  11.582  39.954  1.00  0.00    -0.287 N 
HETATM    8  N3  UNL     1       6.540  12.550  39.548  1.00  0.00    -0.136 NA
HETATM    9  C9  UNL     1       7.127  12.929  40.775  1.00  0.00     0.169 C 
HETATM   10  C10 UNL     1       7.899  14.208  40.764  1.00  0.00     0.072 C 
ENDROOT
BRANCH   8  11
HETATM   11  C7  UNL     1       7.387  11.914  38.579  1.00  0.00     0.362 C 
BRANCH  11  12
HETATM   12  O3  UNL     1       6.574  11.764  37.422  1.00  0.00    -0.357 OA
ATOM     13  H3  UNL     1       6.835  12.472  36.845  1.00  0.00     0.214 HD
ENDBRANCH  11  12
BRANCH  11  14
HETATM   14  O4  UNL     1       8.425  12.737  38.169  1.00  0.00    -0.352 OA
HETATM   15  C8  UNL     1       8.032  13.630  37.177  1.00  0.00     0.206 C 
ENDBRANCH  11  14
ENDBRANCH   8  11
BRANCH   9  16
HETATM   16  O5  UNL     1       7.961  11.916  41.296  1.00  0.00    -0.369 OA
ATOM     17  H5  UNL     1       8.798  12.022  40.859  1.00  0.00     0.212 HD
ENDBRANCH   9  16
BRANCH   1  18
HETATM   18  C2  UNL     1       5.761  13.756  42.896  1.00  0.00     0.297 C 
HETATM   19  O2  UNL     1       5.266  14.904  42.792  1.00  0.00    -0.259 OA
BRANCH  18  20
HETATM   20  O1  UNL     1       6.085  13.320  44.149  1.00  0.00    -0.323 OA
HETATM   21  C1  UNL     1       5.314  12.497  44.968  1.00  0.00     0.213 C 
ENDBRANCH  18  20
ENDBRANCH   1  18
TORSDOF 6
ENDMDL
