MODEL 1
REMARK VINA RESULT: -5.127342573      0.000      0.000
REMARK  5 active torsions:
REMARK  status: ('A' for Active; 'I' for Inactive)
REMARK    1  A    between atoms: O1_2  and  C2_3 
REMARK    2  A    between atoms: C2_3  and  C3_5 
REMARK    3  A    between atoms: C4_6  and  O3_7 
REMARK    4  A    between atoms: C5_11  and  N2_12 
REMARK    5  A    between atoms: C6_17  and  S1_18 
ROOT
HETATM    1  C3  UNL     1       6.360  12.673  39.650  1.00  0.00     0.132 A 
HETATM    2  C4  UNL     1       5.843  11.555  38.985  1.00  0.00     0.174 A 
HETATM    3  N1  UNL     1       4.743  10.918  39.416  1.00  0.00    -0.170 N 
ATOM      4  H1  UNL     1       4.403  10.107  38.899  1.00  0.00     0.186 HD
HETATM    5  C5  UNL     1       4.082  11.322  40.511  1.00  0.00     0.678 A 
HETATM    6  N3  UNL     1       4.545  12.382  41.166  1.00  0.00    -0.177 N 
ATOM      7  H3  UNL     1       4.052  12.701  42.000  1.00  0.00     0.185 HD
HETATM    8  C6  UNL     1       5.668  13.061  40.757  1.00  0.00     0.185 A 
ENDROOT
BRANCH   1   9
HETATM    9  C2  UNL     1       7.543  13.307  39.138  1.00  0.00     0.300 C 
HETATM   10  O2  UNL     1       8.689  12.806  39.446  1.00  0.00    -0.259 OA
BRANCH   9  11
HETATM   11  O1  UNL     1       7.646  14.418  38.333  1.00  0.00    -0.322 OA
HETATM   12  C1  UNL     1       6.625  14.891  37.489  1.00  0.00     0.213 C 
ENDBRANCH   9  11
ENDBRANCH   1   9
BRANCH   2  13
HETATM   13  O3  UNL     1       6.533  11.135  37.846  1.00  0.00    -0.345 OA
ATOM     14  H3  UNL     1       6.767  11.810  37.219  1.00  0.00     0.219 HD
ENDBRANCH   2  13
BRANCH   8  15
HETATM   15  S1  UNL     1       6.190  14.440  41.680  1.00  0.00     0.156 S 
HETATM   16  O4  UNL     1       7.545  14.253  42.292  1.00  0.00    -0.590 OA
HETATM   17  O5  UNL     1       5.269  14.607  42.905  1.00  0.00    -0.590 OA
HETATM   18  O6  UNL     1       6.196  15.866  40.805  1.00  0.00    -0.590 OA
ENDBRANCH   8  15
BRANCH   5  19
HETATM   19  N2  UNL     1       3.013  10.677  40.903  1.00  0.00    -0.234 N 
ATOM     20  H22 UNL     1       2.073  11.004  40.680  1.00  0.00     0.174 HD
ATOM     21  H21 UNL     1       3.107   9.820  41.448  1.00  0.00     0.174 HD
ENDBRANCH   5  19
TORSDOF 5
ENDMDL
MODEL 2
REMARK VINA RESULT: -5.123403825      0.371      1.125
REMARK  5 active torsions:
REMARK  status: ('A' for Active; 'I' for Inactive)
REMARK    1  A    between atoms: O1_2  and  C2_3 
REMARK    2  A    between atoms: C2_3  and  C3_5 
REMARK    3  A    between atoms: C4_6  and  O3_7 
REMARK    4  A    between atoms: C5_11  and  N2_12 
REMARK    5  A    between atoms: C6_17  and  S1_18 
ROOT
HETATM    1  C3  UNL     1       6.595  12.718  39.538  1.00  0.00     0.132 A 
HETATM    2  C4  UNL     1       6.231  11.582  38.808  1.00  0.00     0.174 A 
HETATM    3  N1  UNL     1       5.165  10.836  39.138  1.00  0.00    -0.170 N 
ATOM      4  H1  UNL     1       4.938  10.015  38.576  1.00  0.00     0.186 HD
HETATM    5  C5  UNL     1       4.391  11.146  40.188  1.00  0.00     0.678 A 
HETATM    6  N3  UNL     1       4.707  12.220  40.904  1.00  0.00    -0.177 N 
ATOM      7  H3  UNL     1       4.127  12.468  41.705  1.00  0.00     0.185 HD
HETATM    8  C6  UNL     1       5.791  13.009  40.599  1.00  0.00     0.185 A 
ENDROOT
BRANCH   1   9
HETATM    9  C2  UNL     1       7.750  13.470  39.134  1.00  0.00     0.300 C 
HETATM   10  O2  UNL     1       8.916  13.016  39.442  1.00  0.00    -0.259 OA
BRANCH   9  11
HETATM   11  O1  UNL     1       7.807  14.655  38.438  1.00  0.00    -0.322 OA
HETATM   12  C1  UNL     1       6.929  15.015  37.399  1.00  0.00     0.213 C 
ENDBRANCH   9  11
ENDBRANCH   1   9
BRANCH   2  13
HETATM   13  O3  UNL     1       7.038  11.260  37.714  1.00  0.00    -0.345 OA
ATOM     14  H3  UNL     1       6.814  10.467  37.242  1.00  0.00     0.219 HD
ENDBRANCH   2  13
BRANCH   8  15
HETATM   15  S1  UNL     1       6.117  14.398  41.593  1.00  0.00     0.156 S 
HETATM   16  O4  UNL     1       5.155  14.537  42.735  1.00  0.00    -0.590 OA
HETATM   17  O5  UNL     1       5.874  15.679  40.769  1.00  0.00    -0.590 OA
HETATM   18  O6  UNL     1       7.674  14.431  42.204  1.00  0.00    -0.590 OA
ENDBRANCH   8  15
BRANCH   5  19
HETATM   19  N2  UNL     1       3.358  10.397  40.481  1.00  0.00    -0.234 N 
ATOM     20  H22 UNL     1       2.995   9.699  39.832  1.00  0.00     0.174 HD
ATOM     21  H21 UNL     1       2.891  10.503  41.382  1.00  0.00     0.174 HD
ENDBRANCH   5  19
TORSDOF 5
ENDMDL
MODEL 3
REMARK VINA RESULT: -5.116185084      1.221      1.766
REMARK  5 active torsions:
REMARK  status: ('A' for Active; 'I' for Inactive)
REMARK    1  A    between atoms: O1_2  and  C2_3 
REMARK    2  A    between atoms: C2_3  and  C3_5 
REMARK    3  A    between atoms: C4_6  and  O3_7 
REMARK    4  A    between atoms: C5_11  and  N2_12 
REMARK    5  A    between atoms: C6_17  and  S1_18 
ROOT
HETATM    1  C3  UNL     1       5.613  12.122  40.013  1.00  0.00     0.132 A 
HETATM    2  C4  UNL     1       4.847  11.018  39.621  1.00  0.00     0.174 A 
HETATM    3  N1  UNL     1       3.758  10.630  40.302  1.00  0.00    -0.170 N 
ATOM      4  H1  UNL     1       3.231   9.819  39.980  1.00  0.00     0.186 HD
HETATM    5  C5  UNL     1       3.346  11.286  41.398  1.00  0.00     0.678 A 
HETATM    6  N3  UNL     1       4.049  12.341  41.798  1.00  0.00    -0.177 N 
ATOM      7  H3  UNL     1       3.747  12.849  42.628  1.00  0.00     0.185 HD
HETATM    8  C6  UNL     1       5.170  12.769  41.127  1.00  0.00     0.185 A 
ENDROOT
BRANCH   1   9
HETATM    9  C2  UNL     1       6.769  12.481  39.241  1.00  0.00     0.300 C 
HETATM   10  O2  UNL     1       6.599  13.158  38.158  1.00  0.00    -0.259 OA
BRANCH   9  11
HETATM   11  O1  UNL     1       8.093  12.201  39.491  1.00  0.00    -0.322 OA
HETATM   12  C1  UNL     1       8.649  10.909  39.497  1.00  0.00     0.213 C 
ENDBRANCH   9  11
ENDBRANCH   1   9
BRANCH   2  13
HETATM   13  O3  UNL     1       5.278  10.336  38.481  1.00  0.00    -0.345 OA
ATOM     14  H3  UNL     1       6.181  10.475  38.220  1.00  0.00     0.219 HD
ENDBRANCH   2  13
BRANCH   8  15
HETATM   15  S1  UNL     1       6.018  14.164  41.727  1.00  0.00     0.156 S 
HETATM   16  O4  UNL     1       7.387  13.837  42.244  1.00  0.00    -0.590 OA
HETATM   17  O5  UNL     1       5.288  14.702  42.975  1.00  0.00    -0.590 OA
HETATM   18  O6  UNL     1       6.155  15.396  40.604  1.00  0.00    -0.590 OA
ENDBRANCH   8  15
BRANCH   5  19
HETATM   19  N2  UNL     1       2.278  10.881  42.038  1.00  0.00    -0.234 N 
ATOM     20  H22 UNL     1       1.431  10.595  41.548  1.00  0.00     0.174 HD
ATOM     21  H21 UNL     1       2.279  10.845  43.057  1.00  0.00     0.174 HD
ENDBRANCH   5  19
TORSDOF 5
ENDMDL
MODEL 4
REMARK VINA RESULT: -5.081020638      1.228      2.080
REMARK  5 active torsions:
REMARK  status: ('A' for Active; 'I' for Inactive)
REMARK    1  A    between atoms: O1_2  and  C2_3 
REMARK    2  A    between atoms: C2_3  and  C3_5 
REMARK    3  A    between atoms: C4_6  and  O3_7 
REMARK    4  A    between atoms: C5_11  and  N2_12 
REMARK    5  A    between atoms: C6_17  and  S1_18 
ROOT
HETATM    1  C3  UNL     1       5.591  12.109  39.998  1.00  0.00     0.132 A 
HETATM    2  C4  UNL     1       4.839  10.996  39.607  1.00  0.00     0.174 A 
HETATM    3  N1  UNL     1       3.754  10.596  40.287  1.00  0.00    -0.170 N 
ATOM      4  H1  UNL     1       3.236   9.777  39.965  1.00  0.00     0.186 HD
HETATM    5  C5  UNL     1       3.333  11.247  41.382  1.00  0.00     0.678 A 
HETATM    6  N3  UNL     1       4.023  12.310  41.782  1.00  0.00    -0.177 N 
ATOM      7  H3  UNL     1       3.715  12.815  42.612  1.00  0.00     0.185 HD
HETATM    8  C6  UNL     1       5.140  12.751  41.112  1.00  0.00     0.185 A 
ENDROOT
BRANCH   1   9
HETATM    9  C2  UNL     1       6.744  12.482  39.228  1.00  0.00     0.300 C 
HETATM   10  O2  UNL     1       6.566  13.165  38.149  1.00  0.00    -0.259 OA
BRANCH   9  11
HETATM   11  O1  UNL     1       8.069  12.210  39.473  1.00  0.00    -0.322 OA
HETATM   12  C1  UNL     1       8.622  10.917  39.534  1.00  0.00     0.213 C 
ENDBRANCH   9  11
ENDBRANCH   1   9
BRANCH   2  13
HETATM   13  O3  UNL     1       5.278  10.318  38.467  1.00  0.00    -0.345 OA
ATOM     14  H3  UNL     1       4.717  10.369  37.702  1.00  0.00     0.219 HD
ENDBRANCH   2  13
BRANCH   8  15
HETATM   15  S1  UNL     1       5.970  14.157  41.712  1.00  0.00     0.156 S 
HETATM   16  O4  UNL     1       5.268  14.799  42.870  1.00  0.00    -0.590 OA
HETATM   17  O5  UNL     1       5.949  15.257  40.631  1.00  0.00    -0.590 OA
HETATM   18  O6  UNL     1       7.556  13.858  42.153  1.00  0.00    -0.590 OA
ENDBRANCH   8  15
BRANCH   5  19
HETATM   19  N2  UNL     1       2.270  10.830  42.021  1.00  0.00    -0.234 N 
ATOM     20  H22 UNL     1       1.428  10.528  41.531  1.00  0.00     0.174 HD
ATOM     21  H21 UNL     1       2.269  10.799  43.041  1.00  0.00     0.174 HD
ENDBRANCH   5  19
TORSDOF 5
ENDMDL
MODEL 5
REMARK VINA RESULT: -5.069834609      1.060      1.149
REMARK  5 active torsions:
REMARK  status: ('A' for Active; 'I' for Inactive)
REMARK    1  A    between atoms: O1_2  and  C2_3 
REMARK    2  A    between atoms: C2_3  and  C3_5 
REMARK    3  A    between atoms: C4_6  and  O3_7 
REMARK    4  A    between atoms: C5_11  and  N2_12 
REMARK    5  A    between atoms: C6_17  and  S1_18 
ROOT
HETATM    1  C3  UNL     1       5.606  12.238  40.130  1.00  0.00     0.132 A 
HETATM    2  C4  UNL     1       4.823  11.131  39.785  1.00  0.00     0.174 A 
HETATM    3  N1  UNL     1       3.764  10.753  40.519  1.00  0.00    -0.170 N 
ATOM      4  H1  UNL     1       3.223   9.938  40.228  1.00  0.00     0.186 HD
HETATM    5  C5  UNL     1       3.401  11.421  41.623  1.00  0.00     0.678 A 
HETATM    6  N3  UNL     1       4.123  12.479  41.980  1.00  0.00    -0.177 N 
ATOM      7  H3  UNL     1       3.858  12.997  42.818  1.00  0.00     0.185 HD
HETATM    8  C6  UNL     1       5.214  12.898  41.256  1.00  0.00     0.185 A 
ENDROOT
BRANCH   1   9
HETATM    9  C2  UNL     1       6.728  12.588  39.305  1.00  0.00     0.300 C 
HETATM   10  O2  UNL     1       7.833  11.946  39.469  1.00  0.00    -0.259 OA
BRANCH   9  11
HETATM   11  O1  UNL     1       6.809  13.546  38.322  1.00  0.00    -0.322 OA
HETATM   12  C1  UNL     1       7.835  13.621  37.361  1.00  0.00     0.213 C 
ENDBRANCH   9  11
ENDBRANCH   1   9
BRANCH   2  13
HETATM   13  O3  UNL     1       5.202  10.435  38.635  1.00  0.00    -0.345 OA
ATOM     14  H3  UNL     1       5.188  10.925  37.821  1.00  0.00     0.219 HD
ENDBRANCH   2  13
BRANCH   8  15
HETATM   15  S1  UNL     1       6.088  14.299  41.802  1.00  0.00     0.156 S 
HETATM   16  O4  UNL     1       7.515  13.998  42.147  1.00  0.00    -0.590 OA
HETATM   17  O5  UNL     1       5.493  14.776  43.143  1.00  0.00    -0.590 OA
HETATM   18  O6  UNL     1       6.062  15.569  40.714  1.00  0.00    -0.590 OA
ENDBRANCH   8  15
BRANCH   5  19
HETATM   19  N2  UNL     1       2.363  11.025  42.315  1.00  0.00    -0.234 N 
ATOM     20  H22 UNL     1       1.583  10.530  41.882  1.00  0.00     0.174 HD
ATOM     21  H21 UNL     1       2.319  11.208  43.317  1.00  0.00     0.174 HD
ENDBRANCH   5  19
TORSDOF 5
ENDMDL
