MODEL 1
REMARK VINA RESULT: -5.581531930      0.000      0.000
REMARK  4 active torsions:
REMARK  status: ('A' for Active; 'I' for Inactive)
REMARK    1  A    between atoms: C2_2  and  N1_3 
REMARK    2  A    between atoms: N3_12  and  O2_13 
REMARK    3  A    between atoms: O2_13  and  N4_14 
REMARK    4  A    between atoms: N5_19  and  O4_20 
ROOT
HETATM    1  N1  UNL     1       6.088  14.249  39.460  1.00  0.00    -0.289 N 
HETATM    2  C3  UNL     1       6.681  15.361  39.916  1.00  0.00     0.182 A 
HETATM    3  S1  UNL     1       7.283  16.422  38.828  1.00  0.00    -0.040 SA
HETATM    4  N2  UNL     1       6.773  15.590  41.253  1.00  0.00    -0.315 N 
ATOM      5  H2  UNL     1       7.227  16.441  41.584  1.00  0.00     0.170 HD
HETATM    6  C4  UNL     1       6.279  14.720  42.147  1.00  0.00     0.175 A 
HETATM    7  C5  UNL     1       5.658  13.559  41.711  1.00  0.00     0.184 A 
HETATM    8  C6  UNL     1       5.591  13.375  40.348  1.00  0.00     0.283 A 
HETATM    9  O1  UNL     1       5.029  12.323  39.922  1.00  0.00    -0.265 OA
HETATM   10  N3  UNL     1       5.273  12.898  42.819  1.00  0.00    -0.134 N 
HETATM   11  C7  UNL     1       5.619  13.584  43.916  1.00  0.00     0.381 A 
HETATM   12  O3  UNL     1       5.420  13.268  45.109  1.00  0.00    -0.242 OA
HETATM   13  N5  UNL     1       6.238  14.703  43.491  1.00  0.00    -0.151 N 
ENDROOT
BRANCH  10  14
HETATM   14  O2  UNL     1       4.615  11.684  42.782  1.00  0.00    -0.152 OA
BRANCH  14  15
HETATM   15  N4  UNL     1       3.387  11.549  43.387  1.00  0.00    -0.285 N 
ATOM     16  H42 UNL     1       2.669  12.251  43.211  1.00  0.00     0.186 HD
ATOM     17  H41 UNL     1       3.206  10.755  44.002  1.00  0.00     0.186 HD
ENDBRANCH  14  15
ENDBRANCH  10  14
BRANCH  13  18
HETATM   18  O4  UNL     1       6.744  15.671  44.342  1.00  0.00    -0.277 OA
ATOM     19  H4  UNL     1       6.561  15.759  45.270  1.00  0.00     0.245 HD
ENDBRANCH  13  18
BRANCH   1  20
HETATM   20  C2  UNL     1       5.995  14.019  38.033  1.00  0.00     0.130 C 
HETATM   21  C1  UNL     1       7.161  13.149  37.611  1.00  0.00     0.027 C 
ENDBRANCH   1  20
TORSDOF 4
ENDMDL
MODEL 2
REMARK VINA RESULT: -5.516575957      3.768      5.888
REMARK  4 active torsions:
REMARK  status: ('A' for Active; 'I' for Inactive)
REMARK    1  A    between atoms: C2_2  and  N1_3 
REMARK    2  A    between atoms: N3_12  and  O2_13 
REMARK    3  A    between atoms: O2_13  and  N4_14 
REMARK    4  A    between atoms: N5_19  and  O4_20 
ROOT
HETATM    1  N1  UNL     1       6.773  13.748  39.865  1.00  0.00    -0.289 N 
HETATM    2  C3  UNL     1       7.498  13.219  38.869  1.00  0.00     0.182 A 
HETATM    3  S1  UNL     1       7.841  11.621  38.923  1.00  0.00    -0.040 SA
HETATM    4  N2  UNL     1       7.931  14.002  37.846  1.00  0.00    -0.315 N 
ATOM      5  H2  UNL     1       8.481  13.584  37.096  1.00  0.00     0.170 HD
HETATM    6  C4  UNL     1       7.650  15.313  37.801  1.00  0.00     0.175 A 
HETATM    7  C5  UNL     1       6.902  15.894  38.814  1.00  0.00     0.184 A 
HETATM    8  C6  UNL     1       6.487  15.058  39.826  1.00  0.00     0.283 A 
HETATM    9  O1  UNL     1       5.802  15.563  40.764  1.00  0.00    -0.265 OA
HETATM   10  N3  UNL     1       6.787  17.198  38.497  1.00  0.00    -0.134 N 
HETATM   11  C7  UNL     1       7.420  17.456  37.346  1.00  0.00     0.381 A 
HETATM   12  O3  UNL     1       7.518  18.555  36.757  1.00  0.00    -0.242 OA
HETATM   13  N5  UNL     1       7.948  16.290  36.926  1.00  0.00    -0.151 N 
ENDROOT
BRANCH  10  14
HETATM   14  O2  UNL     1       6.101  18.107  39.280  1.00  0.00    -0.152 OA
BRANCH  14  15
HETATM   15  N4  UNL     1       5.284  19.043  38.691  1.00  0.00    -0.285 N 
ATOM     16  H42 UNL     1       4.998  18.910  37.721  1.00  0.00     0.186 HD
ATOM     17  H41 UNL     1       4.973  19.855  39.224  1.00  0.00     0.186 HD
ENDBRANCH  14  15
ENDBRANCH  10  14
BRANCH  13  18
HETATM   18  O4  UNL     1       8.684  16.154  35.761  1.00  0.00    -0.277 OA
ATOM     19  H4  UNL     1       8.402  15.724  34.962  1.00  0.00     0.245 HD
ENDBRANCH  13  18
BRANCH   1  20
HETATM   20  C2  UNL     1       6.317  12.903  40.949  1.00  0.00     0.130 C 
HETATM   21  C1  UNL     1       4.934  12.388  40.607  1.00  0.00     0.027 C 
ENDBRANCH   1  20
TORSDOF 4
ENDMDL
MODEL 3
REMARK VINA RESULT: -5.507134052      1.976      2.530
REMARK  4 active torsions:
REMARK  status: ('A' for Active; 'I' for Inactive)
REMARK    1  A    between atoms: C2_2  and  N1_3 
REMARK    2  A    between atoms: N3_12  and  O2_13 
REMARK    3  A    between atoms: O2_13  and  N4_14 
REMARK    4  A    between atoms: N5_19  and  O4_20 
ROOT
HETATM    1  N1  UNL     1       6.542  15.838  38.246  1.00  0.00    -0.289 N 
HETATM    2  C3  UNL     1       6.407  16.746  39.223  1.00  0.00     0.182 A 
HETATM    3  S1  UNL     1       6.468  18.331  38.823  1.00  0.00    -0.040 SA
HETATM    4  N2  UNL     1       6.223  16.347  40.509  1.00  0.00    -0.315 N 
ATOM      5  H2  UNL     1       6.121  17.051  41.240  1.00  0.00     0.170 HD
HETATM    6  C4  UNL     1       6.173  15.048  40.838  1.00  0.00     0.175 A 
HETATM    7  C5  UNL     1       6.310  14.080  39.854  1.00  0.00     0.184 A 
HETATM    8  C6  UNL     1       6.492  14.537  38.568  1.00  0.00     0.283 A 
HETATM    9  O1  UNL     1       6.620  13.674  37.648  1.00  0.00    -0.265 OA
HETATM   10  N3  UNL     1       6.218  12.891  40.478  1.00  0.00    -0.134 N 
HETATM   11  C7  UNL     1       6.033  13.067  41.793  1.00  0.00     0.381 A 
HETATM   12  O3  UNL     1       5.906  12.187  42.672  1.00  0.00    -0.242 OA
HETATM   13  N5  UNL     1       6.007  14.397  42.003  1.00  0.00    -0.151 N 
ENDROOT
BRANCH  10  14
HETATM   14  O2  UNL     1       6.309  11.682  39.816  1.00  0.00    -0.152 OA
BRANCH  14  15
HETATM   15  N4  UNL     1       5.222  11.189  39.134  1.00  0.00    -0.285 N 
ATOM     16  H42 UNL     1       4.779  11.770  38.421  1.00  0.00     0.186 HD
ATOM     17  H41 UNL     1       4.869  10.254  39.343  1.00  0.00     0.186 HD
ENDBRANCH  14  15
ENDBRANCH  10  14
BRANCH  13  18
HETATM   18  O4  UNL     1       5.833  14.975  43.250  1.00  0.00    -0.277 OA
ATOM     19  H4  UNL     1       5.583  14.527  44.049  1.00  0.00     0.245 HD
ENDBRANCH  13  18
BRANCH   1  20
HETATM   20  C2  UNL     1       6.736  16.276  36.879  1.00  0.00     0.130 C 
HETATM   21  C1  UNL     1       8.218  16.250  36.572  1.00  0.00     0.027 C 
ENDBRANCH   1  20
TORSDOF 4
ENDMDL
MODEL 4
REMARK VINA RESULT: -5.361985011      3.886      5.623
REMARK  4 active torsions:
REMARK  status: ('A' for Active; 'I' for Inactive)
REMARK    1  A    between atoms: C2_2  and  N1_3 
REMARK    2  A    between atoms: N3_12  and  O2_13 
REMARK    3  A    between atoms: O2_13  and  N4_14 
REMARK    4  A    between atoms: N5_19  and  O4_20 
ROOT
HETATM    1  N1  UNL     1       7.080  17.969  38.225  1.00  0.00    -0.289 N 
HETATM    2  C3  UNL     1       7.919  18.007  37.180  1.00  0.00     0.182 A 
HETATM    3  S1  UNL     1       8.390  19.467  36.616  1.00  0.00    -0.040 SA
HETATM    4  N2  UNL     1       8.361  16.853  36.614  1.00  0.00    -0.315 N 
ATOM      5  H2  UNL     1       9.000  16.899  35.821  1.00  0.00     0.170 HD
HETATM    6  C4  UNL     1       7.975  15.654  37.077  1.00  0.00     0.175 A 
HETATM    7  C5  UNL     1       7.108  15.577  38.156  1.00  0.00     0.184 A 
HETATM    8  C6  UNL     1       6.691  16.774  38.693  1.00  0.00     0.283 A 
HETATM    9  O1  UNL     1       5.898  16.733  39.681  1.00  0.00    -0.265 OA
HETATM   10  N3  UNL     1       6.908  14.265  38.386  1.00  0.00    -0.134 N 
HETATM   11  C7  UNL     1       7.601  13.527  37.511  1.00  0.00     0.381 A 
HETATM   12  O3  UNL     1       7.650  12.279  37.432  1.00  0.00    -0.242 OA
HETATM   13  N5  UNL     1       8.254  14.391  36.710  1.00  0.00    -0.151 N 
ENDROOT
BRANCH  10  14
HETATM   14  O2  UNL     1       6.091  13.793  39.396  1.00  0.00    -0.152 OA
BRANCH  14  15
HETATM   15  N4  UNL     1       5.431  12.596  39.242  1.00  0.00    -0.285 N 
ATOM     16  H42 UNL     1       5.965  11.765  38.989  1.00  0.00     0.186 HD
ATOM     17  H41 UNL     1       4.421  12.550  39.381  1.00  0.00     0.186 HD
ENDBRANCH  14  15
ENDBRANCH  10  14
BRANCH  13  18
HETATM   18  O4  UNL     1       9.083  14.000  35.671  1.00  0.00    -0.277 OA
ATOM     19  H4  UNL     1      10.031  13.948  35.695  1.00  0.00     0.245 HD
ENDBRANCH  13  18
BRANCH   1  20
HETATM   20  C2  UNL     1       6.618  19.206  38.820  1.00  0.00     0.130 C 
HETATM   21  C1  UNL     1       5.181  19.433  38.400  1.00  0.00     0.027 C 
ENDBRANCH   1  20
TORSDOF 4
ENDMDL
MODEL 5
REMARK VINA RESULT: -5.351828424      2.417      3.699
REMARK  4 active torsions:
REMARK  status: ('A' for Active; 'I' for Inactive)
REMARK    1  A    between atoms: C2_2  and  N1_3 
REMARK    2  A    between atoms: N3_12  and  O2_13 
REMARK    3  A    between atoms: O2_13  and  N4_14 
REMARK    4  A    between atoms: N5_19  and  O4_20 
ROOT
HETATM    1  N1  UNL     1       7.041  13.116  40.364  1.00  0.00    -0.289 N 
HETATM    2  C3  UNL     1       6.539  12.521  39.273  1.00  0.00     0.182 A 
HETATM    3  S1  UNL     1       7.371  12.644  37.870  1.00  0.00    -0.040 SA
HETATM    4  N2  UNL     1       5.368  11.834  39.344  1.00  0.00    -0.315 N 
ATOM      5  H2  UNL     1       5.001  11.386  38.504  1.00  0.00     0.170 HD
HETATM    6  C4  UNL     1       4.686  11.732  40.494  1.00  0.00     0.175 A 
HETATM    7  C5  UNL     1       5.175  12.335  41.643  1.00  0.00     0.184 A 
HETATM    8  C6  UNL     1       6.364  13.017  41.518  1.00  0.00     0.283 A 
HETATM    9  O1  UNL     1       6.834  13.578  42.552  1.00  0.00    -0.265 OA
HETATM   10  N3  UNL     1       4.287  12.063  42.619  1.00  0.00    -0.134 N 
HETATM   11  C7  UNL     1       3.278  11.326  42.139  1.00  0.00     0.381 A 
HETATM   12  O3  UNL     1       2.283  10.895  42.762  1.00  0.00    -0.242 OA
HETATM   13  N5  UNL     1       3.533  11.128  40.831  1.00  0.00    -0.151 N 
ENDROOT
BRANCH  10  14
HETATM   14  O2  UNL     1       4.438  12.504  43.920  1.00  0.00    -0.152 OA
BRANCH  14  15
HETATM   15  N4  UNL     1       3.956  11.747  44.962  1.00  0.00    -0.285 N 
ATOM     16  H42 UNL     1       3.004  11.383  44.910  1.00  0.00     0.186 HD
ATOM     17  H41 UNL     1       4.548  11.558  45.771  1.00  0.00     0.186 HD
ENDBRANCH  14  15
ENDBRANCH  10  14
BRANCH  13  18
HETATM   18  O4  UNL     1       2.706  10.405  39.988  1.00  0.00    -0.277 OA
ATOM     19  H4  UNL     1       1.775  10.255  40.102  1.00  0.00     0.245 HD
ENDBRANCH  13  18
BRANCH   1  20
HETATM   20  C2  UNL     1       8.290  13.843  40.276  1.00  0.00     0.130 C 
HETATM   21  C1  UNL     1       9.416  12.915  40.682  1.00  0.00     0.027 C 
ENDBRANCH   1  20
TORSDOF 4
ENDMDL
