MODEL 1
REMARK VINA RESULT: -6.576882102      0.000      0.000
REMARK  8 active torsions:
REMARK  status: ('A' for Active; 'I' for Inactive)
REMARK    1  A    between atoms: C2_2  and  C3_3 
REMARK    2  A    between atoms: C3_3  and  C4_4 
REMARK    3  A    between atoms: C4_4  and  C5_5 
REMARK    4  A    between atoms: C5_5  and  C11_15 
REMARK    5  A    between atoms: C6_6  and  O1_7 
REMARK    6  A    between atoms: C6_6  and  C7_9 
REMARK    7  A    between atoms: C7_9  and  O2_11 
REMARK    8  A    between atoms: C7_9  and  C9_13 
ROOT
HETATM    1  C5  UNL     1      70.351  -4.788 -33.310  1.00  0.00    -0.039 C 
HETATM    2  C6  UNL     1      70.617  -5.174 -34.674  1.00  0.00     0.080 C 
ENDROOT
BRANCH   1   3
HETATM    3  C4  UNL     1      71.109  -5.717 -32.352  1.00  0.00     0.037 C 
BRANCH   3   4
HETATM    4  C3  UNL     1      72.575  -5.691 -32.383  1.00  0.00     0.004 C 
BRANCH   4   5
HETATM    5  C2  UNL     1      73.155  -6.752 -31.404  1.00  0.00    -0.004 C 
HETATM    6  C1  UNL     1      72.243  -7.959 -31.406  1.00  0.00     0.005 C 
ENDBRANCH   4   5
ENDBRANCH   3   4
ENDBRANCH   1   3
BRANCH   1   7
HETATM    7  C11 UNL     1      69.065  -4.372 -32.741  1.00  0.00    -0.013 C 
HETATM    8  C12 UNL     1      68.516  -5.283 -31.643  1.00  0.00     0.019 C 
HETATM    9  C13 UNL     1      67.166  -4.848 -31.153  1.00  0.00    -0.013 C 
HETATM   10  C14 UNL     1      67.388  -3.516 -30.430  1.00  0.00     0.009 C 
HETATM   11  C18 UNL     1      66.142  -4.606 -32.203  1.00  0.00     0.009 C 
HETATM   12  C15 UNL     1      67.991  -2.533 -31.367  1.00  0.00    -0.013 C 
HETATM   13  C16 UNL     1      66.952  -2.229 -32.458  1.00  0.00     0.009 C 
HETATM   14  C20 UNL     1      69.208  -3.001 -32.110  1.00  0.00     0.019 C 
HETATM   15  C17 UNL     1      66.717  -3.540 -33.115  1.00  0.00    -0.013 C 
HETATM   16  C19 UNL     1      67.953  -4.163 -33.732  1.00  0.00     0.019 C 
ENDBRANCH   1   7
BRANCH   2  17
HETATM   17  O1  UNL     1      70.184  -6.455 -35.096  1.00  0.00    -0.362 OA
ATOM     18  H1  UNL     1      70.685  -6.891 -35.775  1.00  0.00     0.217 HD
ENDBRANCH   2  17
BRANCH   2  19
HETATM   19  C7  UNL     1      70.799  -4.308 -35.840  1.00  0.00     0.102 C 
HETATM   20  C8  UNL     1      72.203  -4.300 -36.406  1.00  0.00     0.053 C 
BRANCH  19  21
HETATM   21  O2  UNL     1      70.723  -2.905 -35.413  1.00  0.00    -0.383 OA
ATOM     22  H2  UNL     1      71.249  -2.374 -35.998  1.00  0.00     0.211 HD
ENDBRANCH  19  21
BRANCH  19  23
HETATM   23  C9  UNL     1      69.810  -4.304 -36.944  1.00  0.00     0.040 C 
HETATM   24  C10 UNL     1      69.158  -2.959 -37.169  1.00  0.00     0.008 C 
ENDBRANCH  19  23
ENDBRANCH   2  19
TORSDOF 8
ENDMDL
MODEL 2
REMARK VINA RESULT: -6.542317526      0.098      1.548
REMARK  8 active torsions:
REMARK  status: ('A' for Active; 'I' for Inactive)
REMARK    1  A    between atoms: C2_2  and  C3_3 
REMARK    2  A    between atoms: C3_3  and  C4_4 
REMARK    3  A    between atoms: C4_4  and  C5_5 
REMARK    4  A    between atoms: C5_5  and  C11_15 
REMARK    5  A    between atoms: C6_6  and  O1_7 
REMARK    6  A    between atoms: C6_6  and  C7_9 
REMARK    7  A    between atoms: C7_9  and  O2_11 
REMARK    8  A    between atoms: C7_9  and  C9_13 
ROOT
HETATM    1  C5  UNL     1      70.360  -4.702 -33.351  1.00  0.00    -0.039 C 
HETATM    2  C6  UNL     1      70.600  -5.122 -34.709  1.00  0.00     0.080 C 
ENDROOT
BRANCH   1   3
HETATM    3  C4  UNL     1      71.075  -5.652 -32.381  1.00  0.00     0.037 C 
BRANCH   3   4
HETATM    4  C3  UNL     1      72.540  -5.702 -32.418  1.00  0.00     0.004 C 
BRANCH   4   5
HETATM    5  C2  UNL     1      73.074  -6.718 -31.368  1.00  0.00    -0.004 C 
HETATM    6  C1  UNL     1      72.230  -7.972 -31.438  1.00  0.00     0.005 C 
ENDBRANCH   4   5
ENDBRANCH   3   4
ENDBRANCH   1   3
BRANCH   1   7
HETATM    7  C11 UNL     1      69.100  -4.212 -32.783  1.00  0.00    -0.013 C 
HETATM    8  C12 UNL     1      67.938  -4.115 -33.772  1.00  0.00     0.019 C 
HETATM    9  C13 UNL     1      66.699  -3.539 -33.152  1.00  0.00    -0.013 C 
HETATM   10  C14 UNL     1      66.214  -4.577 -32.134  1.00  0.00     0.009 C 
HETATM   11  C18 UNL     1      66.877  -2.260 -32.415  1.00  0.00     0.009 C 
HETATM   12  C15 UNL     1      67.280  -4.830 -31.131  1.00  0.00    -0.013 C 
HETATM   13  C16 UNL     1      67.478  -3.538 -30.323  1.00  0.00     0.009 C 
HETATM   14  C20 UNL     1      68.637  -5.151 -31.687  1.00  0.00     0.019 C 
HETATM   15  C17 UNL     1      67.903  -2.536 -31.333  1.00  0.00    -0.013 C 
HETATM   16  C19 UNL     1      69.178  -2.890 -32.071  1.00  0.00     0.019 C 
ENDBRANCH   1   7
BRANCH   2  17
HETATM   17  O1  UNL     1      70.100  -6.387 -35.108  1.00  0.00    -0.362 OA
ATOM     18  H1  UNL     1      70.641  -6.916 -35.683  1.00  0.00     0.217 HD
ENDBRANCH   2  17
BRANCH   2  19
HETATM   19  C7  UNL     1      70.820  -4.286 -35.891  1.00  0.00     0.102 C 
HETATM   20  C8  UNL     1      72.232  -4.324 -36.434  1.00  0.00     0.053 C 
BRANCH  19  21
HETATM   21  O2  UNL     1      70.771  -2.874 -35.494  1.00  0.00    -0.383 OA
ATOM     22  H2  UNL     1      69.903  -2.531 -35.673  1.00  0.00     0.211 HD
ENDBRANCH  19  21
BRANCH  19  23
HETATM   23  C9  UNL     1      69.848  -4.282 -37.009  1.00  0.00     0.040 C 
HETATM   24  C10 UNL     1      69.155  -2.953 -37.205  1.00  0.00     0.008 C 
ENDBRANCH  19  23
ENDBRANCH   2  19
TORSDOF 8
ENDMDL
MODEL 3
REMARK VINA RESULT: -6.469246530      0.088      1.574
REMARK  8 active torsions:
REMARK  status: ('A' for Active; 'I' for Inactive)
REMARK    1  A    between atoms: C2_2  and  C3_3 
REMARK    2  A    between atoms: C3_3  and  C4_4 
REMARK    3  A    between atoms: C4_4  and  C5_5 
REMARK    4  A    between atoms: C5_5  and  C11_15 
REMARK    5  A    between atoms: C6_6  and  O1_7 
REMARK    6  A    between atoms: C6_6  and  C7_9 
REMARK    7  A    between atoms: C7_9  and  O2_11 
REMARK    8  A    between atoms: C7_9  and  C9_13 
ROOT
HETATM    1  C5  UNL     1      70.386  -4.791 -33.282  1.00  0.00    -0.039 C 
HETATM    2  C6  UNL     1      70.580  -5.175 -34.659  1.00  0.00     0.080 C 
ENDROOT
BRANCH   1   3
HETATM    3  C4  UNL     1      71.124  -5.772 -32.362  1.00  0.00     0.037 C 
BRANCH   3   4
HETATM    4  C3  UNL     1      72.590  -5.721 -32.332  1.00  0.00     0.004 C 
BRANCH   4   5
HETATM    5  C2  UNL     1      73.147  -6.773 -31.331  1.00  0.00    -0.004 C 
HETATM    6  C1  UNL     1      72.263  -8.000 -31.377  1.00  0.00     0.005 C 
ENDBRANCH   4   5
ENDBRANCH   3   4
ENDBRANCH   1   3
BRANCH   1   7
HETATM    7  C11 UNL     1      69.148  -4.309 -32.662  1.00  0.00    -0.013 C 
HETATM    8  C12 UNL     1      69.223  -2.902 -32.070  1.00  0.00     0.019 C 
HETATM    9  C13 UNL     1      67.952  -2.494 -31.387  1.00  0.00    -0.013 C 
HETATM   10  C14 UNL     1      66.902  -2.356 -32.494  1.00  0.00     0.009 C 
HETATM   11  C18 UNL     1      67.410  -3.460 -30.394  1.00  0.00     0.009 C 
HETATM   12  C15 UNL     1      66.765  -3.648 -33.216  1.00  0.00    -0.013 C 
HETATM   13  C16 UNL     1      66.178  -4.673 -32.233  1.00  0.00     0.009 C 
HETATM   14  C20 UNL     1      68.044  -4.264 -33.701  1.00  0.00     0.019 C 
HETATM   15  C17 UNL     1      67.187  -4.758 -31.146  1.00  0.00    -0.013 C 
HETATM   16  C19 UNL     1      68.563  -5.200 -31.600  1.00  0.00     0.019 C 
ENDBRANCH   1   7
BRANCH   2  17
HETATM   17  O1  UNL     1      70.060  -6.425 -35.076  1.00  0.00    -0.362 OA
ATOM     18  H1  UNL     1      69.155  -6.455 -35.363  1.00  0.00     0.217 HD
ENDBRANCH   2  17
BRANCH   2  19
HETATM   19  C7  UNL     1      70.770  -4.308 -35.823  1.00  0.00     0.102 C 
HETATM   20  C8  UNL     1      72.179  -4.292 -36.374  1.00  0.00     0.053 C 
BRANCH  19  21
HETATM   21  O2  UNL     1      70.680  -2.906 -35.396  1.00  0.00    -0.383 OA
ATOM     22  H2  UNL     1      70.371  -2.380 -36.123  1.00  0.00     0.211 HD
ENDBRANCH  19  21
BRANCH  19  23
HETATM   23  C9  UNL     1      69.792  -4.310 -36.937  1.00  0.00     0.040 C 
HETATM   24  C10 UNL     1      69.177  -2.955 -37.206  1.00  0.00     0.008 C 
ENDBRANCH  19  23
ENDBRANCH   2  19
TORSDOF 8
ENDMDL
MODEL 4
REMARK VINA RESULT: -5.938205178      0.766      1.173
REMARK  8 active torsions:
REMARK  status: ('A' for Active; 'I' for Inactive)
REMARK    1  A    between atoms: C2_2  and  C3_3 
REMARK    2  A    between atoms: C3_3  and  C4_4 
REMARK    3  A    between atoms: C4_4  and  C5_5 
REMARK    4  A    between atoms: C5_5  and  C11_15 
REMARK    5  A    between atoms: C6_6  and  O1_7 
REMARK    6  A    between atoms: C6_6  and  C7_9 
REMARK    7  A    between atoms: C7_9  and  O2_11 
REMARK    8  A    between atoms: C7_9  and  C9_13 
ROOT
HETATM    1  C5  UNL     1      70.251  -4.759 -33.389  1.00  0.00    -0.039 C 
HETATM    2  C6  UNL     1      70.419  -5.225 -34.743  1.00  0.00     0.080 C 
ENDROOT
BRANCH   1   3
HETATM    3  C4  UNL     1      71.123  -5.595 -32.442  1.00  0.00     0.037 C 
BRANCH   3   4
HETATM    4  C3  UNL     1      72.569  -5.628 -32.685  1.00  0.00     0.004 C 
BRANCH   4   5
HETATM    5  C2  UNL     1      73.260  -6.614 -31.701  1.00  0.00    -0.004 C 
HETATM    6  C1  UNL     1      72.304  -7.750 -31.406  1.00  0.00     0.005 C 
ENDBRANCH   4   5
ENDBRANCH   3   4
ENDBRANCH   1   3
BRANCH   1   7
HETATM    7  C11 UNL     1      69.002  -4.350 -32.740  1.00  0.00    -0.013 C 
HETATM    8  C12 UNL     1      68.581  -5.207 -31.545  1.00  0.00     0.019 C 
HETATM    9  C13 UNL     1      67.260  -4.786 -30.970  1.00  0.00    -0.013 C 
HETATM   10  C14 UNL     1      67.489  -3.404 -30.352  1.00  0.00     0.009 C 
HETATM   11  C18 UNL     1      66.144  -4.646 -31.943  1.00  0.00     0.009 C 
HETATM   12  C15 UNL     1      67.975  -2.463 -31.395  1.00  0.00    -0.013 C 
HETATM   13  C16 UNL     1      66.838  -2.265 -32.411  1.00  0.00     0.009 C 
HETATM   14  C20 UNL     1      69.143  -2.937 -32.209  1.00  0.00     0.019 C 
HETATM   15  C17 UNL     1      66.601  -3.623 -32.964  1.00  0.00    -0.013 C 
HETATM   16  C19 UNL     1      67.804  -4.243 -33.644  1.00  0.00     0.019 C 
ENDBRANCH   1   7
BRANCH   2  17
HETATM   17  O1  UNL     1      70.004  -6.546 -35.045  1.00  0.00    -0.362 OA
ATOM     18  H1  UNL     1      69.971  -6.802 -35.959  1.00  0.00     0.217 HD
ENDBRANCH   2  17
BRANCH   2  19
HETATM   19  C7  UNL     1      70.469  -4.433 -35.974  1.00  0.00     0.102 C 
HETATM   20  C8  UNL     1      69.395  -3.372 -36.084  1.00  0.00     0.053 C 
BRANCH  19  21
HETATM   21  O2  UNL     1      70.066  -5.278 -37.105  1.00  0.00    -0.383 OA
ATOM     22  H2  UNL     1      70.547  -5.010 -37.879  1.00  0.00     0.211 HD
ENDBRANCH  19  21
BRANCH  19  23
HETATM   23  C9  UNL     1      71.756  -3.903 -36.483  1.00  0.00     0.040 C 
HETATM   24  C10 UNL     1      71.784  -2.396 -36.608  1.00  0.00     0.008 C 
ENDBRANCH  19  23
ENDBRANCH   2  19
TORSDOF 8
ENDMDL
MODEL 5
REMARK VINA RESULT: -5.608606406      1.754      5.207
REMARK  8 active torsions:
REMARK  status: ('A' for Active; 'I' for Inactive)
REMARK    1  A    between atoms: C2_2  and  C3_3 
REMARK    2  A    between atoms: C3_3  and  C4_4 
REMARK    3  A    between atoms: C4_4  and  C5_5 
REMARK    4  A    between atoms: C5_5  and  C11_15 
REMARK    5  A    between atoms: C6_6  and  O1_7 
REMARK    6  A    between atoms: C6_6  and  C7_9 
REMARK    7  A    between atoms: C7_9  and  O2_11 
REMARK    8  A    between atoms: C7_9  and  C9_13 
ROOT
HETATM    1  C5  UNL     1      70.340  -4.766 -35.015  1.00  0.00    -0.039 C 
HETATM    2  C6  UNL     1      70.360  -3.796 -36.081  1.00  0.00     0.080 C 
ENDROOT
BRANCH   1   3
HETATM    3  C4  UNL     1      69.611  -4.183 -33.797  1.00  0.00     0.037 C 
BRANCH   3   4
HETATM    4  C3  UNL     1      68.251  -3.667 -33.990  1.00  0.00     0.004 C 
BRANCH   4   5
HETATM    5  C2  UNL     1      67.334  -4.107 -32.812  1.00  0.00    -0.004 C 
HETATM    6  C1  UNL     1      68.207  -4.630 -31.692  1.00  0.00     0.005 C 
ENDBRANCH   4   5
ENDBRANCH   3   4
ENDBRANCH   1   3
BRANCH   1   7
HETATM    7  C11 UNL     1      71.430  -5.657 -34.606  1.00  0.00    -0.013 C 
HETATM    8  C12 UNL     1      72.824  -5.230 -35.065  1.00  0.00     0.019 C 
HETATM    9  C13 UNL     1      73.887  -6.216 -34.680  1.00  0.00    -0.013 C 
HETATM   10  C14 UNL     1      73.984  -6.159 -33.152  1.00  0.00     0.009 C 
HETATM   11  C18 UNL     1      73.619  -7.633 -35.044  1.00  0.00     0.009 C 
HETATM   12  C15 UNL     1      72.664  -6.490 -32.554  1.00  0.00    -0.013 C 
HETATM   13  C16 UNL     1      72.359  -7.960 -32.881  1.00  0.00     0.009 C 
HETATM   14  C20 UNL     1      71.493  -5.721 -33.092  1.00  0.00     0.019 C 
HETATM   15  C17 UNL     1      72.314  -8.003 -34.365  1.00  0.00    -0.013 C 
HETATM   16  C19 UNL     1      71.268  -7.102 -34.989  1.00  0.00     0.019 C 
ENDBRANCH   1   7
BRANCH   2  17
HETATM   17  O1  UNL     1      71.066  -2.587 -35.861  1.00  0.00    -0.362 OA
ATOM     18  H1  UNL     1      71.943  -2.645 -35.500  1.00  0.00     0.217 HD
ENDBRANCH   2  17
BRANCH   2  19
HETATM   19  C7  UNL     1      70.218  -4.027 -37.520  1.00  0.00     0.102 C 
HETATM   20  C8  UNL     1      69.079  -3.271 -38.170  1.00  0.00     0.053 C 
BRANCH  19  21
HETATM   21  O2  UNL     1      69.733  -5.395 -37.740  1.00  0.00    -0.383 OA
ATOM     22  H2  UNL     1      70.364  -5.866 -38.272  1.00  0.00     0.211 HD
ENDBRANCH  19  21
BRANCH  19  23
HETATM   23  C9  UNL     1      71.403  -4.019 -38.410  1.00  0.00     0.040 C 
HETATM   24  C10 UNL     1      71.998  -5.389 -38.641  1.00  0.00     0.008 C 
ENDBRANCH  19  23
ENDBRANCH   2  19
TORSDOF 8
ENDMDL
