MODEL 1
REMARK VINA RESULT: -7.230682574      0.000      0.000
REMARK  8 active torsions:
REMARK  status: ('A' for Active; 'I' for Inactive)
REMARK    1  A    between atoms: C4_4  and  C5_5 
REMARK    2  A    between atoms: C5_5  and  C6_6 
REMARK    3  A    between atoms: C5_5  and  N1_8 
REMARK    4  A    between atoms: N1_8  and  C7_10 
REMARK    5  A    between atoms: C7_10  and  C8_11 
REMARK    6  A    between atoms: C8_11  and  C9_12 
REMARK    7  A    between atoms: N2_18  and  C15_19 
REMARK    8  A    between atoms: C15_19  and  C16_20 
ROOT
HETATM    1  C1  UNL     1      61.379   1.214 -31.855  1.00  0.00     0.043 C 
HETATM    2  C2  UNL     1      60.812   0.188 -30.901  1.00  0.00     0.219 C 
HETATM    3  C3  UNL     1      61.872  -0.937 -30.798  1.00  0.00     0.042 C 
HETATM    4  C4  UNL     1      63.136  -0.351 -30.284  1.00  0.00     0.013 C 
HETATM    5  C13 UNL     1      62.852   0.348 -28.961  1.00  0.00     0.037 C 
HETATM    6  C14 UNL     1      61.384   0.263 -28.577  1.00  0.00     0.273 C 
HETATM    7  N2  UNL     1      60.539   0.740 -29.638  1.00  0.00     0.093 N 
ENDROOT
BRANCH   4   8
HETATM    8  C5  UNL     1      64.191  -1.470 -30.006  1.00  0.00     0.095 C 
BRANCH   8   9
HETATM    9  C6  UNL     1      63.443  -2.735 -29.781  1.00  0.00     0.111 C 
HETATM   10  S1  UNL     1      63.216  -3.109 -28.034  1.00  0.00    -0.096 SA
ENDBRANCH   8   9
BRANCH   8  11
HETATM   11  N1  UNL     1      65.074  -1.389 -31.086  1.00  0.00    -0.396 N 
ATOM     12  H1  UNL     1      64.661  -1.144 -31.986  1.00  0.00     0.159 HD
BRANCH  11  13
HETATM   13  C7  UNL     1      66.436  -1.601 -31.080  1.00  0.00     0.056 C 
BRANCH  13  14
HETATM   14  C8  UNL     1      66.958  -2.959 -30.799  1.00  0.00     0.052 C 
BRANCH  14  15
HETATM   15  C9  UNL     1      67.161  -3.802 -32.037  1.00  0.00    -0.047 C 
HETATM   16  C10 UNL     1      67.470  -3.070 -33.276  1.00  0.00     0.015 C 
HETATM   17  C11 UNL     1      68.334  -4.747 -31.750  1.00  0.00     0.015 C 
HETATM   18  C12 UNL     1      65.952  -4.708 -32.192  1.00  0.00     0.015 C 
ENDBRANCH  14  15
ENDBRANCH  13  14
ENDBRANCH  11  13
ENDBRANCH   8  11
ENDBRANCH   4   8
BRANCH   7  19
HETATM   19  C15 UNL     1      59.179   0.730 -29.232  1.00  0.00     0.277 C 
BRANCH  19  20
HETATM   20  C16 UNL     1      58.712   1.817 -28.341  1.00  0.00     0.014 A 
HETATM   21  C17 UNL     1      58.144   3.108 -28.715  1.00  0.00     0.007 A 
HETATM   22  C18 UNL     1      57.235   2.024 -28.224  1.00  0.00     0.007 A 
ENDBRANCH  19  20
ENDBRANCH   7  19
TORSDOF 8
ENDMDL
MODEL 2
REMARK VINA RESULT: -7.213756240      1.655      1.985
REMARK  8 active torsions:
REMARK  status: ('A' for Active; 'I' for Inactive)
REMARK    1  A    between atoms: C4_4  and  C5_5 
REMARK    2  A    between atoms: C5_5  and  C6_6 
REMARK    3  A    between atoms: C5_5  and  N1_8 
REMARK    4  A    between atoms: N1_8  and  C7_10 
REMARK    5  A    between atoms: C7_10  and  C8_11 
REMARK    6  A    between atoms: C8_11  and  C9_12 
REMARK    7  A    between atoms: N2_18  and  C15_19 
REMARK    8  A    between atoms: C15_19  and  C16_20 
ROOT
HETATM    1  C1  UNL     1      61.029   2.705 -29.484  1.00  0.00     0.043 C 
HETATM    2  C2  UNL     1      60.182   1.553 -29.971  1.00  0.00     0.219 C 
HETATM    3  C3  UNL     1      61.100   0.696 -30.877  1.00  0.00     0.042 C 
HETATM    4  C4  UNL     1      62.254   0.223 -30.070  1.00  0.00     0.013 C 
HETATM    5  C13 UNL     1      61.729  -0.519 -28.849  1.00  0.00     0.037 C 
HETATM    6  C14 UNL     1      60.209  -0.537 -28.804  1.00  0.00     0.273 C 
HETATM    7  N2  UNL     1      59.669   0.791 -28.908  1.00  0.00     0.093 N 
ENDROOT
BRANCH   4   8
HETATM    8  C5  UNL     1      63.127  -0.781 -30.890  1.00  0.00     0.095 C 
BRANCH   8   9
HETATM    9  C6  UNL     1      64.206   0.007 -31.544  1.00  0.00     0.111 C 
HETATM   10  S1  UNL     1      65.523   0.464 -30.404  1.00  0.00    -0.096 SA
ENDBRANCH   8   9
BRANCH   8  11
HETATM   11  N1  UNL     1      63.477  -1.768 -29.966  1.00  0.00    -0.396 N 
ATOM     12  H1  UNL     1      63.286  -1.556 -28.987  1.00  0.00     0.159 HD
BRANCH  11  13
HETATM   13  C7  UNL     1      64.050  -2.997 -30.221  1.00  0.00     0.056 C 
BRANCH  13  14
HETATM   14  C8  UNL     1      65.518  -3.153 -30.095  1.00  0.00     0.052 C 
BRANCH  14  15
HETATM   15  C9  UNL     1      66.181  -3.705 -31.336  1.00  0.00    -0.047 C 
HETATM   16  C10 UNL     1      66.593  -2.716 -32.345  1.00  0.00     0.015 C 
HETATM   17  C11 UNL     1      67.438  -4.455 -30.879  1.00  0.00     0.015 C 
HETATM   18  C12 UNL     1      65.273  -4.775 -31.918  1.00  0.00     0.015 C 
ENDBRANCH  14  15
ENDBRANCH  13  14
ENDBRANCH  11  13
ENDBRANCH   8  11
ENDBRANCH   4   8
BRANCH   7  19
HETATM   19  C15 UNL     1      58.256   0.764 -28.782  1.00  0.00     0.277 C 
BRANCH  19  20
HETATM   20  C16 UNL     1      57.620   1.753 -27.880  1.00  0.00     0.014 A 
HETATM   21  C17 UNL     1      57.561   3.203 -28.030  1.00  0.00     0.007 A 
HETATM   22  C18 UNL     1      56.346   2.386 -28.344  1.00  0.00     0.007 A 
ENDBRANCH  19  20
ENDBRANCH   7  19
TORSDOF 8
ENDMDL
MODEL 3
REMARK VINA RESULT: -7.210874330      1.492      2.138
REMARK  8 active torsions:
REMARK  status: ('A' for Active; 'I' for Inactive)
REMARK    1  A    between atoms: C4_4  and  C5_5 
REMARK    2  A    between atoms: C5_5  and  C6_6 
REMARK    3  A    between atoms: C5_5  and  N1_8 
REMARK    4  A    between atoms: N1_8  and  C7_10 
REMARK    5  A    between atoms: C7_10  and  C8_11 
REMARK    6  A    between atoms: C8_11  and  C9_12 
REMARK    7  A    between atoms: N2_18  and  C15_19 
REMARK    8  A    between atoms: C15_19  and  C16_20 
ROOT
HETATM    1  C1  UNL     1      60.304  -0.576 -28.480  1.00  0.00     0.043 C 
HETATM    2  C2  UNL     1      61.160   0.616 -28.840  1.00  0.00     0.219 C 
HETATM    3  C3  UNL     1      62.531   0.046 -29.278  1.00  0.00     0.042 C 
HETATM    4  C4  UNL     1      62.322  -0.850 -30.444  1.00  0.00     0.013 C 
HETATM    5  C13 UNL     1      61.602  -0.073 -31.538  1.00  0.00     0.037 C 
HETATM    6  C14 UNL     1      61.295   1.355 -31.114  1.00  0.00     0.273 C 
HETATM    7  N2  UNL     1      60.583   1.386 -29.865  1.00  0.00     0.093 N 
ENDROOT
BRANCH   4   8
HETATM    8  C5  UNL     1      63.690  -1.325 -31.030  1.00  0.00     0.095 C 
BRANCH   8   9
HETATM    9  C6  UNL     1      64.441  -0.108 -31.438  1.00  0.00     0.111 C 
HETATM   10  S1  UNL     1      65.840   0.241 -30.360  1.00  0.00    -0.096 SA
ENDBRANCH   8   9
BRANCH   8  11
HETATM   11  N1  UNL     1      64.225  -2.147 -30.035  1.00  0.00    -0.396 N 
ATOM     12  H1  UNL     1      64.190  -1.781 -29.083  1.00  0.00     0.159 HD
BRANCH  11  13
HETATM   13  C7  UNL     1      64.794  -3.394 -30.186  1.00  0.00     0.056 C 
BRANCH  13  14
HETATM   14  C8  UNL     1      66.265  -3.508 -30.328  1.00  0.00     0.052 C 
BRANCH  14  15
HETATM   15  C9  UNL     1      66.717  -3.856 -31.727  1.00  0.00    -0.047 C 
HETATM   16  C10 UNL     1      67.001  -2.719 -32.618  1.00  0.00     0.015 C 
HETATM   17  C11 UNL     1      68.006  -4.676 -31.593  1.00  0.00     0.015 C 
HETATM   18  C12 UNL     1      65.701  -4.814 -32.325  1.00  0.00     0.015 C 
ENDBRANCH  14  15
ENDBRANCH  13  14
ENDBRANCH  11  13
ENDBRANCH   8  11
ENDBRANCH   4   8
BRANCH   7  19
HETATM   19  C15 UNL     1      60.234   2.718 -29.525  1.00  0.00     0.277 C 
BRANCH  19  20
HETATM   20  C16 UNL     1      59.201   2.921 -28.483  1.00  0.00     0.014 A 
HETATM   21  C17 UNL     1      57.959   3.682 -28.580  1.00  0.00     0.007 A 
HETATM   22  C18 UNL     1      57.907   2.187 -28.645  1.00  0.00     0.007 A 
ENDBRANCH  19  20
ENDBRANCH   7  19
TORSDOF 8
ENDMDL
MODEL 4
REMARK VINA RESULT: -7.097363669      1.526      2.614
REMARK  8 active torsions:
REMARK  status: ('A' for Active; 'I' for Inactive)
REMARK    1  A    between atoms: C4_4  and  C5_5 
REMARK    2  A    between atoms: C5_5  and  C6_6 
REMARK    3  A    between atoms: C5_5  and  N1_8 
REMARK    4  A    between atoms: N1_8  and  C7_10 
REMARK    5  A    between atoms: C7_10  and  C8_11 
REMARK    6  A    between atoms: C8_11  and  C9_12 
REMARK    7  A    between atoms: N2_18  and  C15_19 
REMARK    8  A    between atoms: C15_19  and  C16_20 
ROOT
HETATM    1  C1  UNL     1      58.617  -0.011 -29.053  1.00  0.00     0.043 C 
HETATM    2  C2  UNL     1      59.375   1.130 -28.414  1.00  0.00     0.219 C 
HETATM    3  C3  UNL     1      60.786   0.580 -28.087  1.00  0.00     0.042 C 
HETATM    4  C4  UNL     1      61.426   0.139 -29.352  1.00  0.00     0.013 C 
HETATM    5  C13 UNL     1      61.432   1.303 -30.334  1.00  0.00     0.037 C 
HETATM    6  C14 UNL     1      60.773   2.542 -29.749  1.00  0.00     0.273 C 
HETATM    7  N2  UNL     1      59.453   2.248 -29.260  1.00  0.00     0.093 N 
ENDROOT
BRANCH   4   8
HETATM    8  C5  UNL     1      62.913  -0.274 -29.104  1.00  0.00     0.095 C 
BRANCH   8   9
HETATM    9  C6  UNL     1      62.917  -1.719 -28.754  1.00  0.00     0.111 C 
HETATM   10  S1  UNL     1      62.171  -2.747 -30.031  1.00  0.00    -0.096 SA
ENDBRANCH   8   9
BRANCH   8  11
HETATM   11  N1  UNL     1      63.584   0.144 -30.256  1.00  0.00    -0.396 N 
ATOM     12  H1  UNL     1      63.028   0.659 -30.939  1.00  0.00     0.159 HD
BRANCH  11  13
HETATM   13  C7  UNL     1      64.910  -0.056 -30.579  1.00  0.00     0.056 C 
BRANCH  13  14
HETATM   14  C8  UNL     1      65.263  -1.076 -31.595  1.00  0.00     0.052 C 
BRANCH  14  15
HETATM   15  C9  UNL     1      66.325  -2.049 -31.138  1.00  0.00    -0.047 C 
HETATM   16  C10 UNL     1      65.861  -3.171 -30.306  1.00  0.00     0.015 C 
HETATM   17  C11 UNL     1      66.968  -2.638 -32.399  1.00  0.00     0.015 C 
HETATM   18  C12 UNL     1      67.432  -1.255 -30.465  1.00  0.00     0.015 C 
ENDBRANCH  14  15
ENDBRANCH  13  14
ENDBRANCH  11  13
ENDBRANCH   8  11
ENDBRANCH   4   8
BRANCH   7  19
HETATM   19  C15 UNL     1      58.822   3.431 -28.795  1.00  0.00     0.277 C 
BRANCH  19  20
HETATM   20  C16 UNL     1      57.345   3.429 -28.675  1.00  0.00     0.014 A 
HETATM   21  C17 UNL     1      56.468   2.310 -28.343  1.00  0.00     0.007 A 
HETATM   22  C18 UNL     1      56.766   3.340 -27.298  1.00  0.00     0.007 A 
ENDBRANCH  19  20
ENDBRANCH   7  19
TORSDOF 8
ENDMDL
MODEL 5
REMARK VINA RESULT: -7.012384374      3.885      6.800
REMARK  8 active torsions:
REMARK  status: ('A' for Active; 'I' for Inactive)
REMARK    1  A    between atoms: C4_4  and  C5_5 
REMARK    2  A    between atoms: C5_5  and  C6_6 
REMARK    3  A    between atoms: C5_5  and  N1_8 
REMARK    4  A    between atoms: N1_8  and  C7_10 
REMARK    5  A    between atoms: C7_10  and  C8_11 
REMARK    6  A    between atoms: C8_11  and  C9_12 
REMARK    7  A    between atoms: N2_18  and  C15_19 
REMARK    8  A    between atoms: C15_19  and  C16_20 
ROOT
HETATM    1  C1  UNL     1      65.370  -5.096 -32.494  1.00  0.00     0.043 C 
HETATM    2  C2  UNL     1      65.939  -4.560 -31.201  1.00  0.00     0.219 C 
HETATM    3  C3  UNL     1      67.475  -4.730 -31.303  1.00  0.00     0.042 C 
HETATM    4  C4  UNL     1      67.961  -3.959 -32.475  1.00  0.00     0.013 C 
HETATM    5  C13 UNL     1      67.511  -2.511 -32.333  1.00  0.00     0.037 C 
HETATM    6  C14 UNL     1      66.694  -2.292 -31.069  1.00  0.00     0.273 C 
HETATM    7  N2  UNL     1      65.594  -3.214 -30.993  1.00  0.00     0.093 N 
ENDROOT
BRANCH   4   8
HETATM    8  C5  UNL     1      69.523  -3.962 -32.531  1.00  0.00     0.095 C 
BRANCH   8   9
HETATM    9  C6  UNL     1      69.976  -5.308 -32.090  1.00  0.00     0.111 C 
HETATM   10  S1  UNL     1      71.700  -5.630 -32.500  1.00  0.00    -0.096 SA
ENDBRANCH   8   9
BRANCH   8  11
HETATM   11  N1  UNL     1      69.823  -3.539 -33.828  1.00  0.00    -0.396 N 
ATOM     12  H1  UNL     1      70.395  -2.698 -33.906  1.00  0.00     0.159 HD
BRANCH  11  13
HETATM   13  C7  UNL     1      69.438  -4.124 -35.016  1.00  0.00     0.056 C 
BRANCH  13  14
HETATM   14  C8  UNL     1      70.474  -4.520 -36.000  1.00  0.00     0.052 C 
BRANCH  14  15
HETATM   15  C9  UNL     1      70.613  -3.558 -37.157  1.00  0.00    -0.047 C 
HETATM   16  C10 UNL     1      70.971  -4.153 -38.455  1.00  0.00     0.015 C 
HETATM   17  C11 UNL     1      69.259  -2.856 -37.324  1.00  0.00     0.015 C 
HETATM   18  C12 UNL     1      71.578  -2.460 -36.743  1.00  0.00     0.015 C 
ENDBRANCH  14  15
ENDBRANCH  13  14
ENDBRANCH  11  13
ENDBRANCH   8  11
ENDBRANCH   4   8
BRANCH   7  19
HETATM   19  C15 UNL     1      64.796  -2.942 -29.852  1.00  0.00     0.277 C 
BRANCH  19  20
HETATM   20  C16 UNL     1      63.546  -2.170 -30.046  1.00  0.00     0.014 A 
HETATM   21  C17 UNL     1      62.692  -1.566 -29.028  1.00  0.00     0.007 A 
HETATM   22  C18 UNL     1      63.610  -0.692 -29.825  1.00  0.00     0.007 A 
ENDBRANCH  19  20
ENDBRANCH   7  19
TORSDOF 8
ENDMDL
