MODEL 1
REMARK VINA RESULT: -9.750673588      0.000      0.000
REMARK  7 active torsions:
REMARK  status: ('A' for Active; 'I' for Inactive)
REMARK    1  A    between atoms: C2_2  and  N1_3 
REMARK    2  A    between atoms: C2_2  and  C11_17 
REMARK    3  A    between atoms: N1_3  and  C3_5 
REMARK    4  A    between atoms: C3_5  and  C4_6 
REMARK    5  A    between atoms: C4_6  and  O1_7 
REMARK    6  A    between atoms: C4_6  and  C5_9 
REMARK    7  A    between atoms: C5_9  and  N2_10 
ROOT
HETATM    1  N1  UNL     1      64.043  -1.472 -30.202  1.00  0.00    -0.395 N 
ATOM      2  H1  UNL     1      63.803  -2.463 -30.216  1.00  0.00     0.159 HD
ENDROOT
BRANCH   1   3
HETATM    3  C2  UNL     1      65.140  -1.057 -30.964  1.00  0.00     0.085 C 
HETATM    4  C1  UNL     1      65.918   0.113 -30.511  1.00  0.00     0.033 C 
BRANCH   3   5
HETATM    5  C11 UNL     1      66.017  -2.288 -31.202  1.00  0.00    -0.019 C 
HETATM    6  C12 UNL     1      67.178  -2.366 -30.234  1.00  0.00     0.016 C 
HETATM    7  C13 UNL     1      68.001  -3.594 -30.653  1.00  0.00    -0.013 C 
HETATM    8  C14 UNL     1      67.132  -4.802 -30.442  1.00  0.00     0.009 C 
HETATM    9  C18 UNL     1      68.512  -3.467 -32.051  1.00  0.00     0.009 C 
HETATM   10  C15 UNL     1      65.950  -4.718 -31.375  1.00  0.00    -0.013 C 
HETATM   11  C16 UNL     1      66.414  -4.620 -32.791  1.00  0.00     0.009 C 
HETATM   12  C20 UNL     1      65.161  -3.499 -30.955  1.00  0.00     0.016 C 
HETATM   13  C17 UNL     1      67.323  -3.427 -32.981  1.00  0.00    -0.013 C 
HETATM   14  C19 UNL     1      66.515  -2.193 -32.622  1.00  0.00     0.016 C 
ENDBRANCH   3   5
ENDBRANCH   1   3
BRANCH   1  15
HETATM   15  C3  UNL     1      63.253  -0.621 -29.423  1.00  0.00     0.089 C 
BRANCH  15  16
HETATM   16  C4  UNL     1      61.918  -0.328 -30.022  1.00  0.00     0.173 C 
BRANCH  16  17
HETATM   17  O1  UNL     1      62.172   0.577 -31.091  1.00  0.00    -0.389 OA
ATOM     18  H1  UNL     1      62.465   0.038 -31.816  1.00  0.00     0.210 HD
ENDBRANCH  16  17
BRANCH  16  19
HETATM   19  C5  UNL     1      61.000   0.385 -29.022  1.00  0.00     0.156 C 
BRANCH  19  20
HETATM   20  N2  UNL     1      60.891   1.748 -29.446  1.00  0.00    -0.394 N 
HETATM   21  C6  UNL     1      59.920   2.455 -29.071  1.00  0.00    -0.018 C 
HETATM   22  C7  UNL     1      58.807   1.997 -28.181  1.00  0.00     0.052 C 
HETATM   23  C10 UNL     1      59.699   3.876 -29.450  1.00  0.00     0.052 C 
HETATM   24  C8  UNL     1      57.688   2.920 -28.683  1.00  0.00     0.006 C 
HETATM   25  C9  UNL     1      58.430   4.243 -28.725  1.00  0.00     0.006 C 
ATOM     26  H2  UNL     1      61.604   2.148 -30.056  1.00  0.00     0.159 HD
ENDBRANCH  19  20
ENDBRANCH  16  19
ENDBRANCH  15  16
ENDBRANCH   1  15
TORSDOF 7
ENDMDL
MODEL 2
REMARK VINA RESULT: -9.614771588      0.839      1.164
REMARK  7 active torsions:
REMARK  status: ('A' for Active; 'I' for Inactive)
REMARK    1  A    between atoms: C2_2  and  N1_3 
REMARK    2  A    between atoms: C2_2  and  C11_17 
REMARK    3  A    between atoms: N1_3  and  C3_5 
REMARK    4  A    between atoms: C3_5  and  C4_6 
REMARK    5  A    between atoms: C4_6  and  O1_7 
REMARK    6  A    between atoms: C4_6  and  C5_9 
REMARK    7  A    between atoms: C5_9  and  N2_10 
ROOT
HETATM    1  N1  UNL     1      64.440  -1.072 -30.481  1.00  0.00    -0.395 N 
ATOM      2  H1  UNL     1      64.979  -0.745 -31.282  1.00  0.00     0.159 HD
ENDROOT
BRANCH   1   3
HETATM    3  C2  UNL     1      64.549  -2.422 -30.130  1.00  0.00     0.085 C 
HETATM    4  C1  UNL     1      63.367  -3.293 -30.280  1.00  0.00     0.033 C 
BRANCH   3   5
HETATM    5  C11 UNL     1      65.781  -2.977 -30.846  1.00  0.00    -0.019 C 
HETATM    6  C12 UNL     1      66.943  -3.210 -29.905  1.00  0.00     0.016 C 
HETATM    7  C13 UNL     1      68.114  -3.681 -30.781  1.00  0.00    -0.013 C 
HETATM    8  C14 UNL     1      67.719  -5.004 -31.375  1.00  0.00     0.009 C 
HETATM    9  C18 UNL     1      68.487  -2.658 -31.804  1.00  0.00     0.009 C 
HETATM   10  C15 UNL     1      66.537  -4.792 -32.287  1.00  0.00    -0.013 C 
HETATM   11  C16 UNL     1      66.875  -3.796 -33.348  1.00  0.00     0.009 C 
HETATM   12  C20 UNL     1      65.401  -4.318 -31.411  1.00  0.00     0.016 C 
HETATM   13  C17 UNL     1      67.313  -2.484 -32.739  1.00  0.00    -0.013 C 
HETATM   14  C19 UNL     1      66.150  -1.971 -31.908  1.00  0.00     0.016 C 
ENDBRANCH   3   5
ENDBRANCH   1   3
BRANCH   1  15
HETATM   15  C3  UNL     1      63.641  -0.142 -29.807  1.00  0.00     0.089 C 
BRANCH  15  16
HETATM   16  C4  UNL     1      62.216  -0.147 -30.249  1.00  0.00     0.173 C 
BRANCH  16  17
HETATM   17  O1  UNL     1      62.177   0.667 -31.417  1.00  0.00    -0.389 OA
ATOM     18  H1  UNL     1      61.718   1.458 -31.160  1.00  0.00     0.210 HD
ENDBRANCH  16  17
BRANCH  16  19
HETATM   19  C5  UNL     1      61.303   0.504 -29.203  1.00  0.00     0.156 C 
BRANCH  19  20
HETATM   20  N2  UNL     1      61.087   1.858 -29.615  1.00  0.00    -0.394 N 
HETATM   21  C6  UNL     1      60.098   2.505 -29.181  1.00  0.00    -0.018 C 
HETATM   22  C7  UNL     1      59.069   1.980 -28.229  1.00  0.00     0.052 C 
HETATM   23  C10 UNL     1      59.770   3.910 -29.541  1.00  0.00     0.052 C 
HETATM   24  C8  UNL     1      57.869   2.833 -28.662  1.00  0.00     0.006 C 
HETATM   25  C9  UNL     1      58.526   4.199 -28.742  1.00  0.00     0.006 C 
ATOM     26  H2  UNL     1      61.738   2.301 -30.264  1.00  0.00     0.159 HD
ENDBRANCH  19  20
ENDBRANCH  16  19
ENDBRANCH  15  16
ENDBRANCH   1  15
TORSDOF 7
ENDMDL
MODEL 3
REMARK VINA RESULT: -9.591060532      0.157      1.538
REMARK  7 active torsions:
REMARK  status: ('A' for Active; 'I' for Inactive)
REMARK    1  A    between atoms: C2_2  and  N1_3 
REMARK    2  A    between atoms: C2_2  and  C11_17 
REMARK    3  A    between atoms: N1_3  and  C3_5 
REMARK    4  A    between atoms: C3_5  and  C4_6 
REMARK    5  A    between atoms: C4_6  and  O1_7 
REMARK    6  A    between atoms: C4_6  and  C5_9 
REMARK    7  A    between atoms: C5_9  and  N2_10 
ROOT
HETATM    1  N1  UNL     1      64.014  -1.411 -30.202  1.00  0.00    -0.395 N 
ATOM      2  H1  UNL     1      63.777  -2.403 -30.193  1.00  0.00     0.159 HD
ENDROOT
BRANCH   1   3
HETATM    3  C2  UNL     1      65.099  -1.007 -30.987  1.00  0.00     0.085 C 
HETATM    4  C1  UNL     1      65.912   0.140 -30.539  1.00  0.00     0.033 C 
BRANCH   3   5
HETATM    5  C11 UNL     1      65.944  -2.252 -31.264  1.00  0.00    -0.019 C 
HETATM    6  C12 UNL     1      66.555  -2.240 -32.649  1.00  0.00     0.016 C 
HETATM    7  C13 UNL     1      67.294  -3.578 -32.801  1.00  0.00    -0.013 C 
HETATM    8  C14 UNL     1      68.411  -3.585 -31.795  1.00  0.00     0.009 C 
HETATM    9  C18 UNL     1      66.366  -4.741 -32.665  1.00  0.00     0.009 C 
HETATM   10  C15 UNL     1      67.815  -3.559 -30.410  1.00  0.00    -0.013 C 
HETATM   11  C16 UNL     1      66.901  -4.724 -30.217  1.00  0.00     0.009 C 
HETATM   12  C20 UNL     1      67.085  -2.242 -30.284  1.00  0.00     0.016 C 
HETATM   13  C17 UNL     1      65.808  -4.732 -31.262  1.00  0.00    -0.013 C 
HETATM   14  C19 UNL     1      65.030  -3.439 -31.098  1.00  0.00     0.016 C 
ENDBRANCH   3   5
ENDBRANCH   1   3
BRANCH   1  15
HETATM   15  C3  UNL     1      63.234  -0.547 -29.427  1.00  0.00     0.089 C 
BRANCH  15  16
HETATM   16  C4  UNL     1      61.882  -0.285 -30.001  1.00  0.00     0.173 C 
BRANCH  16  17
HETATM   17  O1  UNL     1      62.096   0.621 -31.078  1.00  0.00    -0.389 OA
ATOM     18  H1  UNL     1      62.941   0.387 -31.443  1.00  0.00     0.210 HD
ENDBRANCH  16  17
BRANCH  16  19
HETATM   19  C5  UNL     1      60.967   0.412 -28.986  1.00  0.00     0.156 C 
BRANCH  19  20
HETATM   20  N2  UNL     1      60.853   1.781 -29.391  1.00  0.00    -0.394 N 
HETATM   21  C6  UNL     1      59.869   2.473 -29.024  1.00  0.00    -0.018 C 
HETATM   22  C7  UNL     1      58.744   1.991 -28.162  1.00  0.00     0.052 C 
HETATM   23  C10 UNL     1      59.641   3.898 -29.384  1.00  0.00     0.052 C 
HETATM   24  C8  UNL     1      57.626   2.911 -28.670  1.00  0.00     0.006 C 
HETATM   25  C9  UNL     1      58.356   4.242 -28.678  1.00  0.00     0.006 C 
ATOM     26  H2  UNL     1      61.574   2.197 -29.981  1.00  0.00     0.159 HD
ENDBRANCH  19  20
ENDBRANCH  16  19
ENDBRANCH  15  16
ENDBRANCH   1  15
TORSDOF 7
ENDMDL
MODEL 4
REMARK VINA RESULT: -9.509841752      0.813      1.750
REMARK  7 active torsions:
REMARK  status: ('A' for Active; 'I' for Inactive)
REMARK    1  A    between atoms: C2_2  and  N1_3 
REMARK    2  A    between atoms: C2_2  and  C11_17 
REMARK    3  A    between atoms: N1_3  and  C3_5 
REMARK    4  A    between atoms: C3_5  and  C4_6 
REMARK    5  A    between atoms: C4_6  and  O1_7 
REMARK    6  A    between atoms: C4_6  and  C5_9 
REMARK    7  A    between atoms: C5_9  and  N2_10 
ROOT
HETATM    1  N1  UNL     1      64.460  -1.023 -30.505  1.00  0.00    -0.395 N 
ATOM      2  H1  UNL     1      64.960  -0.666 -31.319  1.00  0.00     0.159 HD
ENDROOT
BRANCH   1   3
HETATM    3  C2  UNL     1      64.629  -2.372 -30.177  1.00  0.00     0.085 C 
HETATM    4  C1  UNL     1      63.468  -3.278 -30.276  1.00  0.00     0.033 C 
BRANCH   3   5
HETATM    5  C11 UNL     1      65.838  -2.881 -30.966  1.00  0.00    -0.019 C 
HETATM    6  C12 UNL     1      66.234  -1.945 -32.086  1.00  0.00     0.016 C 
HETATM    7  C13 UNL     1      67.394  -2.630 -32.825  1.00  0.00    -0.013 C 
HETATM    8  C14 UNL     1      68.543  -2.721 -31.860  1.00  0.00     0.009 C 
HETATM    9  C18 UNL     1      66.986  -3.952 -33.389  1.00  0.00     0.009 C 
HETATM   10  C15 UNL     1      68.146  -3.623 -30.718  1.00  0.00    -0.013 C 
HETATM   11  C16 UNL     1      67.759  -4.970 -31.233  1.00  0.00     0.009 C 
HETATM   12  C20 UNL     1      66.999  -2.938 -30.012  1.00  0.00     0.016 C 
HETATM   13  C17 UNL     1      66.633  -4.862 -32.236  1.00  0.00    -0.013 C 
HETATM   14  C19 UNL     1      65.455  -4.233 -31.514  1.00  0.00     0.016 C 
ENDBRANCH   3   5
ENDBRANCH   1   3
BRANCH   1  15
HETATM   15  C3  UNL     1      63.652  -0.132 -29.793  1.00  0.00     0.089 C 
BRANCH  15  16
HETATM   16  C4  UNL     1      62.228  -0.129 -30.238  1.00  0.00     0.173 C 
BRANCH  16  17
HETATM   17  O1  UNL     1      62.191   0.711 -31.387  1.00  0.00    -0.389 OA
ATOM     18  H1  UNL     1      63.039   1.136 -31.418  1.00  0.00     0.210 HD
ENDBRANCH  16  17
BRANCH  16  19
HETATM   19  C5  UNL     1      61.311   0.497 -29.180  1.00  0.00     0.156 C 
BRANCH  19  20
HETATM   20  N2  UNL     1      61.094   1.859 -29.561  1.00  0.00    -0.394 N 
HETATM   21  C6  UNL     1      60.087   2.486 -29.138  1.00  0.00    -0.018 C 
HETATM   22  C7  UNL     1      59.038   1.927 -28.229  1.00  0.00     0.052 C 
HETATM   23  C10 UNL     1      59.756   3.897 -29.469  1.00  0.00     0.052 C 
HETATM   24  C8  UNL     1      57.842   2.781 -28.672  1.00  0.00     0.006 C 
HETATM   25  C9  UNL     1      58.488   4.155 -28.697  1.00  0.00     0.006 C 
ATOM     26  H2  UNL     1      61.758   2.325 -30.180  1.00  0.00     0.159 HD
ENDBRANCH  19  20
ENDBRANCH  16  19
ENDBRANCH  15  16
ENDBRANCH   1  15
TORSDOF 7
ENDMDL
MODEL 5
REMARK VINA RESULT: -9.404676029      0.824      1.977
REMARK  7 active torsions:
REMARK  status: ('A' for Active; 'I' for Inactive)
REMARK    1  A    between atoms: C2_2  and  N1_3 
REMARK    2  A    between atoms: C2_2  and  C11_17 
REMARK    3  A    between atoms: N1_3  and  C3_5 
REMARK    4  A    between atoms: C3_5  and  C4_6 
REMARK    5  A    between atoms: C4_6  and  O1_7 
REMARK    6  A    between atoms: C4_6  and  C5_9 
REMARK    7  A    between atoms: C5_9  and  N2_10 
ROOT
HETATM    1  N1  UNL     1      64.346  -1.154 -30.313  1.00  0.00    -0.395 N 
ATOM      2  H1  UNL     1      64.925  -0.746 -31.046  1.00  0.00     0.159 HD
ENDROOT
BRANCH   1   3
HETATM    3  C2  UNL     1      64.434  -2.535 -30.106  1.00  0.00     0.085 C 
HETATM    4  C1  UNL     1      63.232  -3.364 -30.324  1.00  0.00     0.033 C 
BRANCH   3   5
HETATM    5  C11 UNL     1      65.642  -3.035 -30.900  1.00  0.00    -0.019 C 
HETATM    6  C12 UNL     1      65.334  -4.284 -31.698  1.00  0.00     0.016 C 
HETATM    7  C13 UNL     1      66.654  -4.702 -32.363  1.00  0.00    -0.013 C 
HETATM    8  C14 UNL     1      67.030  -3.611 -33.326  1.00  0.00     0.009 C 
HETATM    9  C18 UNL     1      67.714  -4.994 -31.352  1.00  0.00     0.009 C 
HETATM   10  C15 UNL     1      67.304  -2.350 -32.546  1.00  0.00    -0.013 C 
HETATM   11  C16 UNL     1      68.383  -2.586 -31.541  1.00  0.00     0.009 C 
HETATM   12  C20 UNL     1      65.998  -1.961 -31.891  1.00  0.00     0.016 C 
HETATM   13  C17 UNL     1      68.013  -3.715 -30.606  1.00  0.00    -0.013 C 
HETATM   14  C19 UNL     1      66.735  -3.302 -29.897  1.00  0.00     0.016 C 
ENDBRANCH   3   5
ENDBRANCH   1   3
BRANCH   1  15
HETATM   15  C3  UNL     1      63.517  -0.296 -29.583  1.00  0.00     0.089 C 
BRANCH  15  16
HETATM   16  C4  UNL     1      62.141  -0.172 -30.145  1.00  0.00     0.173 C 
BRANCH  16  17
HETATM   17  O1  UNL     1      62.262   0.711 -31.256  1.00  0.00    -0.389 OA
ATOM     18  H1  UNL     1      61.469   1.233 -31.253  1.00  0.00     0.210 HD
ENDBRANCH  16  17
BRANCH  16  19
HETATM   19  C5  UNL     1      61.182   0.479 -29.141  1.00  0.00     0.156 C 
BRANCH  19  20
HETATM   20  N2  UNL     1      60.991   1.836 -29.558  1.00  0.00    -0.394 N 
HETATM   21  C6  UNL     1      60.005   2.496 -29.141  1.00  0.00    -0.018 C 
HETATM   22  C7  UNL     1      58.954   1.987 -28.205  1.00  0.00     0.052 C 
HETATM   23  C10 UNL     1      59.702   3.906 -29.507  1.00  0.00     0.052 C 
HETATM   24  C8  UNL     1      57.772   2.856 -28.657  1.00  0.00     0.006 C 
HETATM   25  C9  UNL     1      58.449   4.213 -28.728  1.00  0.00     0.006 C 
ATOM     26  H2  UNL     1      61.658   2.269 -30.196  1.00  0.00     0.159 HD
ENDBRANCH  19  20
ENDBRANCH  16  19
ENDBRANCH  15  16
ENDBRANCH   1  15
TORSDOF 7
ENDMDL
