MODEL 1
REMARK VINA RESULT: -8.764651381      0.000      0.000
REMARK  8 active torsions:
REMARK  status: ('A' for Active; 'I' for Inactive)
REMARK    1  A    between atoms: C2_2  and  C3_3 
REMARK    2  A    between atoms: C3_3  and  C4_4 
REMARK    3  A    between atoms: C4_4  and  C5_5 
REMARK    4  A    between atoms: C5_5  and  O1_6 
REMARK    5  A    between atoms: C9_11  and  N1_12 
REMARK    6  A    between atoms: N1_12  and  C10_14 
REMARK    7  A    between atoms: C10_14  and  C11_15 
REMARK    8  A    between atoms: C11_15  and  C12_16 
ROOT
HETATM    1  C4  UNL     1      60.324   0.920 -29.265  1.00  0.00    -0.010 C 
HETATM    2  C6  UNL     1      61.008   1.274 -30.549  1.00  0.00    -0.003 C 
HETATM    3  C7  UNL     1      60.896   0.193 -31.593  1.00  0.00     0.007 C 
HETATM    4  C8  UNL     1      61.576  -1.108 -31.122  1.00  0.00     0.026 C 
HETATM    5  C9  UNL     1      61.537  -1.270 -29.644  1.00  0.00     0.085 C 
HETATM    6  C19 UNL     1      61.530   0.078 -28.940  1.00  0.00     0.019 C 
HETATM    7  C20 UNL     1      62.335   1.005 -29.837  1.00  0.00     0.013 C 
ENDROOT
BRANCH   5   8
HETATM    8  N1  UNL     1      62.592  -2.018 -29.095  1.00  0.00    -0.397 N 
ATOM      9  H1  UNL     1      62.706  -1.987 -28.082  1.00  0.00     0.159 HD
BRANCH   8  10
HETATM   10  C10 UNL     1      63.485  -2.792 -29.803  1.00  0.00     0.056 C 
BRANCH  10  11
HETATM   11  C11 UNL     1      64.742  -2.129 -30.230  1.00  0.00     0.049 C 
BRANCH  11  12
HETATM   12  C12 UNL     1      65.875  -3.130 -30.443  1.00  0.00    -0.005 C 
HETATM   13  C13 UNL     1      65.316  -4.234 -31.335  1.00  0.00     0.010 C 
HETATM   14  C14 UNL     1      66.388  -4.344 -32.392  1.00  0.00    -0.014 C 
HETATM   15  C15 UNL     1      67.640  -4.805 -31.722  1.00  0.00     0.005 C 
HETATM   16  C18 UNL     1      66.722  -2.858 -32.599  1.00  0.00     0.009 C 
HETATM   17  C16 UNL     1      68.188  -3.609 -30.947  1.00  0.00     0.005 C 
HETATM   18  C17 UNL     1      67.076  -2.592 -31.122  1.00  0.00    -0.010 C 
ENDBRANCH  11  12
ENDBRANCH  10  11
ENDBRANCH   8  10
ENDBRANCH   5   8
BRANCH   1  19
HETATM   19  C3  UNL     1      60.286   2.097 -28.333  1.00  0.00     0.012 C 
BRANCH  19  20
HETATM   20  C2  UNL     1      60.229   3.422 -29.052  1.00  0.00    -0.004 C 
HETATM   21  C1  UNL     1      58.838   4.010 -29.059  1.00  0.00     0.005 C 
ENDBRANCH  19  20
ENDBRANCH   1  19
BRANCH   1  22
HETATM   22  C5  UNL     1      59.044   0.144 -29.371  1.00  0.00     0.174 C 
BRANCH  22  23
HETATM   23  O1  UNL     1      57.990   0.735 -28.684  1.00  0.00    -0.400 OA
ATOM     24  H1  UNL     1      57.313   0.117 -28.438  1.00  0.00     0.209 HD
ENDBRANCH  22  23
ENDBRANCH   1  22
TORSDOF 8
ENDMDL
MODEL 2
REMARK VINA RESULT: -8.712721474      1.662      2.643
REMARK  8 active torsions:
REMARK  status: ('A' for Active; 'I' for Inactive)
REMARK    1  A    between atoms: C2_2  and  C3_3 
REMARK    2  A    between atoms: C3_3  and  C4_4 
REMARK    3  A    between atoms: C4_4  and  C5_5 
REMARK    4  A    between atoms: C5_5  and  O1_6 
REMARK    5  A    between atoms: C9_11  and  N1_12 
REMARK    6  A    between atoms: N1_12  and  C10_14 
REMARK    7  A    between atoms: C10_14  and  C11_15 
REMARK    8  A    between atoms: C11_15  and  C12_16 
ROOT
HETATM    1  C4  UNL     1      61.963  -0.358 -30.059  1.00  0.00    -0.010 C 
HETATM    2  C6  UNL     1      63.109   0.233 -29.299  1.00  0.00    -0.003 C 
HETATM    3  C7  UNL     1      64.396   0.239 -30.084  1.00  0.00     0.007 C 
HETATM    4  C8  UNL     1      64.842  -1.196 -30.430  1.00  0.00     0.026 C 
HETATM    5  C9  UNL     1      63.694  -2.131 -30.579  1.00  0.00     0.085 C 
HETATM    6  C19 UNL     1      62.522  -1.711 -29.706  1.00  0.00     0.019 C 
HETATM    7  C20 UNL     1      63.145  -1.060 -28.481  1.00  0.00     0.013 C 
ENDROOT
BRANCH   5   8
HETATM    8  N1  UNL     1      63.973  -3.475 -30.281  1.00  0.00    -0.397 N 
ATOM      9  H1  UNL     1      63.518  -3.873 -29.460  1.00  0.00     0.159 HD
BRANCH   8  10
HETATM   10  C10 UNL     1      64.807  -4.304 -30.999  1.00  0.00     0.056 C 
BRANCH  10  11
HETATM   11  C11 UNL     1      66.141  -4.575 -30.409  1.00  0.00     0.049 C 
BRANCH  11  12
HETATM   12  C12 UNL     1      67.217  -4.747 -31.478  1.00  0.00    -0.005 C 
HETATM   13  C13 UNL     1      66.616  -4.237 -32.783  1.00  0.00     0.010 C 
HETATM   14  C14 UNL     1      67.704  -3.319 -33.284  1.00  0.00    -0.014 C 
HETATM   15  C15 UNL     1      68.910  -4.154 -33.561  1.00  0.00     0.005 C 
HETATM   16  C18 UNL     1      68.130  -2.656 -31.964  1.00  0.00     0.009 C 
HETATM   17  C16 UNL     1      69.509  -4.523 -32.206  1.00  0.00     0.005 C 
HETATM   18  C17 UNL     1      68.464  -3.981 -31.248  1.00  0.00    -0.010 C 
ENDBRANCH  11  12
ENDBRANCH  10  11
ENDBRANCH   8  10
ENDBRANCH   5   8
BRANCH   1  19
HETATM   19  C3  UNL     1      60.669  -0.159 -29.323  1.00  0.00     0.012 C 
BRANCH  19  20
HETATM   20  C2  UNL     1      60.359   1.292 -29.049  1.00  0.00    -0.004 C 
HETATM   21  C1  UNL     1      58.892   1.523 -28.776  1.00  0.00     0.005 C 
ENDBRANCH  19  20
ENDBRANCH   1  19
BRANCH   1  22
HETATM   22  C5  UNL     1      61.912  -0.081 -31.533  1.00  0.00     0.174 C 
BRANCH  22  23
HETATM   23  O1  UNL     1      60.709  -0.459 -32.117  1.00  0.00    -0.400 OA
ATOM     24  H1  UNL     1      60.625  -0.168 -33.017  1.00  0.00     0.209 HD
ENDBRANCH  22  23
ENDBRANCH   1  22
TORSDOF 8
ENDMDL
MODEL 3
REMARK VINA RESULT: -8.554257358      0.480      1.247
REMARK  8 active torsions:
REMARK  status: ('A' for Active; 'I' for Inactive)
REMARK    1  A    between atoms: C2_2  and  C3_3 
REMARK    2  A    between atoms: C3_3  and  C4_4 
REMARK    3  A    between atoms: C4_4  and  C5_5 
REMARK    4  A    between atoms: C5_5  and  O1_6 
REMARK    5  A    between atoms: C9_11  and  N1_12 
REMARK    6  A    between atoms: N1_12  and  C10_14 
REMARK    7  A    between atoms: C10_14  and  C11_15 
REMARK    8  A    between atoms: C11_15  and  C12_16 
ROOT
HETATM    1  C4  UNL     1      60.277   0.973 -29.207  1.00  0.00    -0.010 C 
HETATM    2  C6  UNL     1      60.950   1.316 -30.499  1.00  0.00    -0.003 C 
HETATM    3  C7  UNL     1      60.833   0.224 -31.531  1.00  0.00     0.007 C 
HETATM    4  C8  UNL     1      61.521  -1.069 -31.052  1.00  0.00     0.026 C 
HETATM    5  C9  UNL     1      61.494  -1.216 -29.572  1.00  0.00     0.085 C 
HETATM    6  C19 UNL     1      61.488   0.139 -28.882  1.00  0.00     0.019 C 
HETATM    7  C20 UNL     1      62.284   1.059 -29.794  1.00  0.00     0.013 C 
ENDROOT
BRANCH   5   8
HETATM    8  N1  UNL     1      62.555  -1.956 -29.024  1.00  0.00    -0.397 N 
ATOM      9  H1  UNL     1      62.613  -2.001 -28.007  1.00  0.00     0.159 HD
BRANCH   8  10
HETATM   10  C10 UNL     1      63.523  -2.628 -29.737  1.00  0.00     0.056 C 
BRANCH  10  11
HETATM   11  C11 UNL     1      64.718  -1.842 -30.134  1.00  0.00     0.049 C 
BRANCH  11  12
HETATM   12  C12 UNL     1      65.568  -2.575 -31.170  1.00  0.00    -0.005 C 
HETATM   13  C13 UNL     1      67.019  -2.214 -30.873  1.00  0.00     0.010 C 
HETATM   14  C14 UNL     1      67.678  -3.572 -30.867  1.00  0.00    -0.014 C 
HETATM   15  C15 UNL     1      67.557  -4.139 -32.243  1.00  0.00     0.005 C 
HETATM   16  C18 UNL     1      66.602  -4.394 -30.139  1.00  0.00     0.009 C 
HETATM   17  C16 UNL     1      66.104  -4.576 -32.412  1.00  0.00     0.005 C 
HETATM   18  C17 UNL     1      65.474  -4.052 -31.134  1.00  0.00    -0.010 C 
ENDBRANCH  11  12
ENDBRANCH  10  11
ENDBRANCH   8  10
ENDBRANCH   5   8
BRANCH   1  19
HETATM   19  C3  UNL     1      60.243   2.160 -28.286  1.00  0.00     0.012 C 
BRANCH  19  20
HETATM   20  C2  UNL     1      60.184   3.477 -29.018  1.00  0.00    -0.004 C 
HETATM   21  C1  UNL     1      58.794   4.068 -29.023  1.00  0.00     0.005 C 
ENDBRANCH  19  20
ENDBRANCH   1  19
BRANCH   1  22
HETATM   22  C5  UNL     1      58.999   0.193 -29.294  1.00  0.00     0.174 C 
BRANCH  22  23
HETATM   23  O1  UNL     1      57.946   0.794 -28.615  1.00  0.00    -0.400 OA
ATOM     24  H1  UNL     1      57.533   0.218 -27.983  1.00  0.00     0.209 HD
ENDBRANCH  22  23
ENDBRANCH   1  22
TORSDOF 8
ENDMDL
MODEL 4
REMARK VINA RESULT: -8.186464108      1.573      2.644
REMARK  8 active torsions:
REMARK  status: ('A' for Active; 'I' for Inactive)
REMARK    1  A    between atoms: C2_2  and  C3_3 
REMARK    2  A    between atoms: C3_3  and  C4_4 
REMARK    3  A    between atoms: C4_4  and  C5_5 
REMARK    4  A    between atoms: C5_5  and  O1_6 
REMARK    5  A    between atoms: C9_11  and  N1_12 
REMARK    6  A    between atoms: N1_12  and  C10_14 
REMARK    7  A    between atoms: C10_14  and  C11_15 
REMARK    8  A    between atoms: C11_15  and  C12_16 
ROOT
HETATM    1  C4  UNL     1      61.657  -0.279 -29.852  1.00  0.00    -0.010 C 
HETATM    2  C6  UNL     1      62.839   0.296 -29.136  1.00  0.00    -0.003 C 
HETATM    3  C7  UNL     1      64.087   0.316 -29.981  1.00  0.00     0.007 C 
HETATM    4  C8  UNL     1      64.513  -1.112 -30.375  1.00  0.00     0.026 C 
HETATM    5  C9  UNL     1      63.358  -2.043 -30.487  1.00  0.00     0.085 C 
HETATM    6  C19 UNL     1      62.230  -1.639 -29.551  1.00  0.00     0.019 C 
HETATM    7  C20 UNL     1      62.912  -1.012 -28.346  1.00  0.00     0.013 C 
ENDROOT
BRANCH   5   8
HETATM    8  N1  UNL     1      63.649  -3.393 -30.229  1.00  0.00    -0.397 N 
ATOM      9  H1  UNL     1      62.870  -3.992 -29.956  1.00  0.00     0.159 HD
BRANCH   8  10
HETATM   10  C10 UNL     1      64.893  -3.980 -30.310  1.00  0.00     0.056 C 
BRANCH  10  11
HETATM   11  C11 UNL     1      65.279  -4.531 -31.632  1.00  0.00     0.049 C 
BRANCH  11  12
HETATM   12  C12 UNL     1      66.530  -3.856 -32.191  1.00  0.00    -0.005 C 
HETATM   13  C13 UNL     1      67.292  -3.298 -30.995  1.00  0.00     0.010 C 
HETATM   14  C14 UNL     1      68.689  -3.806 -31.258  1.00  0.00    -0.014 C 
HETATM   15  C15 UNL     1      69.171  -3.172 -32.520  1.00  0.00     0.005 C 
HETATM   16  C18 UNL     1      68.373  -5.221 -31.767  1.00  0.00     0.009 C 
HETATM   17  C16 UNL     1      68.442  -3.868 -33.667  1.00  0.00     0.005 C 
HETATM   18  C17 UNL     1      67.460  -4.750 -32.918  1.00  0.00    -0.010 C 
ENDBRANCH  11  12
ENDBRANCH  10  11
ENDBRANCH   8  10
ENDBRANCH   5   8
BRANCH   1  19
HETATM   19  C3  UNL     1      60.400  -0.093 -29.052  1.00  0.00     0.012 C 
BRANCH  19  20
HETATM   20  C2  UNL     1      60.273   1.289 -28.458  1.00  0.00    -0.004 C 
HETATM   21  C1  UNL     1      58.912   1.895 -28.704  1.00  0.00     0.005 C 
ENDBRANCH  19  20
ENDBRANCH   1  19
BRANCH   1  22
HETATM   22  C5  UNL     1      61.537   0.027 -31.316  1.00  0.00     0.174 C 
BRANCH  22  23
HETATM   23  O1  UNL     1      61.360   1.381 -31.576  1.00  0.00    -0.400 OA
ATOM     24  H1  UNL     1      60.835   1.820 -30.918  1.00  0.00     0.209 HD
ENDBRANCH  22  23
ENDBRANCH   1  22
TORSDOF 8
ENDMDL
MODEL 5
REMARK VINA RESULT: -7.994186169      2.914      8.361
REMARK  8 active torsions:
REMARK  status: ('A' for Active; 'I' for Inactive)
REMARK    1  A    between atoms: C2_2  and  C3_3 
REMARK    2  A    between atoms: C3_3  and  C4_4 
REMARK    3  A    between atoms: C4_4  and  C5_5 
REMARK    4  A    between atoms: C5_5  and  O1_6 
REMARK    5  A    between atoms: C9_11  and  N1_12 
REMARK    6  A    between atoms: N1_12  and  C10_14 
REMARK    7  A    between atoms: C10_14  and  C11_15 
REMARK    8  A    between atoms: C11_15  and  C12_16 
ROOT
HETATM    1  C4  UNL     1      67.802  -3.329 -32.053  1.00  0.00    -0.010 C 
HETATM    2  C6  UNL     1      67.377  -4.172 -30.891  1.00  0.00    -0.003 C 
HETATM    3  C7  UNL     1      65.893  -4.435 -30.867  1.00  0.00     0.007 C 
HETATM    4  C8  UNL     1      65.098  -3.122 -30.722  1.00  0.00     0.026 C 
HETATM    5  C9  UNL     1      65.801  -1.959 -31.326  1.00  0.00     0.085 C 
HETATM    6  C19 UNL     1      67.310  -2.137 -31.274  1.00  0.00     0.019 C 
HETATM    7  C20 UNL     1      67.578  -2.938 -30.009  1.00  0.00     0.013 C 
ENDROOT
BRANCH   5   8
HETATM    8  N1  UNL     1      65.511  -0.714 -30.743  1.00  0.00    -0.397 N 
ATOM      9  H1  UNL     1      66.279  -0.225 -30.285  1.00  0.00     0.159 HD
BRANCH   8  10
HETATM   10  C10 UNL     1      64.279  -0.095 -30.735  1.00  0.00     0.056 C 
BRANCH  10  11
HETATM   11  C11 UNL     1      63.564  -0.061 -29.436  1.00  0.00     0.049 C 
BRANCH  11  12
HETATM   12  C12 UNL     1      62.057  -0.245 -29.606  1.00  0.00    -0.005 C 
HETATM   13  C13 UNL     1      61.423   0.118 -28.267  1.00  0.00     0.010 C 
HETATM   14  C14 UNL     1      60.327   1.063 -28.695  1.00  0.00    -0.014 C 
HETATM   15  C15 UNL     1      59.362   0.289 -29.531  1.00  0.00     0.005 C 
HETATM   16  C18 UNL     1      61.061   1.856 -29.788  1.00  0.00     0.009 C 
HETATM   17  C16 UNL     1      60.033   0.070 -30.885  1.00  0.00     0.005 C 
HETATM   18  C17 UNL     1      61.426   0.617 -30.631  1.00  0.00    -0.010 C 
ENDBRANCH  11  12
ENDBRANCH  10  11
ENDBRANCH   8  10
ENDBRANCH   5   8
BRANCH   1  19
HETATM   19  C3  UNL     1      69.299  -3.262 -32.151  1.00  0.00     0.012 C 
BRANCH  19  20
HETATM   20  C2  UNL     1      69.945  -4.617 -32.303  1.00  0.00    -0.004 C 
HETATM   21  C1  UNL     1      70.345  -4.904 -33.730  1.00  0.00     0.005 C 
ENDBRANCH  19  20
ENDBRANCH   1  19
BRANCH   1  22
HETATM   22  C5  UNL     1      67.084  -3.552 -33.351  1.00  0.00     0.174 C 
BRANCH  22  23
HETATM   23  O1  UNL     1      67.462  -2.655 -34.344  1.00  0.00    -0.400 OA
ATOM     24  H1  UNL     1      67.462  -3.040 -35.212  1.00  0.00     0.209 HD
ENDBRANCH  22  23
ENDBRANCH   1  22
TORSDOF 8
ENDMDL
