MODEL 1
REMARK VINA RESULT: -8.756308208      0.000      0.000
REMARK  10 active torsions:
REMARK  status: ('A' for Active; 'I' for Inactive)
REMARK    1  A    between atoms: N2_3  and  C2_5 
REMARK    2  A    between atoms: C3_7  and  C4_8 
REMARK    3  A    between atoms: C4_8  and  C5_9 
REMARK       I    between atoms: C5_9  and  N3_11 
REMARK    4  A    between atoms: C6_13  and  C7_14 
REMARK    5  A    between atoms: C11_24  and  C12_25 
REMARK    6  A    between atoms: C12_25  and  N9_32 
REMARK    7  A    between atoms: N6_26  and  N7_28 
REMARK    8  A    between atoms: N9_32  and  C14_34 
REMARK    9  A    between atoms: C14_34  and  C15_35 
REMARK   10  A    between atoms: C18_38  and  N10_39 
ROOT
HETATM    1  N1  UNL     1      26.434  28.468  25.275  1.00  0.00    -0.172 NA
HETATM    2  C1  UNL     1      25.538  27.833  25.694  1.00  0.00     0.179 C 
HETATM    3  N2  UNL     1      24.466  27.075  26.168  1.00  0.00    -0.300 N 
ATOM      4  H2  UNL     1      24.604  26.071  26.294  1.00  0.00     0.174 HD
ENDROOT
BRANCH   3   5
HETATM    5  C2  UNL     1      23.178  27.630  26.488  1.00  0.00     0.245 C 
HETATM    6  O1  UNL     1      23.026  28.802  25.750  1.00  0.00    -0.332 OA
HETATM    7  C3  UNL     1      21.898  29.519  26.155  1.00  0.00     0.331 C 
HETATM    8  N5  UNL     1      20.808  28.657  26.493  1.00  0.00    -0.047 N 
HETATM    9  C10 UNL     1      20.851  27.408  25.770  1.00  0.00     0.252 C 
ATOM     10  H52 UNL     1      20.762  28.498  27.500  1.00  0.00     0.280 HD
ATOM     11  H51 UNL     1      19.912  29.128  26.362  1.00  0.00     0.280 HD
HETATM   12  C11 UNL     1      22.079  26.654  26.276  1.00  0.00     0.129 C 
BRANCH   7  13
HETATM   13  C4  UNL     1      21.577  30.511  25.056  1.00  0.00     0.164 C 
BRANCH  13  14
HETATM   14  C5  UNL     1      20.249  31.138  25.201  1.00  0.00     0.225 C 
HETATM   15  O2  UNL     1      19.191  30.439  25.049  1.00  0.00    -0.273 OA
HETATM   16  N3  UNL     1      20.114  32.504  25.505  1.00  0.00    -0.334 N 
HETATM   17  C6  UNL     1      19.938  33.457  24.702  1.00  0.00     0.128 C 
ATOM     18  H3  UNL     1      20.163  32.751  26.493  1.00  0.00     0.168 HD
BRANCH  17  19
HETATM   19  C7  UNL     1      19.853  33.197  23.264  1.00  0.00     0.089 A 
HETATM   20  N4  UNL     1      18.900  32.588  22.576  1.00  0.00    -0.359 N 
HETATM   21  C8  UNL     1      19.006  32.451  21.292  1.00  0.00     0.096 A 
ATOM     22  H4  UNL     1      18.078  32.223  23.059  1.00  0.00     0.166 HD
HETATM   23  C9  UNL     1      20.128  32.957  20.688  1.00  0.00     0.069 A 
HETATM   24  S1  UNL     1      20.972  33.605  22.025  1.00  0.00    -0.082 SA
ENDBRANCH  17  19
ENDBRANCH  13  14
ENDBRANCH   7  13
BRANCH  12  25
HETATM   25  C12 UNL     1      22.411  25.521  25.379  1.00  0.00     0.102 C 
HETATM   26  N6  UNL     1      22.773  24.359  25.844  1.00  0.00    -0.288 N 
ATOM     27  H6  UNL     1      22.993  23.609  25.189  1.00  0.00     0.188 HD
BRANCH  26  28
HETATM   28  N7  UNL     1      22.868  24.113  27.223  1.00  0.00    -0.297 N 
HETATM   29  C13 UNL     1      22.035  23.304  27.755  1.00  0.00     0.206 C 
HETATM   30  N8  UNL     1      22.087  23.020  29.146  1.00  0.00    -0.095 NA
ATOM     31  H7  UNL     1      23.585  24.571  27.786  1.00  0.00     0.187 HD
ENDBRANCH  26  28
BRANCH  25  32
HETATM   32  N9  UNL     1      22.344  25.633  23.963  1.00  0.00    -0.374 N 
ATOM     33  H9  UNL     1      21.419  25.677  23.537  1.00  0.00     0.161 HD
BRANCH  32  34
HETATM   34  C14 UNL     1      23.479  25.687  23.087  1.00  0.00     0.161 C 
BRANCH  34  35
HETATM   35  C15 UNL     1      23.331  24.881  21.848  1.00  0.00    -0.025 A 
HETATM   36  C16 UNL     1      24.296  24.902  20.847  1.00  0.00     0.014 A 
HETATM   37  C17 UNL     1      24.143  24.142  19.709  1.00  0.00     0.048 A 
HETATM   38  C18 UNL     1      23.036  23.338  19.526  1.00  0.00     0.098 A 
HETATM   39  N11 UNL     1      22.102  23.314  20.490  1.00  0.00    -0.352 N 
HETATM   40  C19 UNL     1      22.247  24.062  21.616  1.00  0.00     0.098 A 
ATOM     41  H11 UNL     1      21.274  22.728  20.376  1.00  0.00     0.166 HD
BRANCH  38  42
HETATM   42  N10 UNL     1      22.894  22.616  18.443  1.00  0.00    -0.385 N 
ATOM     43 2H10 UNL     1      23.336  21.699  18.369  1.00  0.00     0.157 HD
ATOM     44 1H10 UNL     1      22.341  22.950  17.653  1.00  0.00     0.157 HD
ENDBRANCH  38  42
ENDBRANCH  34  35
ENDBRANCH  32  34
ENDBRANCH  25  32
ENDBRANCH  12  25
ENDBRANCH   3   5
TORSDOF 10
ENDMDL
MODEL 2
REMARK VINA RESULT: -8.740893756      3.506      7.273
REMARK  10 active torsions:
REMARK  status: ('A' for Active; 'I' for Inactive)
REMARK    1  A    between atoms: N2_3  and  C2_5 
REMARK    2  A    between atoms: C3_7  and  C4_8 
REMARK    3  A    between atoms: C4_8  and  C5_9 
REMARK       I    between atoms: C5_9  and  N3_11 
REMARK    4  A    between atoms: C6_13  and  C7_14 
REMARK    5  A    between atoms: C11_24  and  C12_25 
REMARK    6  A    between atoms: C12_25  and  N9_32 
REMARK    7  A    between atoms: N6_26  and  N7_28 
REMARK    8  A    between atoms: N9_32  and  C14_34 
REMARK    9  A    between atoms: C14_34  and  C15_35 
REMARK   10  A    between atoms: C18_38  and  N10_39 
ROOT
HETATM    1  N1  UNL     1      18.121  27.488  26.369  1.00  0.00    -0.172 NA
HETATM    2  C1  UNL     1      19.239  27.364  26.028  1.00  0.00     0.179 C 
HETATM    3  N2  UNL     1      20.564  27.193  25.623  1.00  0.00    -0.300 N 
ATOM      4  H2  UNL     1      20.765  27.187  24.622  1.00  0.00     0.174 HD
ENDROOT
BRANCH   3   5
HETATM    5  C2  UNL     1      21.661  27.023  26.539  1.00  0.00     0.245 C 
HETATM    6  O1  UNL     1      21.643  25.702  26.983  1.00  0.00    -0.332 OA
HETATM    7  C3  UNL     1      22.540  25.504  28.033  1.00  0.00     0.331 C 
HETATM    8  N5  UNL     1      23.744  26.257  27.862  1.00  0.00    -0.047 N 
HETATM    9  C10 UNL     1      24.047  26.495  26.470  1.00  0.00     0.252 C 
ATOM     10  H52 UNL     1      23.709  27.132  28.385  1.00  0.00     0.280 HD
ATOM     11  H51 UNL     1      24.528  25.813  28.339  1.00  0.00     0.280 HD
HETATM   12  C11 UNL     1      22.959  27.424  25.938  1.00  0.00     0.129 C 
BRANCH   7  13
HETATM   13  C4  UNL     1      22.765  24.011  28.158  1.00  0.00     0.164 C 
BRANCH  13  14
HETATM   14  C5  UNL     1      21.657  23.303  28.827  1.00  0.00     0.225 C 
HETATM   15  O2  UNL     1      21.900  22.494  29.786  1.00  0.00    -0.273 OA
HETATM   16  N3  UNL     1      20.322  23.495  28.434  1.00  0.00    -0.334 N 
HETATM   17  C6  UNL     1      19.645  22.791  27.639  1.00  0.00     0.128 C 
ATOM     18  H3  UNL     1      19.844  24.299  28.841  1.00  0.00     0.168 HD
BRANCH  17  19
HETATM   19  C7  UNL     1      20.247  21.617  27.006  1.00  0.00     0.089 A 
HETATM   20  N4  UNL     1      21.023  21.545  25.936  1.00  0.00    -0.359 N 
HETATM   21  C8  UNL     1      21.462  20.398  25.523  1.00  0.00     0.096 A 
ATOM     22  H4  UNL     1      21.277  22.396  25.435  1.00  0.00     0.166 HD
HETATM   23  C9  UNL     1      21.094  19.283  26.230  1.00  0.00     0.069 A 
HETATM   24  S1  UNL     1      20.124  19.963  27.461  1.00  0.00    -0.082 SA
ENDBRANCH  17  19
ENDBRANCH  13  14
ENDBRANCH   7  13
BRANCH  12  25
HETATM   25  C12 UNL     1      22.977  27.468  24.457  1.00  0.00     0.102 C 
HETATM   26  N6  UNL     1      22.830  28.584  23.800  1.00  0.00    -0.288 N 
ATOM     27  H6  UNL     1      22.848  28.567  22.780  1.00  0.00     0.188 HD
BRANCH  26  28
HETATM   28  N7  UNL     1      22.646  29.809  24.459  1.00  0.00    -0.297 N 
HETATM   29  C13 UNL     1      21.550  30.440  24.277  1.00  0.00     0.206 C 
HETATM   30  N8  UNL     1      21.313  31.684  24.920  1.00  0.00    -0.095 NA
ATOM     31  H7  UNL     1      23.371  30.188  25.070  1.00  0.00     0.187 HD
ENDBRANCH  26  28
BRANCH  25  32
HETATM   32  N9  UNL     1      23.167  26.301  23.667  1.00  0.00    -0.374 N 
ATOM     33  H9  UNL     1      22.721  25.441  23.985  1.00  0.00     0.161 HD
BRANCH  32  34
HETATM   34  C14 UNL     1      23.936  26.240  22.457  1.00  0.00     0.161 C 
BRANCH  34  35
HETATM   35  C15 UNL     1      23.601  25.088  21.581  1.00  0.00    -0.025 A 
HETATM   36  C16 UNL     1      24.365  24.781  20.461  1.00  0.00     0.014 A 
HETATM   37  C17 UNL     1      24.042  23.705  19.664  1.00  0.00     0.048 A 
HETATM   38  C18 UNL     1      22.958  22.901  19.950  1.00  0.00     0.098 A 
HETATM   39  N11 UNL     1      22.217  23.193  21.032  1.00  0.00    -0.352 N 
HETATM   40  C19 UNL     1      22.531  24.254  21.821  1.00  0.00     0.098 A 
ATOM     41  H11 UNL     1      21.410  22.613  21.262  1.00  0.00     0.166 HD
BRANCH  38  42
HETATM   42  N10 UNL     1      22.653  21.878  19.191  1.00  0.00    -0.385 N 
ATOM     43 2H10 UNL     1      21.858  21.925  18.554  1.00  0.00     0.157 HD
ATOM     44 1H10 UNL     1      23.199  21.017  19.220  1.00  0.00     0.157 HD
ENDBRANCH  38  42
ENDBRANCH  34  35
ENDBRANCH  32  34
ENDBRANCH  25  32
ENDBRANCH  12  25
ENDBRANCH   3   5
TORSDOF 10
ENDMDL
MODEL 3
REMARK VINA RESULT: -8.638477757      1.988      2.640
REMARK  10 active torsions:
REMARK  status: ('A' for Active; 'I' for Inactive)
REMARK    1  A    between atoms: N2_3  and  C2_5 
REMARK    2  A    between atoms: C3_7  and  C4_8 
REMARK    3  A    between atoms: C4_8  and  C5_9 
REMARK       I    between atoms: C5_9  and  N3_11 
REMARK    4  A    between atoms: C6_13  and  C7_14 
REMARK    5  A    between atoms: C11_24  and  C12_25 
REMARK    6  A    between atoms: C12_25  and  N9_32 
REMARK    7  A    between atoms: N6_26  and  N7_28 
REMARK    8  A    between atoms: N9_32  and  C14_34 
REMARK    9  A    between atoms: C14_34  and  C15_35 
REMARK   10  A    between atoms: C18_38  and  N10_39 
ROOT
HETATM    1  N1  UNL     1      26.427  28.479  25.247  1.00  0.00    -0.172 NA
HETATM    2  C1  UNL     1      25.589  27.773  25.672  1.00  0.00     0.179 C 
HETATM    3  N2  UNL     1      24.583  26.933  26.154  1.00  0.00    -0.300 N 
ATOM      4  H2  UNL     1      24.764  25.929  26.178  1.00  0.00     0.174 HD
ENDROOT
BRANCH   3   5
HETATM    5  C2  UNL     1      23.305  27.406  26.617  1.00  0.00     0.245 C 
HETATM    6  O1  UNL     1      23.065  28.639  26.015  1.00  0.00    -0.332 OA
HETATM    7  C3  UNL     1      21.948  29.269  26.567  1.00  0.00     0.331 C 
HETATM    8  N5  UNL     1      20.911  28.338  26.890  1.00  0.00    -0.047 N 
HETATM    9  C10 UNL     1      20.940  27.170  26.041  1.00  0.00     0.252 C 
ATOM     10  H52 UNL     1      20.944  28.078  27.876  1.00  0.00     0.280 HD
ATOM     11  H51 UNL     1      19.995  28.786  26.869  1.00  0.00     0.280 HD
HETATM   12  C11 UNL     1      22.223  26.415  26.382  1.00  0.00     0.129 C 
BRANCH   7  13
HETATM   13  C4  UNL     1      21.518  30.353  25.600  1.00  0.00     0.164 C 
BRANCH  13  14
HETATM   14  C5  UNL     1      20.501  31.266  26.155  1.00  0.00     0.225 C 
HETATM   15  O2  UNL     1      20.476  31.512  27.409  1.00  0.00    -0.273 OA
HETATM   16  N3  UNL     1      19.542  31.882  25.332  1.00  0.00    -0.334 N 
HETATM   17  C6  UNL     1      18.367  31.496  25.099  1.00  0.00     0.128 C 
ATOM     18  H3  UNL     1      19.834  32.743  24.869  1.00  0.00     0.168 HD
BRANCH  17  19
HETATM   19  C7  UNL     1      17.861  30.271  25.719  1.00  0.00     0.089 A 
HETATM   20  N4  UNL     1      17.819  29.040  25.235  1.00  0.00    -0.359 N 
HETATM   21  C8  UNL     1      17.326  28.075  25.944  1.00  0.00     0.096 A 
ATOM     22  H4  UNL     1      18.177  28.850  24.298  1.00  0.00     0.166 HD
HETATM   23  C9  UNL     1      16.858  28.378  27.196  1.00  0.00     0.069 A 
HETATM   24  S1  UNL     1      17.160  30.059  27.275  1.00  0.00    -0.082 SA
ENDBRANCH  17  19
ENDBRANCH  13  14
ENDBRANCH   7  13
BRANCH  12  25
HETATM   25  C12 UNL     1      22.524  25.391  25.353  1.00  0.00     0.102 C 
HETATM   26  N6  UNL     1      22.932  24.195  25.672  1.00  0.00    -0.288 N 
ATOM     27  H6  UNL     1      23.127  23.523  24.930  1.00  0.00     0.188 HD
BRANCH  26  28
HETATM   28  N7  UNL     1      23.109  23.809  27.010  1.00  0.00    -0.297 N 
HETATM   29  C13 UNL     1      22.107  23.334  27.643  1.00  0.00     0.206 C 
HETATM   30  N8  UNL     1      22.232  22.928  28.999  1.00  0.00    -0.095 NA
ATOM     31  H7  UNL     1      24.018  23.905  27.465  1.00  0.00     0.187 HD
ENDBRANCH  26  28
BRANCH  25  32
HETATM   32  N9  UNL     1      22.375  25.649  23.963  1.00  0.00    -0.374 N 
ATOM     33  H9  UNL     1      21.427  25.760  23.603  1.00  0.00     0.161 HD
BRANCH  32  34
HETATM   34  C14 UNL     1      23.456  25.764  23.026  1.00  0.00     0.161 C 
BRANCH  34  35
HETATM   35  C15 UNL     1      23.313  24.904  21.823  1.00  0.00    -0.025 A 
HETATM   36  C16 UNL     1      24.260  24.914  20.806  1.00  0.00     0.014 A 
HETATM   37  C17 UNL     1      24.114  24.104  19.701  1.00  0.00     0.048 A 
HETATM   38  C18 UNL     1      23.030  23.260  19.570  1.00  0.00     0.098 A 
HETATM   39  N11 UNL     1      22.112  23.246  20.551  1.00  0.00    -0.352 N 
HETATM   40  C19 UNL     1      22.252  24.043  21.643  1.00  0.00     0.098 A 
ATOM     41  H11 UNL     1      21.302  22.630  20.475  1.00  0.00     0.166 HD
BRANCH  38  42
HETATM   42  N10 UNL     1      22.893  22.490  18.519  1.00  0.00    -0.385 N 
ATOM     43 2H10 UNL     1      23.618  22.458  17.803  1.00  0.00     0.157 HD
ATOM     44 1H10 UNL     1      22.063  21.910  18.394  1.00  0.00     0.157 HD
ENDBRANCH  38  42
ENDBRANCH  34  35
ENDBRANCH  32  34
ENDBRANCH  25  32
ENDBRANCH  12  25
ENDBRANCH   3   5
TORSDOF 10
ENDMDL
MODEL 4
REMARK VINA RESULT: -8.503609892      1.202      1.279
REMARK  10 active torsions:
REMARK  status: ('A' for Active; 'I' for Inactive)
REMARK    1  A    between atoms: N2_3  and  C2_5 
REMARK    2  A    between atoms: C3_7  and  C4_8 
REMARK    3  A    between atoms: C4_8  and  C5_9 
REMARK       I    between atoms: C5_9  and  N3_11 
REMARK    4  A    between atoms: C6_13  and  C7_14 
REMARK    5  A    between atoms: C11_24  and  C12_25 
REMARK    6  A    between atoms: C12_25  and  N9_32 
REMARK    7  A    between atoms: N6_26  and  N7_28 
REMARK    8  A    between atoms: N9_32  and  C14_34 
REMARK    9  A    between atoms: C14_34  and  C15_35 
REMARK   10  A    between atoms: C18_38  and  N10_39 
ROOT
HETATM    1  N1  UNL     1      26.091  27.425  25.697  1.00  0.00    -0.172 NA
HETATM    2  C1  UNL     1      25.082  27.097  26.203  1.00  0.00     0.179 C 
HETATM    3  N2  UNL     1      23.876  26.697  26.783  1.00  0.00    -0.300 N 
ATOM      4  H2  UNL     1      23.838  25.783  27.234  1.00  0.00     0.174 HD
ENDROOT
BRANCH   3   5
HETATM    5  C2  UNL     1      22.685  27.504  26.779  1.00  0.00     0.245 C 
HETATM    6  O1  UNL     1      22.881  28.546  25.874  1.00  0.00    -0.332 OA
HETATM    7  C3  UNL     1      21.863  29.497  25.960  1.00  0.00     0.331 C 
HETATM    8  N5  UNL     1      20.587  28.897  26.202  1.00  0.00    -0.047 N 
HETATM    9  C10 UNL     1      20.504  27.555  25.675  1.00  0.00     0.252 C 
ATOM     10  H52 UNL     1      20.352  28.918  27.194  1.00  0.00     0.280 HD
ATOM     11  H51 UNL     1      19.832  29.482  25.843  1.00  0.00     0.280 HD
HETATM   12  C11 UNL     1      21.466  26.702  26.498  1.00  0.00     0.129 C 
BRANCH   7  13
HETATM   13  C4  UNL     1      21.918  30.331  24.696  1.00  0.00     0.164 C 
BRANCH  13  14
HETATM   14  C5  UNL     1      20.762  31.234  24.537  1.00  0.00     0.225 C 
HETATM   15  O2  UNL     1      19.573  30.773  24.624  1.00  0.00    -0.273 OA
HETATM   16  N3  UNL     1      20.933  32.606  24.290  1.00  0.00    -0.334 N 
HETATM   17  C6  UNL     1      20.926  33.194  23.177  1.00  0.00     0.128 C 
ATOM     18  H3  UNL     1      21.079  33.196  25.109  1.00  0.00     0.168 HD
BRANCH  17  19
HETATM   19  C7  UNL     1      20.721  32.430  21.946  1.00  0.00     0.089 A 
HETATM   20  N4  UNL     1      21.612  31.822  21.178  1.00  0.00    -0.359 N 
HETATM   21  C8  UNL     1      21.233  31.188  20.113  1.00  0.00     0.096 A 
ATOM     22  H4  UNL     1      22.601  31.853  21.424  1.00  0.00     0.166 HD
HETATM   23  C9  UNL     1      19.893  31.174  19.823  1.00  0.00     0.069 A 
HETATM   24  S1  UNL     1      19.254  32.089  21.118  1.00  0.00    -0.082 SA
ENDBRANCH  17  19
ENDBRANCH  13  14
ENDBRANCH   7  13
BRANCH  12  25
HETATM   25  C12 UNL     1      21.712  25.397  25.841  1.00  0.00     0.102 C 
HETATM   26  N6  UNL     1      21.844  24.296  26.525  1.00  0.00    -0.288 N 
ATOM     27  H6  UNL     1      22.013  23.421  26.031  1.00  0.00     0.188 HD
BRANCH  26  28
HETATM   28  N7  UNL     1      21.758  24.284  27.926  1.00  0.00    -0.297 N 
HETATM   29  C13 UNL     1      20.850  23.573  28.474  1.00  0.00     0.206 C 
HETATM   30  N8  UNL     1      20.719  23.525  29.888  1.00  0.00    -0.095 NA
ATOM     31  H7  UNL     1      22.407  24.831  28.494  1.00  0.00     0.187 HD
ENDBRANCH  26  28
BRANCH  25  32
HETATM   32  N9  UNL     1      21.810  25.268  24.428  1.00  0.00    -0.374 N 
ATOM     33  H9  UNL     1      20.974  24.973  23.924  1.00  0.00     0.161 HD
BRANCH  32  34
HETATM   34  C14 UNL     1      22.993  25.520  23.657  1.00  0.00     0.161 C 
BRANCH  34  35
HETATM   35  C15 UNL     1      22.983  24.900  22.306  1.00  0.00    -0.025 A 
HETATM   36  C16 UNL     1      24.023  25.101  21.407  1.00  0.00     0.014 A 
HETATM   37  C17 UNL     1      23.999  24.513  20.162  1.00  0.00     0.048 A 
HETATM   38  C18 UNL     1      22.949  23.709  19.770  1.00  0.00     0.098 A 
HETATM   39  N11 UNL     1      21.941  23.510  20.635  1.00  0.00    -0.352 N 
HETATM   40  C19 UNL     1      21.960  24.089  21.866  1.00  0.00     0.098 A 
ATOM     41  H11 UNL     1      21.153  22.920  20.367  1.00  0.00     0.166 HD
BRANCH  38  42
HETATM   42  N10 UNL     1      22.927  23.150  18.585  1.00  0.00    -0.385 N 
ATOM     43 2H10 UNL     1      23.240  22.187  18.461  1.00  0.00     0.157 HD
ATOM     44 1H10 UNL     1      22.600  23.661  17.765  1.00  0.00     0.157 HD
ENDBRANCH  38  42
ENDBRANCH  34  35
ENDBRANCH  32  34
ENDBRANCH  25  32
ENDBRANCH  12  25
ENDBRANCH   3   5
TORSDOF 10
ENDMDL
MODEL 5
REMARK VINA RESULT: -8.366585362      4.693      7.047
REMARK  10 active torsions:
REMARK  status: ('A' for Active; 'I' for Inactive)
REMARK    1  A    between atoms: N2_3  and  C2_5 
REMARK    2  A    between atoms: C3_7  and  C4_8 
REMARK    3  A    between atoms: C4_8  and  C5_9 
REMARK       I    between atoms: C5_9  and  N3_11 
REMARK    4  A    between atoms: C6_13  and  C7_14 
REMARK    5  A    between atoms: C11_24  and  C12_25 
REMARK    6  A    between atoms: C12_25  and  N9_32 
REMARK    7  A    between atoms: N6_26  and  N7_28 
REMARK    8  A    between atoms: N9_32  and  C14_34 
REMARK    9  A    between atoms: C14_34  and  C15_35 
REMARK   10  A    between atoms: C18_38  and  N10_39 
ROOT
HETATM    1  N1  UNL     1      22.163  21.092  24.953  1.00  0.00    -0.172 NA
HETATM    2  C1  UNL     1      22.145  22.264  24.866  1.00  0.00     0.179 C 
HETATM    3  N2  UNL     1      22.134  23.658  24.786  1.00  0.00    -0.300 N 
ATOM      4  H2  UNL     1      22.918  24.120  24.322  1.00  0.00     0.174 HD
ENDROOT
BRANCH   3   5
HETATM    5  C2  UNL     1      21.080  24.479  25.320  1.00  0.00     0.245 C 
HETATM    6  O1  UNL     1      21.066  24.303  26.703  1.00  0.00    -0.332 OA
HETATM    7  C3  UNL     1      19.942  24.896  27.282  1.00  0.00     0.331 C 
HETATM    8  N5  UNL     1      19.596  26.128  26.643  1.00  0.00    -0.047 N 
HETATM    9  C10 UNL     1      20.743  26.784  26.061  1.00  0.00     0.252 C 
ATOM     10  H52 UNL     1      18.860  25.990  25.950  1.00  0.00     0.280 HD
ATOM     11  H51 UNL     1      19.102  26.749  27.285  1.00  0.00     0.280 HD
HETATM   12  C11 UNL     1      21.214  25.899  24.908  1.00  0.00     0.129 C 
BRANCH   7  13
HETATM   13  C4  UNL     1      20.218  25.032  28.765  1.00  0.00     0.164 C 
BRANCH  13  14
HETATM   14  C5  UNL     1      19.215  24.360  29.613  1.00  0.00     0.225 C 
HETATM   15  O2  UNL     1      19.504  24.042  30.817  1.00  0.00    -0.273 OA
HETATM   16  N3  UNL     1      17.932  24.056  29.129  1.00  0.00    -0.334 N 
HETATM   17  C6  UNL     1      17.533  22.967  28.639  1.00  0.00     0.128 C 
ATOM     18  H3  UNL     1      17.242  24.805  29.181  1.00  0.00     0.168 HD
BRANCH  17  19
HETATM   19  C7  UNL     1      18.452  21.834  28.525  1.00  0.00     0.089 A 
HETATM   20  N4  UNL     1      19.356  21.577  27.592  1.00  0.00    -0.359 N 
HETATM   21  C8  UNL     1      20.084  20.509  27.664  1.00  0.00     0.096 A 
ATOM     22  H4  UNL     1      19.480  22.224  26.813  1.00  0.00     0.166 HD
HETATM   23  C9  UNL     1      19.881  19.670  28.729  1.00  0.00     0.069 A 
HETATM   24  S1  UNL     1      18.637  20.483  29.572  1.00  0.00    -0.082 SA
ENDBRANCH  17  19
ENDBRANCH  13  14
ENDBRANCH   7  13
BRANCH  12  25
HETATM   25  C12 UNL     1      22.568  26.297  24.455  1.00  0.00     0.102 C 
HETATM   26  N6  UNL     1      23.552  26.463  25.292  1.00  0.00    -0.288 N 
ATOM     27  H6  UNL     1      24.467  26.737  24.935  1.00  0.00     0.188 HD
BRANCH  26  28
HETATM   28  N7  UNL     1      23.386  26.274  26.673  1.00  0.00    -0.297 N 
HETATM   29  C13 UNL     1      24.037  27.027  27.473  1.00  0.00     0.206 C 
HETATM   30  N8  UNL     1      23.906  26.878  28.879  1.00  0.00    -0.095 NA
ATOM     31  H7  UNL     1      22.760  25.551  27.029  1.00  0.00     0.187 HD
ENDBRANCH  26  28
BRANCH  25  32
HETATM   32  N9  UNL     1      22.874  26.509  23.083  1.00  0.00    -0.374 N 
ATOM     33  H9  UNL     1      22.236  27.092  22.543  1.00  0.00     0.161 HD
BRANCH  32  34
HETATM   34  C14 UNL     1      24.013  25.966  22.399  1.00  0.00     0.161 C 
BRANCH  34  35
HETATM   35  C15 UNL     1      23.677  24.945  21.373  1.00  0.00    -0.025 A 
HETATM   36  C16 UNL     1      24.509  24.707  20.285  1.00  0.00     0.014 A 
HETATM   37  C17 UNL     1      24.183  23.751  19.348  1.00  0.00     0.048 A 
HETATM   38  C18 UNL     1      23.028  23.005  19.457  1.00  0.00     0.098 A 
HETATM   39  N11 UNL     1      22.220  23.231  20.506  1.00  0.00    -0.352 N 
HETATM   40  C19 UNL     1      22.537  24.173  21.434  1.00  0.00     0.098 A 
ATOM     41  H11 UNL     1      21.361  22.692  20.607  1.00  0.00     0.166 HD
BRANCH  38  42
HETATM   42  N10 UNL     1      22.720  22.097  18.565  1.00  0.00    -0.385 N 
ATOM     43 2H10 UNL     1      23.404  21.393  18.284  1.00  0.00     0.157 HD
ATOM     44 1H10 UNL     1      21.797  22.072  18.133  1.00  0.00     0.157 HD
ENDBRANCH  38  42
ENDBRANCH  34  35
ENDBRANCH  32  34
ENDBRANCH  25  32
ENDBRANCH  12  25
ENDBRANCH   3   5
TORSDOF 10
ENDMDL
