MODEL 1
REMARK VINA RESULT: -7.790791546      0.000      0.000
REMARK  14 active torsions:
REMARK  status: ('A' for Active; 'I' for Inactive)
REMARK    1  A    between atoms: C1_2  and  O3_4 
REMARK    2  A    between atoms: O3_4  and  C2_5 
REMARK    3  A    between atoms: C3_6  and  O4_7 
REMARK    4  A    between atoms: C4_9  and  O5_10 
REMARK    5  A    between atoms: C5_12  and  O6_13 
REMARK    6  A    between atoms: C6_15  and  O7_16 
REMARK    7  A    between atoms: C6_15  and  C7_18 
REMARK    8  A    between atoms: N1_23  and  C11_24 
REMARK    9  A    between atoms: C11_24  and  C12_25 
REMARK   10  A    between atoms: C12_25  and  C13_26 
REMARK   11  A    between atoms: C13_26  and  C14_27 
REMARK   12  A    between atoms: C14_27  and  C15_28 
REMARK   13  A    between atoms: C15_28  and  N2_29 
REMARK   14  A    between atoms: C21_35  and  O9_36 
ROOT
HETATM    1  C2  UNL     1      21.383  23.932  26.728  1.00  0.00     0.198 C 
HETATM    2  C3  UNL     1      21.366  22.927  25.651  1.00  0.00     0.181 C 
HETATM    3  C4  UNL     1      21.485  23.526  24.301  1.00  0.00     0.181 C 
HETATM    4  C5  UNL     1      22.540  24.594  24.142  1.00  0.00     0.188 C 
HETATM    5  C6  UNL     1      22.614  25.491  25.357  1.00  0.00     0.147 C 
HETATM    6  C21 UNL     1      21.338  25.332  26.167  1.00  0.00     0.189 C 
ENDROOT
BRANCH   5   7
HETATM    7  O7  UNL     1      23.617  24.995  26.181  1.00  0.00    -0.382 OA
ATOM      8  H7  UNL     1      24.133  25.734  26.478  1.00  0.00     0.210 HD
ENDBRANCH   5   7
BRANCH   5   9
HETATM    9  C7  UNL     1      22.930  26.902  25.013  1.00  0.00     0.286 C 
HETATM   10  C8  UNL     1      24.444  27.141  25.143  1.00  0.00     0.206 C 
HETATM   11  O8  UNL     1      24.791  27.027  26.487  1.00  0.00    -0.387 OA
HETATM   12  C9  UNL     1      24.345  28.198  27.096  1.00  0.00     0.198 C 
HETATM   13  C10 UNL     1      22.865  28.389  26.949  1.00  0.00     0.299 C 
HETATM   14  N1  UNL     1      22.283  27.904  25.748  1.00  0.00     0.100 N 
BRANCH  14  15
HETATM   15  C11 UNL     1      21.938  29.084  24.937  1.00  0.00     0.277 C 
BRANCH  15  16
HETATM   16  C12 UNL     1      21.569  30.255  25.732  1.00  0.00     0.057 C 
BRANCH  16  17
HETATM   17  C13 UNL     1      21.231  31.480  24.984  1.00  0.00    -0.027 C 
BRANCH  17  18
HETATM   18  C14 UNL     1      21.671  31.759  23.622  1.00  0.00    -0.001 C 
BRANCH  18  19
HETATM   19  C15 UNL     1      21.251  32.954  22.871  1.00  0.00     0.299 C 
BRANCH  19  20
HETATM   20  N2  UNL     1      20.634  32.438  21.616  1.00  0.00     0.091 N 
HETATM   21  C16 UNL     1      19.205  32.294  21.764  1.00  0.00     0.272 C 
HETATM   22  C17 UNL     1      18.714  31.278  20.782  1.00  0.00     0.030 C 
HETATM   23  C18 UNL     1      19.522  31.319  19.479  1.00  0.00     0.003 C 
HETATM   24  C19 UNL     1      20.921  30.866  19.847  1.00  0.00     0.030 C 
HETATM   25  C20 UNL     1      21.183  31.128  21.320  1.00  0.00     0.272 C 
ENDBRANCH  19  20
ENDBRANCH  18  19
ENDBRANCH  17  18
ENDBRANCH  16  17
ENDBRANCH  15  16
ENDBRANCH  14  15
ENDBRANCH   5   9
BRANCH   4  26
HETATM   26  O6  UNL     1      22.085  25.367  23.037  1.00  0.00    -0.390 OA
ATOM     27  H6  UNL     1      22.874  25.779  22.703  1.00  0.00     0.210 HD
ENDBRANCH   4  26
BRANCH   6  28
HETATM   28  O9  UNL     1      20.190  25.643  25.502  1.00  0.00    -0.390 OA
ATOM     29  H9  UNL     1      20.316  26.145  24.705  1.00  0.00     0.210 HD
ENDBRANCH   6  28
BRANCH   3  30
HETATM   30  O5  UNL     1      21.872  22.476  23.428  1.00  0.00    -0.390 OA
ATOM     31  H5  UNL     1      22.698  22.740  23.040  1.00  0.00     0.210 HD
ENDBRANCH   3  30
BRANCH   1  32
HETATM   32  O3  UNL     1      20.398  23.731  27.724  1.00  0.00    -0.285 OA
BRANCH  32  33
HETATM   33  C1  UNL     1      20.702  23.562  29.066  1.00  0.00     0.333 C 
HETATM   34  O1  UNL     1      21.808  22.971  29.321  1.00  0.00    -0.624 OA
HETATM   35  O2  UNL     1      19.867  24.002  30.098  1.00  0.00    -0.624 OA
ENDBRANCH  32  33
ENDBRANCH   1  32
BRANCH   2  36
HETATM   36  O4  UNL     1      22.385  21.970  25.893  1.00  0.00    -0.390 OA
ATOM     37  H4  UNL     1      22.470  21.408  25.132  1.00  0.00     0.210 HD
ENDBRANCH   2  36
TORSDOF 14
ENDMDL
MODEL 2
REMARK VINA RESULT: -7.672965090      2.840      5.322
REMARK  14 active torsions:
REMARK  status: ('A' for Active; 'I' for Inactive)
REMARK    1  A    between atoms: C1_2  and  O3_4 
REMARK    2  A    between atoms: O3_4  and  C2_5 
REMARK    3  A    between atoms: C3_6  and  O4_7 
REMARK    4  A    between atoms: C4_9  and  O5_10 
REMARK    5  A    between atoms: C5_12  and  O6_13 
REMARK    6  A    between atoms: C6_15  and  O7_16 
REMARK    7  A    between atoms: C6_15  and  C7_18 
REMARK    8  A    between atoms: N1_23  and  C11_24 
REMARK    9  A    between atoms: C11_24  and  C12_25 
REMARK   10  A    between atoms: C12_25  and  C13_26 
REMARK   11  A    between atoms: C13_26  and  C14_27 
REMARK   12  A    between atoms: C14_27  and  C15_28 
REMARK   13  A    between atoms: C15_28  and  N2_29 
REMARK   14  A    between atoms: C21_35  and  O9_36 
ROOT
HETATM    1  C2  UNL     1      21.007  24.200  25.778  1.00  0.00     0.198 C 
HETATM    2  C3  UNL     1      20.789  23.620  27.115  1.00  0.00     0.181 C 
HETATM    3  C4  UNL     1      21.595  24.280  28.169  1.00  0.00     0.181 C 
HETATM    4  C5  UNL     1      21.617  25.789  28.139  1.00  0.00     0.188 C 
HETATM    5  C6  UNL     1      21.677  26.318  26.724  1.00  0.00     0.147 C 
HETATM    6  C21 UNL     1      22.134  25.203  25.799  1.00  0.00     0.189 C 
ENDROOT
BRANCH   5   7
HETATM    7  O7  UNL     1      20.374  26.592  26.326  1.00  0.00    -0.382 OA
ATOM      8  H7  UNL     1      20.277  27.536  26.300  1.00  0.00     0.210 HD
ENDBRANCH   5   7
BRANCH   5   9
HETATM    9  C7  UNL     1      22.485  27.560  26.608  1.00  0.00     0.286 C 
HETATM   10  C8  UNL     1      21.944  28.624  27.578  1.00  0.00     0.206 C 
HETATM   11  O8  UNL     1      20.672  28.998  27.152  1.00  0.00    -0.387 OA
HETATM   12  C9  UNL     1      20.868  29.815  26.040  1.00  0.00     0.198 C 
HETATM   13  C10 UNL     1      21.606  29.112  24.940  1.00  0.00     0.299 C 
HETATM   14  N1  UNL     1      22.574  28.154  25.342  1.00  0.00     0.100 N 
BRANCH  14  15
HETATM   15  C11 UNL     1      23.895  28.746  25.072  1.00  0.00     0.277 C 
BRANCH  15  16
HETATM   16  C12 UNL     1      24.714  27.956  24.153  1.00  0.00     0.057 C 
BRANCH  16  17
HETATM   17  C13 UNL     1      24.060  27.503  22.911  1.00  0.00    -0.027 C 
BRANCH  17  18
HETATM   18  C14 UNL     1      24.160  26.150  22.376  1.00  0.00    -0.001 C 
BRANCH  18  19
HETATM   19  C15 UNL     1      23.056  25.178  22.435  1.00  0.00     0.299 C 
BRANCH  19  20
HETATM   20  N2  UNL     1      23.013  24.542  21.087  1.00  0.00     0.091 N 
HETATM   21  C16 UNL     1      22.197  23.351  21.103  1.00  0.00     0.272 C 
HETATM   22  C17 UNL     1      22.624  22.453  19.985  1.00  0.00     0.030 C 
HETATM   23  C18 UNL     1      23.085  23.258  18.764  1.00  0.00     0.003 C 
HETATM   24  C19 UNL     1      24.348  23.976  19.196  1.00  0.00     0.030 C 
HETATM   25  C20 UNL     1      24.357  24.152  20.705  1.00  0.00     0.272 C 
ENDBRANCH  19  20
ENDBRANCH  18  19
ENDBRANCH  17  18
ENDBRANCH  16  17
ENDBRANCH  15  16
ENDBRANCH  14  15
ENDBRANCH   5   9
BRANCH   4  26
HETATM   26  O6  UNL     1      22.830  26.130  28.800  1.00  0.00    -0.390 OA
ATOM     27  H6  UNL     1      23.034  26.998  28.474  1.00  0.00     0.210 HD
ENDBRANCH   4  26
BRANCH   6  28
HETATM   28  O9  UNL     1      23.359  24.679  26.088  1.00  0.00    -0.390 OA
ATOM     29  H9  UNL     1      23.757  25.015  26.881  1.00  0.00     0.210 HD
ENDBRANCH   6  28
BRANCH   3  30
HETATM   30  O5  UNL     1      20.998  23.932  29.408  1.00  0.00    -0.390 OA
ATOM     31  H5  UNL     1      20.132  24.322  29.407  1.00  0.00     0.210 HD
ENDBRANCH   3  30
BRANCH   1  32
HETATM   32  O3  UNL     1      21.172  23.242  24.750  1.00  0.00    -0.285 OA
BRANCH  32  33
HETATM   33  C1  UNL     1      21.806  22.024  24.946  1.00  0.00     0.333 C 
HETATM   34  O1  UNL     1      22.842  22.045  25.695  1.00  0.00    -0.624 OA
HETATM   35  O2  UNL     1      21.357  20.831  24.370  1.00  0.00    -0.624 OA
ENDBRANCH  32  33
ENDBRANCH   1  32
BRANCH   2  36
HETATM   36  O4  UNL     1      19.402  23.656  27.415  1.00  0.00    -0.390 OA
ATOM     37  H4  UNL     1      19.229  23.076  28.147  1.00  0.00     0.210 HD
ENDBRANCH   2  36
TORSDOF 14
ENDMDL
MODEL 3
REMARK VINA RESULT: -7.616919710      4.083      5.911
REMARK  14 active torsions:
REMARK  status: ('A' for Active; 'I' for Inactive)
REMARK    1  A    between atoms: C1_2  and  O3_4 
REMARK    2  A    between atoms: O3_4  and  C2_5 
REMARK    3  A    between atoms: C3_6  and  O4_7 
REMARK    4  A    between atoms: C4_9  and  O5_10 
REMARK    5  A    between atoms: C5_12  and  O6_13 
REMARK    6  A    between atoms: C6_15  and  O7_16 
REMARK    7  A    between atoms: C6_15  and  C7_18 
REMARK    8  A    between atoms: N1_23  and  C11_24 
REMARK    9  A    between atoms: C11_24  and  C12_25 
REMARK   10  A    between atoms: C12_25  and  C13_26 
REMARK   11  A    between atoms: C13_26  and  C14_27 
REMARK   12  A    between atoms: C14_27  and  C15_28 
REMARK   13  A    between atoms: C15_28  and  N2_29 
REMARK   14  A    between atoms: C21_35  and  O9_36 
ROOT
HETATM    1  C2  UNL     1      20.099  22.010  29.684  1.00  0.00     0.198 C 
HETATM    2  C3  UNL     1      18.632  21.987  29.818  1.00  0.00     0.181 C 
HETATM    3  C4  UNL     1      17.957  22.976  28.945  1.00  0.00     0.181 C 
HETATM    4  C5  UNL     1      18.452  23.049  27.521  1.00  0.00     0.188 C 
HETATM    5  C6  UNL     1      19.955  22.901  27.445  1.00  0.00     0.147 C 
HETATM    6  C21 UNL     1      20.548  23.163  28.820  1.00  0.00     0.189 C 
ENDROOT
BRANCH   5   7
HETATM    7  O7  UNL     1      20.230  21.563  27.193  1.00  0.00    -0.382 OA
ATOM      8  H7  UNL     1      21.175  21.465  27.171  1.00  0.00     0.210 HD
ENDBRANCH   5   7
BRANCH   5   9
HETATM    9  C7  UNL     1      20.561  23.726  26.367  1.00  0.00     0.286 C 
HETATM   10  C8  UNL     1      21.498  22.856  25.512  1.00  0.00     0.206 C 
HETATM   11  O8  UNL     1      22.579  22.470  26.301  1.00  0.00    -0.387 OA
HETATM   12  C9  UNL     1      23.391  23.598  26.412  1.00  0.00     0.198 C 
HETATM   13  C10 UNL     1      22.672  24.758  27.034  1.00  0.00     0.299 C 
HETATM   14  N1  UNL     1      21.284  24.862  26.755  1.00  0.00     0.100 N 
BRANCH  14  15
HETATM   15  C11 UNL     1      21.120  25.995  25.828  1.00  0.00     0.277 C 
BRANCH  15  16
HETATM   16  C12 UNL     1      22.384  26.503  25.295  1.00  0.00     0.057 C 
BRANCH  16  17
HETATM   17  C13 UNL     1      22.547  26.458  23.830  1.00  0.00    -0.027 C 
BRANCH  17  18
HETATM   18  C14 UNL     1      23.014  25.291  23.091  1.00  0.00    -0.001 C 
BRANCH  18  19
HETATM   19  C15 UNL     1      23.836  25.387  21.873  1.00  0.00     0.299 C 
BRANCH  19  20
HETATM   20  N2  UNL     1      23.537  24.152  21.093  1.00  0.00     0.091 N 
HETATM   21  C16 UNL     1      24.056  24.251  19.749  1.00  0.00     0.272 C 
HETATM   22  C17 UNL     1      23.279  23.333  18.859  1.00  0.00     0.030 C 
HETATM   23  C18 UNL     1      22.840  22.067  19.604  1.00  0.00     0.003 C 
HETATM   24  C19 UNL     1      21.849  22.527  20.654  1.00  0.00     0.030 C 
HETATM   25  C20 UNL     1      22.099  23.985  21.002  1.00  0.00     0.272 C 
ENDBRANCH  19  20
ENDBRANCH  18  19
ENDBRANCH  17  18
ENDBRANCH  16  17
ENDBRANCH  15  16
ENDBRANCH  14  15
ENDBRANCH   5   9
BRANCH   4  26
HETATM   26  O6  UNL     1      18.106  24.364  27.102  1.00  0.00    -0.390 OA
ATOM     27  H6  UNL     1      17.207  24.284  26.808  1.00  0.00     0.210 HD
ENDBRANCH   4  26
BRANCH   6  28
HETATM   28  O9  UNL     1      20.287  24.397  29.334  1.00  0.00    -0.390 OA
ATOM     29  H9  UNL     1      20.934  25.060  29.124  1.00  0.00     0.210 HD
ENDBRANCH   6  28
BRANCH   3  30
HETATM   30  O5  UNL     1      16.600  22.572  28.855  1.00  0.00    -0.390 OA
ATOM     31  H5  UNL     1      16.569  21.875  28.212  1.00  0.00     0.210 HD
ENDBRANCH   3  30
BRANCH   1  32
HETATM   32  O3  UNL     1      20.795  21.972  30.915  1.00  0.00    -0.285 OA
BRANCH  32  33
HETATM   33  C1  UNL     1      21.080  20.793  31.588  1.00  0.00     0.333 C 
HETATM   34  O1  UNL     1      22.275  20.675  32.030  1.00  0.00    -0.624 OA
HETATM   35  O2  UNL     1      20.135  19.781  31.784  1.00  0.00    -0.624 OA
ENDBRANCH  32  33
ENDBRANCH   1  32
BRANCH   2  36
HETATM   36  O4  UNL     1      18.165  20.669  29.578  1.00  0.00    -0.390 OA
ATOM     37  H4  UNL     1      17.318  20.713  29.151  1.00  0.00     0.210 HD
ENDBRANCH   2  36
TORSDOF 14
ENDMDL
MODEL 4
REMARK VINA RESULT: -7.614685685      3.497      5.106
REMARK  14 active torsions:
REMARK  status: ('A' for Active; 'I' for Inactive)
REMARK    1  A    between atoms: C1_2  and  O3_4 
REMARK    2  A    between atoms: O3_4  and  C2_5 
REMARK    3  A    between atoms: C3_6  and  O4_7 
REMARK    4  A    between atoms: C4_9  and  O5_10 
REMARK    5  A    between atoms: C5_12  and  O6_13 
REMARK    6  A    between atoms: C6_15  and  O7_16 
REMARK    7  A    between atoms: C6_15  and  C7_18 
REMARK    8  A    between atoms: N1_23  and  C11_24 
REMARK    9  A    between atoms: C11_24  and  C12_25 
REMARK   10  A    between atoms: C12_25  and  C13_26 
REMARK   11  A    between atoms: C13_26  and  C14_27 
REMARK   12  A    between atoms: C14_27  and  C15_28 
REMARK   13  A    between atoms: C15_28  and  N2_29 
REMARK   14  A    between atoms: C21_35  and  O9_36 
ROOT
HETATM    1  C2  UNL     1      19.853  24.648  27.408  1.00  0.00     0.198 C 
HETATM    2  C3  UNL     1      19.969  23.191  27.224  1.00  0.00     0.181 C 
HETATM    3  C4  UNL     1      21.183  22.799  26.469  1.00  0.00     0.181 C 
HETATM    4  C5  UNL     1      22.466  23.481  26.879  1.00  0.00     0.188 C 
HETATM    5  C6  UNL     1      22.242  24.939  27.211  1.00  0.00     0.147 C 
HETATM    6  C21 UNL     1      20.912  25.381  26.622  1.00  0.00     0.189 C 
ENDROOT
BRANCH   5   7
HETATM    7  O7  UNL     1      22.063  25.030  28.586  1.00  0.00    -0.382 OA
ATOM      8  H7  UNL     1      22.225  24.169  28.951  1.00  0.00     0.210 HD
ENDBRANCH   5   7
BRANCH   5   9
HETATM    9  C7  UNL     1      23.386  25.802  26.817  1.00  0.00     0.286 C 
HETATM   10  C8  UNL     1      23.793  26.695  28.001  1.00  0.00     0.206 C 
HETATM   11  O8  UNL     1      22.756  27.589  28.252  1.00  0.00    -0.387 OA
HETATM   12  C9  UNL     1      22.825  28.546  27.241  1.00  0.00     0.198 C 
HETATM   13  C10 UNL     1      22.681  27.942  25.875  1.00  0.00     0.299 C 
HETATM   14  N1  UNL     1      23.210  26.636  25.704  1.00  0.00     0.100 N 
BRANCH  14  15
HETATM   15  C11 UNL     1      24.428  26.774  24.888  1.00  0.00     0.277 C 
BRANCH  15  16
HETATM   16  C12 UNL     1      24.272  27.683  23.753  1.00  0.00     0.057 C 
BRANCH  16  17
HETATM   17  C13 UNL     1      23.658  27.119  22.537  1.00  0.00    -0.027 C 
BRANCH  17  18
HETATM   18  C14 UNL     1      23.780  25.725  22.125  1.00  0.00    -0.001 C 
BRANCH  18  19
HETATM   19  C15 UNL     1      22.709  24.733  22.317  1.00  0.00     0.299 C 
BRANCH  19  20
HETATM   20  N2  UNL     1      22.909  23.718  21.244  1.00  0.00     0.091 N 
HETATM   21  C16 UNL     1      23.401  24.335  20.034  1.00  0.00     0.272 C 
HETATM   22  C17 UNL     1      23.044  23.469  18.867  1.00  0.00     0.030 C 
HETATM   23  C18 UNL     1      23.074  21.982  19.241  1.00  0.00     0.003 C 
HETATM   24  C19 UNL     1      21.948  21.783  20.236  1.00  0.00     0.030 C 
HETATM   25  C20 UNL     1      21.636  23.094  20.937  1.00  0.00     0.272 C 
ENDBRANCH  19  20
ENDBRANCH  18  19
ENDBRANCH  17  18
ENDBRANCH  16  17
ENDBRANCH  15  16
ENDBRANCH  14  15
ENDBRANCH   5   9
BRANCH   4  26
HETATM   26  O6  UNL     1      23.284  23.403  25.717  1.00  0.00    -0.390 OA
ATOM     27  H6  UNL     1      23.800  22.617  25.850  1.00  0.00     0.210 HD
ENDBRANCH   4  26
BRANCH   6  28
HETATM   28  O9  UNL     1      20.810  25.253  25.269  1.00  0.00    -0.390 OA
ATOM     29  H9  UNL     1      21.529  25.633  24.778  1.00  0.00     0.210 HD
ENDBRANCH   6  28
BRANCH   3  30
HETATM   30  O5  UNL     1      21.387  21.418  26.725  1.00  0.00    -0.390 OA
ATOM     31  H5  UNL     1      21.191  20.963  25.916  1.00  0.00     0.210 HD
ENDBRANCH   3  30
BRANCH   1  32
HETATM   32  O3  UNL     1      18.559  25.163  27.156  1.00  0.00    -0.285 OA
BRANCH  32  33
HETATM   33  C1  UNL     1      17.553  25.181  28.110  1.00  0.00     0.333 C 
HETATM   34  O1  UNL     1      16.588  25.992  27.893  1.00  0.00    -0.624 OA
HETATM   35  O2  UNL     1      17.570  24.370  29.250  1.00  0.00    -0.624 OA
ENDBRANCH  32  33
ENDBRANCH   1  32
BRANCH   2  36
HETATM   36  O4  UNL     1      19.912  22.558  28.492  1.00  0.00    -0.390 OA
ATOM     37  H4  UNL     1      19.539  21.690  28.389  1.00  0.00     0.210 HD
ENDBRANCH   2  36
TORSDOF 14
ENDMDL
MODEL 5
REMARK VINA RESULT: -7.526737880      3.785      6.730
REMARK  14 active torsions:
REMARK  status: ('A' for Active; 'I' for Inactive)
REMARK    1  A    between atoms: C1_2  and  O3_4 
REMARK    2  A    between atoms: O3_4  and  C2_5 
REMARK    3  A    between atoms: C3_6  and  O4_7 
REMARK    4  A    between atoms: C4_9  and  O5_10 
REMARK    5  A    between atoms: C5_12  and  O6_13 
REMARK    6  A    between atoms: C6_15  and  O7_16 
REMARK    7  A    between atoms: C6_15  and  C7_18 
REMARK    8  A    between atoms: N1_23  and  C11_24 
REMARK    9  A    between atoms: C11_24  and  C12_25 
REMARK   10  A    between atoms: C12_25  and  C13_26 
REMARK   11  A    between atoms: C13_26  and  C14_27 
REMARK   12  A    between atoms: C14_27  and  C15_28 
REMARK   13  A    between atoms: C15_28  and  N2_29 
REMARK   14  A    between atoms: C21_35  and  O9_36 
ROOT
HETATM    1  C2  UNL     1      23.529  26.945  26.701  1.00  0.00     0.198 C 
HETATM    2  C3  UNL     1      22.822  28.201  26.398  1.00  0.00     0.181 C 
HETATM    3  C4  UNL     1      21.437  27.983  25.918  1.00  0.00     0.181 C 
HETATM    4  C5  UNL     1      20.619  26.978  26.692  1.00  0.00     0.188 C 
HETATM    5  C6  UNL     1      21.451  25.787  27.113  1.00  0.00     0.147 C 
HETATM    6  C21 UNL     1      22.717  25.747  26.273  1.00  0.00     0.189 C 
ENDROOT
BRANCH   5   7
HETATM    7  O7  UNL     1      21.896  26.027  28.407  1.00  0.00    -0.382 OA
ATOM      8  H7  UNL     1      22.818  25.799  28.438  1.00  0.00     0.210 HD
ENDBRANCH   5   7
BRANCH   5   9
HETATM    9  C7  UNL     1      20.684  24.514  27.098  1.00  0.00     0.286 C 
HETATM   10  C8  UNL     1      19.604  24.546  28.193  1.00  0.00     0.206 C 
HETATM   11  O8  UNL     1      20.238  24.553  29.433  1.00  0.00    -0.387 OA
HETATM   12  C9  UNL     1      20.696  23.251  29.634  1.00  0.00     0.198 C 
HETATM   13  C10 UNL     1      21.644  22.809  28.559  1.00  0.00     0.299 C 
HETATM   14  N1  UNL     1      21.407  23.325  27.258  1.00  0.00     0.100 N 
BRANCH  14  15
HETATM   15  C11 UNL     1      20.877  22.213  26.450  1.00  0.00     0.277 C 
BRANCH  15  16
HETATM   16  C12 UNL     1      21.896  21.528  25.655  1.00  0.00     0.057 C 
BRANCH  16  17
HETATM   17  C13 UNL     1      21.906  21.816  24.209  1.00  0.00    -0.027 C 
BRANCH  17  18
HETATM   18  C14 UNL     1      22.004  23.154  23.637  1.00  0.00    -0.001 C 
BRANCH  18  19
HETATM   19  C15 UNL     1      21.403  23.522  22.344  1.00  0.00     0.299 C 
BRANCH  19  20
HETATM   20  N2  UNL     1      22.541  23.593  21.383  1.00  0.00     0.091 N 
HETATM   21  C16 UNL     1      23.507  24.583  21.798  1.00  0.00     0.272 C 
HETATM   22  C17 UNL     1      24.278  25.042  20.601  1.00  0.00     0.030 C 
HETATM   23  C18 UNL     1      24.473  23.906  19.589  1.00  0.00     0.003 C 
HETATM   24  C19 UNL     1      23.090  23.578  19.064  1.00  0.00     0.030 C 
HETATM   25  C20 UNL     1      22.037  23.985  20.080  1.00  0.00     0.272 C 
ENDBRANCH  19  20
ENDBRANCH  18  19
ENDBRANCH  17  18
ENDBRANCH  16  17
ENDBRANCH  15  16
ENDBRANCH  14  15
ENDBRANCH   5   9
BRANCH   4  26
HETATM   26  O6  UNL     1      19.640  26.536  25.759  1.00  0.00    -0.390 OA
ATOM     27  H6  UNL     1      18.929  26.219  26.302  1.00  0.00     0.210 HD
ENDBRANCH   4  26
BRANCH   6  28
HETATM   28  O9  UNL     1      22.514  25.645  24.930  1.00  0.00    -0.390 OA
ATOM     29  H9  UNL     1      21.617  25.469  24.675  1.00  0.00     0.210 HD
ENDBRANCH   6  28
BRANCH   3  30
HETATM   30  O5  UNL     1      20.760  29.221  26.069  1.00  0.00    -0.390 OA
ATOM     31  H5  UNL     1      20.682  29.373  27.003  1.00  0.00     0.210 HD
ENDBRANCH   3  30
BRANCH   1  32
HETATM   32  O3  UNL     1      24.853  26.889  26.204  1.00  0.00    -0.285 OA
BRANCH  32  33
HETATM   33  C1  UNL     1      25.256  27.549  25.053  1.00  0.00     0.333 C 
HETATM   34  O1  UNL     1      26.109  28.489  25.215  1.00  0.00    -0.624 OA
HETATM   35  O2  UNL     1      24.775  27.225  23.780  1.00  0.00    -0.624 OA
ENDBRANCH  32  33
ENDBRANCH   1  32
BRANCH   2  36
HETATM   36  O4  UNL     1      22.856  29.040  27.541  1.00  0.00    -0.390 OA
ATOM     37  H4  UNL     1      22.351  29.826  27.365  1.00  0.00     0.210 HD
ENDBRANCH   2  36
TORSDOF 14
ENDMDL
