MODEL 1
REMARK VINA RESULT: -7.996048694      0.000      0.000
REMARK  12 active torsions:
REMARK  status: ('A' for Active; 'I' for Inactive)
REMARK    1  A    between atoms: O1_2  and  C2_3 
REMARK    2  A    between atoms: C2_3  and  C3_5 
REMARK    3  A    between atoms: C6_8  and  O3_9 
REMARK    4  A    between atoms: C7_11  and  N1_12 
REMARK    5  A    between atoms: N1_12  and  C8_13 
REMARK    6  A    between atoms: C9_15  and  O5_16 
REMARK    7  A    between atoms: O5_16  and  C10_17 
REMARK    8  A    between atoms: C12_19  and  N2_20 
REMARK    9  A    between atoms: C13_24  and  O6_25 
REMARK   10  A    between atoms: O6_25  and  C14_26 
REMARK   11  A    between atoms: C19_31  and  N3_32 
REMARK   12  A    between atoms: C21_37  and  N4_38 
ROOT
HETATM    1  C10 UNL     1      22.100  29.153  25.155  1.00  0.00     0.154 C 
HETATM    2  C11 UNL     1      23.587  28.975  24.971  1.00  0.00     0.069 C 
HETATM    3  C12 UNL     1      23.926  27.997  23.883  1.00  0.00     0.216 C 
HETATM    4  C13 UNL     1      23.286  26.679  23.978  1.00  0.00     0.182 C 
HETATM    5  C19 UNL     1      23.098  26.197  25.398  1.00  0.00     0.216 C 
HETATM    6  C20 UNL     1      21.807  26.700  25.898  1.00  0.00     0.070 C 
HETATM    7  C21 UNL     1      21.491  28.119  26.013  1.00  0.00     0.214 C 
ENDROOT
BRANCH   1   8
HETATM    8  O5  UNL     1      21.757  30.395  25.666  1.00  0.00    -0.375 OA
BRANCH   8   9
HETATM    9  C9  UNL     1      21.326  31.376  24.856  1.00  0.00     0.161 C 
HETATM   10  C7  UNL     1      19.851  31.796  25.071  1.00  0.00     0.223 C 
HETATM   11  C6  UNL     1      19.054  31.343  23.810  1.00  0.00     0.157 C 
HETATM   12  C5  UNL     1      19.496  32.295  22.721  1.00  0.00     0.054 C 
HETATM   13  C3  UNL     1      20.927  32.045  22.443  1.00  0.00     0.049 C 
HETATM   14  C4  UNL     1      21.669  33.358  22.510  1.00  0.00     0.026 C 
HETATM   15  C22 UNL     1      21.588  31.108  23.414  1.00  0.00     0.054 C 
BRANCH  10  16
HETATM   16  N1  UNL     1      19.291  31.341  26.200  1.00  0.00    -0.412 NA
BRANCH  16  17
HETATM   17  C8  UNL     1      18.718  30.876  27.355  1.00  0.00     0.435 C 
HETATM   18  O4  UNL     1      18.937  29.859  28.058  1.00  0.00    -0.269 OA
ENDBRANCH  16  17
ENDBRANCH  10  16
BRANCH  11  19
HETATM   19  O3  UNL     1      17.731  31.599  24.067  1.00  0.00    -0.392 OA
ATOM     20  H3  UNL     1      17.480  31.073  24.818  1.00  0.00     0.210 HD
ENDBRANCH  11  19
BRANCH  13  21
HETATM   21  C2  UNL     1      21.070  31.538  21.038  1.00  0.00     0.267 C 
HETATM   22  O2  UNL     1      22.067  30.901  20.626  1.00  0.00    -0.264 OA
BRANCH  21  23
HETATM   23  O1  UNL     1      20.057  31.768  20.102  1.00  0.00    -0.326 OA
HETATM   24  C1  UNL     1      19.366  30.731  19.433  1.00  0.00     0.213 C 
ENDBRANCH  21  23
ENDBRANCH  13  21
ENDBRANCH   8   9
ENDBRANCH   1   8
BRANCH   7  25
HETATM   25  N4  UNL     1      20.021  28.184  25.713  1.00  0.00    -0.072 N 
ATOM     26  H43 UNL     1      19.746  29.002  25.168  1.00  0.00     0.274 HD
ATOM     27  H42 UNL     1      19.704  27.485  25.040  1.00  0.00     0.274 HD
ATOM     28  H41 UNL     1      19.564  28.120  26.622  1.00  0.00     0.274 HD
ENDBRANCH   7  25
BRANCH   3  29
HETATM   29  N2  UNL     1      25.380  27.825  23.918  1.00  0.00    -0.072 N 
ATOM     30  H23 UNL     1      25.774  27.913  24.854  1.00  0.00     0.274 HD
ATOM     31  H22 UNL     1      25.677  26.865  23.745  1.00  0.00     0.274 HD
ATOM     32  H21 UNL     1      25.766  28.494  23.252  1.00  0.00     0.274 HD
ENDBRANCH   3  29
BRANCH   4  33
HETATM   33  O6  UNL     1      23.955  25.825  23.144  1.00  0.00    -0.376 OA
BRANCH  33  34
HETATM   34  C14 UNL     1      23.339  25.505  21.980  1.00  0.00     0.122 C 
HETATM   35  C15 UNL     1      22.432  24.327  22.226  1.00  0.00     0.032 C 
HETATM   36  C16 UNL     1      22.144  23.765  20.888  1.00  0.00     0.002 C 
HETATM   37  C17 UNL     1      23.257  24.191  19.995  1.00  0.00     0.002 C 
HETATM   38  C18 UNL     1      24.257  24.927  20.900  1.00  0.00     0.032 C 
ENDBRANCH  33  34
ENDBRANCH   4  33
BRANCH   5  39
HETATM   39  N3  UNL     1      24.231  26.316  26.244  1.00  0.00    -0.072 N 
ATOM     40  H33 UNL     1      24.379  25.444  26.751  1.00  0.00     0.274 HD
ATOM     41  H32 UNL     1      25.082  26.347  25.682  1.00  0.00     0.274 HD
ATOM     42  H31 UNL     1      24.216  27.099  26.897  1.00  0.00     0.274 HD
ENDBRANCH   5  39
TORSDOF 12
ENDMDL
MODEL 2
REMARK VINA RESULT: -7.385919047      1.219      1.296
REMARK  12 active torsions:
REMARK  status: ('A' for Active; 'I' for Inactive)
REMARK    1  A    between atoms: O1_2  and  C2_3 
REMARK    2  A    between atoms: C2_3  and  C3_5 
REMARK    3  A    between atoms: C6_8  and  O3_9 
REMARK    4  A    between atoms: C7_11  and  N1_12 
REMARK    5  A    between atoms: N1_12  and  C8_13 
REMARK    6  A    between atoms: C9_15  and  O5_16 
REMARK    7  A    between atoms: O5_16  and  C10_17 
REMARK    8  A    between atoms: C12_19  and  N2_20 
REMARK    9  A    between atoms: C13_24  and  O6_25 
REMARK   10  A    between atoms: O6_25  and  C14_26 
REMARK   11  A    between atoms: C19_31  and  N3_32 
REMARK   12  A    between atoms: C21_37  and  N4_38 
ROOT
HETATM    1  C10 UNL     1      21.394  28.129  25.660  1.00  0.00     0.154 C 
HETATM    2  C11 UNL     1      22.894  27.965  25.683  1.00  0.00     0.069 C 
HETATM    3  C12 UNL     1      23.423  27.279  24.456  1.00  0.00     0.216 C 
HETATM    4  C13 UNL     1      22.798  25.994  24.116  1.00  0.00     0.182 C 
HETATM    5  C19 UNL     1      22.388  25.181  25.322  1.00  0.00     0.216 C 
HETATM    6  C20 UNL     1      21.024  25.577  25.714  1.00  0.00     0.070 C 
HETATM    7  C21 UNL     1      20.670  26.930  26.125  1.00  0.00     0.214 C 
ENDROOT
BRANCH   1   8
HETATM    8  O5  UNL     1      20.952  29.215  26.402  1.00  0.00    -0.375 OA
BRANCH   8   9
HETATM    9  C9  UNL     1      20.564  30.348  25.794  1.00  0.00     0.161 C 
HETATM   10  C7  UNL     1      19.058  30.680  25.936  1.00  0.00     0.223 C 
HETATM   11  C6  UNL     1      18.414  30.516  24.527  1.00  0.00     0.157 C 
HETATM   12  C5  UNL     1      18.924  31.701  23.738  1.00  0.00     0.054 C 
HETATM   13  C3  UNL     1      20.384  31.549  23.568  1.00  0.00     0.049 C 
HETATM   14  C4  UNL     1      21.059  32.825  24.013  1.00  0.00     0.026 C 
HETATM   15  C22 UNL     1      20.983  30.425  24.366  1.00  0.00     0.054 C 
BRANCH  10  16
HETATM   16  N1  UNL     1      18.406  29.966  26.865  1.00  0.00    -0.412 NA
BRANCH  16  17
HETATM   17  C8  UNL     1      17.739  29.236  27.814  1.00  0.00     0.435 C 
HETATM   18  O4  UNL     1      17.539  28.003  27.947  1.00  0.00    -0.269 OA
ENDBRANCH  16  17
ENDBRANCH  10  16
BRANCH  11  19
HETATM   19  O3  UNL     1      17.062  30.681  24.689  1.00  0.00    -0.392 OA
ATOM     20  H3  UNL     1      16.641  29.875  24.414  1.00  0.00     0.210 HD
ENDBRANCH  11  19
BRANCH  13  21
HETATM   21  C2  UNL     1      20.692  31.383  22.109  1.00  0.00     0.267 C 
HETATM   22  O2  UNL     1      21.854  31.320  21.644  1.00  0.00    -0.264 OA
BRANCH  21  23
HETATM   23  O1  UNL     1      19.651  31.290  21.178  1.00  0.00    -0.326 OA
HETATM   24  C1  UNL     1      19.845  30.903  19.831  1.00  0.00     0.213 C 
ENDBRANCH  21  23
ENDBRANCH  13  21
ENDBRANCH   8   9
ENDBRANCH   1   8
BRANCH   7  25
HETATM   25  N4  UNL     1      19.268  27.105  25.615  1.00  0.00    -0.072 N 
ATOM     26  H43 UNL     1      18.684  26.276  25.719  1.00  0.00     0.274 HD
ATOM     27  H42 UNL     1      18.694  27.724  26.187  1.00  0.00     0.274 HD
ATOM     28  H41 UNL     1      19.377  27.415  24.650  1.00  0.00     0.274 HD
ENDBRANCH   7  25
BRANCH   3  29
HETATM   29  N2  UNL     1      24.854  27.067  24.684  1.00  0.00    -0.072 N 
ATOM     30  H23 UNL     1      25.058  26.215  25.207  1.00  0.00     0.274 HD
ATOM     31  H22 UNL     1      25.366  26.822  23.837  1.00  0.00     0.274 HD
ATOM     32  H21 UNL     1      25.203  27.912  25.136  1.00  0.00     0.274 HD
ENDBRANCH   3  29
BRANCH   4  33
HETATM   33  O6  UNL     1      23.609  25.357  23.217  1.00  0.00    -0.376 OA
BRANCH  33  34
HETATM   34  C14 UNL     1      23.125  25.211  21.960  1.00  0.00     0.122 C 
HETATM   35  C15 UNL     1      22.261  23.976  21.919  1.00  0.00     0.032 C 
HETATM   36  C16 UNL     1      22.132  23.633  20.485  1.00  0.00     0.002 C 
HETATM   37  C17 UNL     1      23.303  24.239  19.792  1.00  0.00     0.002 C 
HETATM   38  C18 UNL     1      24.172  24.852  20.902  1.00  0.00     0.032 C 
ENDBRANCH  33  34
ENDBRANCH   4  33
BRANCH   5  39
HETATM   39  N3  UNL     1      23.365  25.059  26.344  1.00  0.00    -0.072 N 
ATOM     40  H33 UNL     1      24.242  24.721  25.948  1.00  0.00     0.274 HD
ATOM     41  H32 UNL     1      23.653  25.985  26.662  1.00  0.00     0.274 HD
ATOM     42  H31 UNL     1      23.100  24.483  27.143  1.00  0.00     0.274 HD
ENDBRANCH   5  39
TORSDOF 12
ENDMDL
MODEL 3
REMARK VINA RESULT: -7.006670036      4.627      8.183
REMARK  12 active torsions:
REMARK  status: ('A' for Active; 'I' for Inactive)
REMARK    1  A    between atoms: O1_2  and  C2_3 
REMARK    2  A    between atoms: C2_3  and  C3_5 
REMARK    3  A    between atoms: C6_8  and  O3_9 
REMARK    4  A    between atoms: C7_11  and  N1_12 
REMARK    5  A    between atoms: N1_12  and  C8_13 
REMARK    6  A    between atoms: C9_15  and  O5_16 
REMARK    7  A    between atoms: O5_16  and  C10_17 
REMARK    8  A    between atoms: C12_19  and  N2_20 
REMARK    9  A    between atoms: C13_24  and  O6_25 
REMARK   10  A    between atoms: O6_25  and  C14_26 
REMARK   11  A    between atoms: C19_31  and  N3_32 
REMARK   12  A    between atoms: C21_37  and  N4_38 
ROOT
HETATM    1  C10 UNL     1      21.407  23.633  26.037  1.00  0.00     0.154 C 
HETATM    2  C11 UNL     1      20.521  24.673  26.677  1.00  0.00     0.069 C 
HETATM    3  C12 UNL     1      20.646  24.702  28.173  1.00  0.00     0.216 C 
HETATM    4  C13 UNL     1      20.465  23.417  28.861  1.00  0.00     0.182 C 
HETATM    5  C19 UNL     1      19.446  22.515  28.204  1.00  0.00     0.216 C 
HETATM    6  C20 UNL     1      20.127  21.706  27.177  1.00  0.00     0.070 C 
HETATM    7  C21 UNL     1      20.810  22.284  26.027  1.00  0.00     0.214 C 
ENDROOT
BRANCH   1   8
HETATM    8  O5  UNL     1      21.773  23.953  24.737  1.00  0.00    -0.375 OA
BRANCH   8   9
HETATM    9  C9  UNL     1      21.998  25.228  24.382  1.00  0.00     0.161 C 
HETATM   10  C7  UNL     1      22.318  25.439  22.882  1.00  0.00     0.223 C 
HETATM   11  C6  UNL     1      23.812  25.870  22.785  1.00  0.00     0.157 C 
HETATM   12  C5  UNL     1      23.831  27.287  23.312  1.00  0.00     0.054 C 
HETATM   13  C3  UNL     1      23.483  27.250  24.748  1.00  0.00     0.049 C 
HETATM   14  C4  UNL     1      22.366  28.234  25.000  1.00  0.00     0.026 C 
HETATM   15  C22 UNL     1      23.015  25.907  25.234  1.00  0.00     0.054 C 
BRANCH  10  16
HETATM   16  N1  UNL     1      22.054  24.387  22.093  1.00  0.00    -0.412 NA
BRANCH  16  17
HETATM   17  C8  UNL     1      21.783  23.312  21.288  1.00  0.00     0.435 C 
HETATM   18  O4  UNL     1      20.714  22.870  20.797  1.00  0.00    -0.269 OA
ENDBRANCH  16  17
ENDBRANCH  10  16
BRANCH  11  19
HETATM   19  O3  UNL     1      24.121  25.924  21.449  1.00  0.00    -0.392 OA
ATOM     20  H3  UNL     1      24.798  25.276  21.287  1.00  0.00     0.210 HD
ENDBRANCH  11  19
BRANCH  13  21
HETATM   21  C2  UNL     1      24.661  27.720  25.549  1.00  0.00     0.267 C 
HETATM   22  O2  UNL     1      25.831  27.774  25.102  1.00  0.00    -0.264 OA
BRANCH  21  23
HETATM   23  O1  UNL     1      24.491  28.131  26.876  1.00  0.00    -0.326 OA
HETATM   24  C1  UNL     1      24.529  27.242  27.976  1.00  0.00     0.213 C 
ENDBRANCH  21  23
ENDBRANCH  13  21
ENDBRANCH   8   9
ENDBRANCH   1   8
BRANCH   7  25
HETATM   25  N4  UNL     1      21.964  21.353  25.790  1.00  0.00    -0.072 N 
ATOM     26  H43 UNL     1      22.828  21.641  26.249  1.00  0.00     0.274 HD
ATOM     27  H42 UNL     1      21.875  20.454  26.265  1.00  0.00     0.274 HD
ATOM     28  H41 UNL     1      22.038  21.279  24.776  1.00  0.00     0.274 HD
ENDBRANCH   7  25
BRANCH   3  29
HETATM   29  N2  UNL     1      19.637  25.647  28.656  1.00  0.00    -0.072 N 
ATOM     30  H23 UNL     1      19.211  25.367  29.540  1.00  0.00     0.274 HD
ATOM     31  H22 UNL     1      20.032  26.530  28.979  1.00  0.00     0.274 HD
ATOM     32  H21 UNL     1      18.961  25.760  27.900  1.00  0.00     0.274 HD
ENDBRANCH   3  29
BRANCH   4  33
HETATM   33  O6  UNL     1      20.262  23.676  30.189  1.00  0.00    -0.376 OA
BRANCH  33  34
HETATM   34  C14 UNL     1      19.563  22.750  30.890  1.00  0.00     0.122 C 
HETATM   35  C15 UNL     1      18.867  23.440  32.035  1.00  0.00     0.032 C 
HETATM   36  C16 UNL     1      18.503  22.362  32.981  1.00  0.00     0.002 C 
HETATM   37  C17 UNL     1      19.431  21.227  32.716  1.00  0.00     0.002 C 
HETATM   38  C18 UNL     1      20.418  21.736  31.654  1.00  0.00     0.032 C 
ENDBRANCH  33  34
ENDBRANCH   4  33
BRANCH   5  39
HETATM   39  N3  UNL     1      18.213  23.128  27.859  1.00  0.00    -0.072 N 
ATOM     40  H33 UNL     1      17.616  22.458  27.375  1.00  0.00     0.274 HD
ATOM     41  H32 UNL     1      17.659  23.291  28.700  1.00  0.00     0.274 HD
ATOM     42  H31 UNL     1      18.283  23.988  27.316  1.00  0.00     0.274 HD
ENDBRANCH   5  39
TORSDOF 12
ENDMDL
MODEL 4
REMARK VINA RESULT: -6.870889556      4.679      9.166
REMARK  12 active torsions:
REMARK  status: ('A' for Active; 'I' for Inactive)
REMARK    1  A    between atoms: O1_2  and  C2_3 
REMARK    2  A    between atoms: C2_3  and  C3_5 
REMARK    3  A    between atoms: C6_8  and  O3_9 
REMARK    4  A    between atoms: C7_11  and  N1_12 
REMARK    5  A    between atoms: N1_12  and  C8_13 
REMARK    6  A    between atoms: C9_15  and  O5_16 
REMARK    7  A    between atoms: O5_16  and  C10_17 
REMARK    8  A    between atoms: C12_19  and  N2_20 
REMARK    9  A    between atoms: C13_24  and  O6_25 
REMARK   10  A    between atoms: O6_25  and  C14_26 
REMARK   11  A    between atoms: C19_31  and  N3_32 
REMARK   12  A    between atoms: C21_37  and  N4_38 
ROOT
HETATM    1  C10 UNL     1      21.765  24.160  25.341  1.00  0.00     0.154 C 
HETATM    2  C11 UNL     1      22.748  24.775  26.306  1.00  0.00     0.069 C 
HETATM    3  C12 UNL     1      22.438  26.211  26.616  1.00  0.00     0.216 C 
HETATM    4  C13 UNL     1      22.270  27.100  25.459  1.00  0.00     0.182 C 
HETATM    5  C19 UNL     1      23.168  26.754  24.294  1.00  0.00     0.216 C 
HETATM    6  C20 UNL     1      22.481  25.761  23.450  1.00  0.00     0.070 C 
HETATM    7  C21 UNL     1      22.081  24.443  23.928  1.00  0.00     0.214 C 
ENDROOT
BRANCH   1   8
HETATM    8  O5  UNL     1      21.641  22.786  25.488  1.00  0.00    -0.375 OA
BRANCH   8   9
HETATM    9  C9  UNL     1      21.600  22.228  26.710  1.00  0.00     0.161 C 
HETATM   10  C7  UNL     1      21.323  20.705  26.719  1.00  0.00     0.223 C 
HETATM   11  C6  UNL     1      19.904  20.499  27.332  1.00  0.00     0.157 C 
HETATM   12  C5  UNL     1      20.082  20.795  28.804  1.00  0.00     0.054 C 
HETATM   13  C3  UNL     1      20.412  22.229  28.949  1.00  0.00     0.049 C 
HETATM   14  C4  UNL     1      21.656  22.354  29.797  1.00  0.00     0.026 C 
HETATM   15  C22 UNL     1      20.684  22.933  27.650  1.00  0.00     0.054 C 
BRANCH  10  16
HETATM   16  N1  UNL     1      21.441  20.099  25.529  1.00  0.00    -0.412 NA
BRANCH  16  17
HETATM   17  C8  UNL     1      21.560  19.481  24.312  1.00  0.00     0.435 C 
HETATM   18  O4  UNL     1      20.716  19.166  23.437  1.00  0.00    -0.269 OA
ENDBRANCH  16  17
ENDBRANCH  10  16
BRANCH  11  19
HETATM   19  O3  UNL     1      19.614  19.163  27.214  1.00  0.00    -0.392 OA
ATOM     20  H3  UNL     1      19.351  19.007  26.313  1.00  0.00     0.210 HD
ENDBRANCH  11  19
BRANCH  13  21
HETATM   21  C2  UNL     1      19.307  22.912  29.699  1.00  0.00     0.267 C 
HETATM   22  O2  UNL     1      18.094  22.808  29.400  1.00  0.00    -0.264 OA
BRANCH  21  23
HETATM   23  O1  UNL     1      19.601  23.721  30.802  1.00  0.00    -0.326 OA
HETATM   24  C1  UNL     1      19.044  23.518  32.086  1.00  0.00     0.213 C 
ENDBRANCH  21  23
ENDBRANCH  13  21
ENDBRANCH   8   9
ENDBRANCH   1   8
BRANCH   7  25
HETATM   25  N4  UNL     1      20.806  24.164  23.184  1.00  0.00    -0.072 N 
ATOM     26  H43 UNL     1      19.971  24.191  23.769  1.00  0.00     0.274 HD
ATOM     27  H42 UNL     1      20.526  24.910  22.547  1.00  0.00     0.274 HD
ATOM     28  H41 UNL     1      20.961  23.266  22.726  1.00  0.00     0.274 HD
ENDBRANCH   7  25
BRANCH   3  29
HETATM   29  N2  UNL     1      23.542  26.706  27.441  1.00  0.00    -0.072 N 
ATOM     30  H23 UNL     1      23.343  26.676  28.441  1.00  0.00     0.274 HD
ATOM     31  H22 UNL     1      24.348  26.082  27.453  1.00  0.00     0.274 HD
ATOM     32  H21 UNL     1      23.761  27.642  27.100  1.00  0.00     0.274 HD
ENDBRANCH   3  29
BRANCH   4  33
HETATM   33  O6  UNL     1      22.346  28.391  25.905  1.00  0.00    -0.376 OA
BRANCH  33  34
HETATM   34  C14 UNL     1      21.665  29.321  25.194  1.00  0.00     0.122 C 
HETATM   35  C15 UNL     1      22.624  30.002  24.252  1.00  0.00     0.032 C 
HETATM   36  C16 UNL     1      21.952  31.255  23.843  1.00  0.00     0.002 C 
HETATM   37  C17 UNL     1      20.964  31.580  24.909  1.00  0.00     0.002 C 
HETATM   38  C18 UNL     1      21.173  30.523  26.005  1.00  0.00     0.032 C 
ENDBRANCH  33  34
ENDBRANCH   4  33
BRANCH   5  39
HETATM   39  N3  UNL     1      24.532  26.525  24.614  1.00  0.00    -0.072 N 
ATOM     40  H33 UNL     1      25.057  27.396  24.541  1.00  0.00     0.274 HD
ATOM     41  H32 UNL     1      24.628  26.337  25.612  1.00  0.00     0.274 HD
ATOM     42  H31 UNL     1      24.996  25.794  24.076  1.00  0.00     0.274 HD
ENDBRANCH   5  39
TORSDOF 12
ENDMDL
MODEL 5
REMARK VINA RESULT: -6.840106386      3.739      5.476
REMARK  12 active torsions:
REMARK  status: ('A' for Active; 'I' for Inactive)
REMARK    1  A    between atoms: O1_2  and  C2_3 
REMARK    2  A    between atoms: C2_3  and  C3_5 
REMARK    3  A    between atoms: C6_8  and  O3_9 
REMARK    4  A    between atoms: C7_11  and  N1_12 
REMARK    5  A    between atoms: N1_12  and  C8_13 
REMARK    6  A    between atoms: C9_15  and  O5_16 
REMARK    7  A    between atoms: O5_16  and  C10_17 
REMARK    8  A    between atoms: C12_19  and  N2_20 
REMARK    9  A    between atoms: C13_24  and  O6_25 
REMARK   10  A    between atoms: O6_25  and  C14_26 
REMARK   11  A    between atoms: C19_31  and  N3_32 
REMARK   12  A    between atoms: C21_37  and  N4_38 
ROOT
HETATM    1  C10 UNL     1      20.335  25.905  27.352  1.00  0.00     0.154 C 
HETATM    2  C11 UNL     1      21.315  25.210  28.264  1.00  0.00     0.069 C 
HETATM    3  C12 UNL     1      21.505  23.761  27.919  1.00  0.00     0.216 C 
HETATM    4  C13 UNL     1      20.281  22.957  27.816  1.00  0.00     0.182 C 
HETATM    5  C19 UNL     1      19.201  23.368  28.790  1.00  0.00     0.216 C 
HETATM    6  C20 UNL     1      18.386  24.427  28.169  1.00  0.00     0.070 C 
HETATM    7  C21 UNL     1      18.928  25.714  27.753  1.00  0.00     0.214 C 
ENDROOT
BRANCH   1   8
HETATM    8  O5  UNL     1      20.569  27.267  27.234  1.00  0.00    -0.375 OA
BRANCH   8   9
HETATM    9  C9  UNL     1      21.728  27.723  26.730  1.00  0.00     0.161 C 
HETATM   10  C7  UNL     1      21.866  29.265  26.710  1.00  0.00     0.223 C 
HETATM   11  C6  UNL     1      21.837  29.711  25.217  1.00  0.00     0.157 C 
HETATM   12  C5  UNL     1      23.173  29.269  24.664  1.00  0.00     0.054 C 
HETATM   13  C3  UNL     1      23.210  27.791  24.674  1.00  0.00     0.049 C 
HETATM   14  C4  UNL     1      24.475  27.344  25.367  1.00  0.00     0.026 C 
HETATM   15  C22 UNL     1      22.057  27.151  25.394  1.00  0.00     0.054 C 
BRANCH  10  16
HETATM   16  N1  UNL     1      20.957  29.925  27.442  1.00  0.00    -0.412 NA
BRANCH  16  17
HETATM   17  C8  UNL     1      20.029  30.601  28.189  1.00  0.00     0.435 C 
HETATM   18  O4  UNL     1      20.064  31.706  28.786  1.00  0.00    -0.269 OA
ENDBRANCH  16  17
ENDBRANCH  10  16
BRANCH  11  19
HETATM   19  O3  UNL     1      21.826  31.083  25.216  1.00  0.00    -0.392 OA
ATOM     20  H3  UNL     1      21.273  31.362  24.494  1.00  0.00     0.210 HD
ENDBRANCH  11  19
BRANCH  13  21
HETATM   21  C2  UNL     1      23.292  27.294  23.261  1.00  0.00     0.267 C 
HETATM   22  O2  UNL     1      23.271  28.044  22.257  1.00  0.00    -0.264 OA
BRANCH  21  23
HETATM   23  O1  UNL     1      23.399  25.923  23.003  1.00  0.00    -0.326 OA
HETATM   24  C1  UNL     1      23.914  25.397  21.796  1.00  0.00     0.213 C 
ENDBRANCH  21  23
ENDBRANCH  13  21
ENDBRANCH   8   9
ENDBRANCH   1   8
BRANCH   7  25
HETATM   25  N4  UNL     1      18.128  26.063  26.532  1.00  0.00    -0.072 N 
ATOM     26  H43 UNL     1      18.030  25.295  25.868  1.00  0.00     0.274 HD
ATOM     27  H42 UNL     1      17.131  26.188  26.712  1.00  0.00     0.274 HD
ATOM     28  H41 UNL     1      18.585  26.888  26.145  1.00  0.00     0.274 HD
ENDBRANCH   7  25
BRANCH   3  29
HETATM   29  N2  UNL     1      22.362  23.195  28.964  1.00  0.00    -0.072 N 
ATOM     30  H23 UNL     1      22.937  23.892  29.437  1.00  0.00     0.274 HD
ATOM     31  H22 UNL     1      21.844  22.879  29.784  1.00  0.00     0.274 HD
ATOM     32  H21 UNL     1      22.906  22.455  28.521  1.00  0.00     0.274 HD
ENDBRANCH   3  29
BRANCH   4  33
HETATM   33  O6  UNL     1      20.641  21.637  27.849  1.00  0.00    -0.376 OA
BRANCH  33  34
HETATM   34  C14 UNL     1      20.541  20.950  26.686  1.00  0.00     0.122 C 
HETATM   35  C15 UNL     1      20.655  19.477  26.988  1.00  0.00     0.032 C 
HETATM   36  C16 UNL     1      20.975  18.834  25.694  1.00  0.00     0.002 C 
HETATM   37  C17 UNL     1      21.592  19.882  24.835  1.00  0.00     0.002 C 
HETATM   38  C18 UNL     1      21.718  21.129  25.726  1.00  0.00     0.032 C 
ENDBRANCH  33  34
ENDBRANCH   4  33
BRANCH   5  39
HETATM   39  N3  UNL     1      19.621  23.553  30.133  1.00  0.00    -0.072 N 
ATOM     40  H33 UNL     1      20.640  23.550  30.183  1.00  0.00     0.274 HD
ATOM     41  H32 UNL     1      19.428  24.511  30.428  1.00  0.00     0.274 HD
ATOM     42  H31 UNL     1      19.238  22.896  30.812  1.00  0.00     0.274 HD
ENDBRANCH   5  39
TORSDOF 12
ENDMDL
