MODEL 1
REMARK VINA RESULT: -6.843947048      0.000      0.000
REMARK  4 active torsions:
REMARK  status: ('A' for Active; 'I' for Inactive)
REMARK    1  A    between atoms: S1_2  and  C2_3 
REMARK    2  A    between atoms: C5_6  and  O1_7 
REMARK    3  A    between atoms: O1_7  and  O2_8 
REMARK    4  A    between atoms: C9_13  and  O3_14 
ROOT
HETATM    1  C2  UNL     1      25.740  26.981  41.779  1.00  0.00     0.074 C 
HETATM    2  C3  UNL     1      25.043  26.907  43.073  1.00  0.00    -0.013 C 
HETATM    3  C4  UNL     1      25.128  25.758  43.718  1.00  0.00     0.006 C 
HETATM    4  C5  UNL     1      25.869  24.597  43.197  1.00  0.00     0.191 C 
HETATM    5  C6  UNL     1      26.113  24.602  41.727  1.00  0.00    -0.003 C 
HETATM    6  C7  UNL     1      27.649  24.606  41.568  1.00  0.00     0.019 C 
HETATM    7  C8  UNL     1      25.722  23.249  41.180  1.00  0.00     0.051 C 
HETATM    8  C9  UNL     1      24.268  23.118  40.892  1.00  0.00     0.066 C 
HETATM    9  C10 UNL     1      24.059  21.843  40.102  1.00  0.00     0.016 C 
HETATM   10  C11 UNL     1      25.190  20.878  40.215  1.00  0.00     0.013 C 
HETATM   11  C12 UNL     1      23.916  22.242  38.655  1.00  0.00     0.008 C 
HETATM   12  C13 UNL     1      24.412  23.673  38.633  1.00  0.00     0.009 C 
HETATM   13  C14 UNL     1      23.852  24.168  39.960  1.00  0.00     0.028 C 
HETATM   14  C15 UNL     1      24.252  25.578  40.277  1.00  0.00    -0.035 C 
HETATM   15  C16 UNL     1      24.233  26.228  38.874  1.00  0.00     0.016 C 
HETATM   16  C17 UNL     1      23.056  26.202  40.983  1.00  0.00     0.016 C 
HETATM   17  C18 UNL     1      25.555  25.746  40.940  1.00  0.00     0.022 C 
ENDROOT
BRANCH   4  18
HETATM   18  O1  UNL     1      27.042  24.500  43.964  1.00  0.00    -0.233 OA
BRANCH  18  19
HETATM   19  O2  UNL     1      26.870  24.648  45.233  1.00  0.00    -0.250 OA
ATOM     20  H2  UNL     1      26.844  25.551  45.528  1.00  0.00     0.253 HD
ENDBRANCH  18  19
ENDBRANCH   4  18
BRANCH   1  21
HETATM   21  S1  UNL     1      25.544  28.527  40.918  1.00  0.00    -0.164 SA
HETATM   22  C1  UNL     1      24.365  29.568  41.795  1.00  0.00     0.090 C 
ENDBRANCH   1  21
BRANCH   8  23
HETATM   23  O3  UNL     1      23.446  23.080  41.986  1.00  0.00    -0.389 OA
ATOM     24  H3  UNL     1      22.750  23.726  42.001  1.00  0.00     0.210 HD
ENDBRANCH   8  23
TORSDOF 4
ENDMDL
MODEL 2
REMARK VINA RESULT: -4.403546941     10.561     12.859
REMARK  4 active torsions:
REMARK  status: ('A' for Active; 'I' for Inactive)
REMARK    1  A    between atoms: S1_2  and  C2_3 
REMARK    2  A    between atoms: C5_6  and  O1_7 
REMARK    3  A    between atoms: O1_7  and  O2_8 
REMARK    4  A    between atoms: C9_13  and  O3_14 
ROOT
HETATM    1  C2  UNL     1      34.834  17.362  39.372  1.00  0.00     0.074 C 
HETATM    2  C3  UNL     1      33.458  17.458  38.861  1.00  0.00    -0.013 C 
HETATM    3  C4  UNL     1      32.559  17.953  39.693  1.00  0.00     0.006 C 
HETATM    4  C5  UNL     1      32.885  18.391  41.061  1.00  0.00     0.191 C 
HETATM    5  C6  UNL     1      34.138  17.823  41.631  1.00  0.00    -0.003 C 
HETATM    6  C7  UNL     1      35.045  19.040  41.915  1.00  0.00     0.019 C 
HETATM    7  C8  UNL     1      33.831  17.302  43.016  1.00  0.00     0.051 C 
HETATM    8  C9  UNL     1      33.260  15.928  43.025  1.00  0.00     0.066 C 
HETATM    9  C10 UNL     1      33.262  15.427  44.454  1.00  0.00     0.016 C 
HETATM   10  C11 UNL     1      33.377  16.515  45.468  1.00  0.00     0.013 C 
HETATM   11  C12 UNL     1      34.455  14.515  44.597  1.00  0.00     0.008 C 
HETATM   12  C13 UNL     1      35.281  14.820  43.365  1.00  0.00     0.009 C 
HETATM   13  C14 UNL     1      34.171  15.009  42.340  1.00  0.00     0.028 C 
HETATM   14  C15 UNL     1      34.681  15.412  40.989  1.00  0.00    -0.035 C 
HETATM   15  C16 UNL     1      36.000  14.611  40.904  1.00  0.00     0.016 C 
HETATM   16  C17 UNL     1      33.773  14.725  39.979  1.00  0.00     0.016 C 
HETATM   17  C18 UNL     1      34.903  16.853  40.786  1.00  0.00     0.022 C 
ENDROOT
BRANCH   4  18
HETATM   18  O1  UNL     1      32.857  19.795  41.044  1.00  0.00    -0.233 OA
BRANCH  18  19
HETATM   19  O2  UNL     1      31.956  20.308  40.276  1.00  0.00    -0.250 OA
ATOM     20  H2  UNL     1      32.035  20.072  39.359  1.00  0.00     0.253 HD
ENDBRANCH  18  19
ENDBRANCH   4  18
BRANCH   1  21
HETATM   21  S1  UNL     1      35.997  16.631  38.239  1.00  0.00    -0.164 SA
HETATM   22  C1  UNL     1      35.279  16.563  36.589  1.00  0.00     0.090 C 
ENDBRANCH   1  21
BRANCH   8  23
HETATM   23  O3  UNL     1      31.987  15.810  42.536  1.00  0.00    -0.389 OA
ATOM     24  H3  UNL     1      31.327  16.335  42.973  1.00  0.00     0.210 HD
ENDBRANCH   8  23
TORSDOF 4
ENDMDL
MODEL 3
REMARK VINA RESULT: -4.091054604      7.321     10.075
REMARK  4 active torsions:
REMARK  status: ('A' for Active; 'I' for Inactive)
REMARK    1  A    between atoms: S1_2  and  C2_3 
REMARK    2  A    between atoms: C5_6  and  O1_7 
REMARK    3  A    between atoms: O1_7  and  O2_8 
REMARK    4  A    between atoms: C9_13  and  O3_14 
ROOT
HETATM    1  C2  UNL     1      33.262  21.253  42.373  1.00  0.00     0.074 C 
HETATM    2  C3  UNL     1      33.744  20.741  43.666  1.00  0.00    -0.013 C 
HETATM    3  C4  UNL     1      33.397  21.434  44.735  1.00  0.00     0.006 C 
HETATM    4  C5  UNL     1      32.576  22.655  44.669  1.00  0.00     0.191 C 
HETATM    5  C6  UNL     1      32.553  23.338  43.346  1.00  0.00    -0.003 C 
HETATM    6  C7  UNL     1      31.074  23.316  42.901  1.00  0.00     0.019 C 
HETATM    7  C8  UNL     1      32.814  24.810  43.571  1.00  0.00     0.051 C 
HETATM    8  C9  UNL     1      34.259  25.151  43.669  1.00  0.00     0.066 C 
HETATM    9  C10 UNL     1      34.390  26.660  43.613  1.00  0.00     0.016 C 
HETATM   10  C11 UNL     1      33.124  27.381  43.929  1.00  0.00     0.013 C 
HETATM   11  C12 UNL     1      34.799  27.011  42.205  1.00  0.00     0.008 C 
HETATM   12  C13 UNL     1      34.530  25.737  41.431  1.00  0.00     0.009 C 
HETATM   13  C14 UNL     1      34.957  24.703  42.464  1.00  0.00     0.028 C 
HETATM   14  C15 UNL     1      34.729  23.292  42.012  1.00  0.00    -0.035 C 
HETATM   15  C16 UNL     1      35.048  23.395  40.502  1.00  0.00     0.016 C 
HETATM   16  C17 UNL     1      35.889  22.481  42.574  1.00  0.00     0.016 C 
HETATM   17  C18 UNL     1      33.382  22.747  42.249  1.00  0.00     0.022 C 
ENDROOT
BRANCH   4  18
HETATM   18  O1  UNL     1      31.302  22.301  45.145  1.00  0.00    -0.233 OA
BRANCH  18  19
HETATM   19  O2  UNL     1      31.294  21.766  46.318  1.00  0.00    -0.250 OA
ATOM     20  H2  UNL     1      30.921  22.312  47.001  1.00  0.00     0.253 HD
ENDBRANCH  18  19
ENDBRANCH   4  18
BRANCH   1  21
HETATM   21  S1  UNL     1      33.809  20.322  40.957  1.00  0.00    -0.164 SA
HETATM   22  C1  UNL     1      32.423  19.412  40.254  1.00  0.00     0.090 C 
ENDBRANCH   1  21
BRANCH   8  23
HETATM   23  O3  UNL     1      34.897  24.712  44.798  1.00  0.00    -0.389 OA
ATOM     24  H3  UNL     1      35.366  25.375  45.291  1.00  0.00     0.210 HD
ENDBRANCH   8  23
TORSDOF 4
ENDMDL
MODEL 4
REMARK VINA RESULT: -3.999531644      6.488      9.305
REMARK  4 active torsions:
REMARK  status: ('A' for Active; 'I' for Inactive)
REMARK    1  A    between atoms: S1_2  and  C2_3 
REMARK    2  A    between atoms: C5_6  and  O1_7 
REMARK    3  A    between atoms: O1_7  and  O2_8 
REMARK    4  A    between atoms: C9_13  and  O3_14 
ROOT
HETATM    1  C2  UNL     1      32.336  24.148  42.801  1.00  0.00     0.074 C 
HETATM    2  C3  UNL     1      31.320  23.146  42.440  1.00  0.00    -0.013 C 
HETATM    3  C4  UNL     1      30.286  23.043  43.255  1.00  0.00     0.006 C 
HETATM    4  C5  UNL     1      30.130  23.868  44.464  1.00  0.00     0.191 C 
HETATM    5  C6  UNL     1      31.385  24.474  44.990  1.00  0.00    -0.003 C 
HETATM    6  C7  UNL     1      31.159  26.000  44.925  1.00  0.00     0.019 C 
HETATM    7  C8  UNL     1      31.450  24.207  46.476  1.00  0.00     0.051 C 
HETATM    8  C9  UNL     1      32.007  22.870  46.818  1.00  0.00     0.066 C 
HETATM    9  C10 UNL     1      32.276  22.841  48.309  1.00  0.00     0.016 C 
HETATM   10  C11 UNL     1      31.535  23.888  49.069  1.00  0.00     0.013 C 
HETATM   11  C12 UNL     1      33.754  23.075  48.492  1.00  0.00     0.008 C 
HETATM   12  C13 UNL     1      34.200  23.589  47.139  1.00  0.00     0.009 C 
HETATM   13  C14 UNL     1      33.339  22.723  46.229  1.00  0.00     0.028 C 
HETATM   14  C15 UNL     1      33.498  23.058  44.777  1.00  0.00    -0.035 C 
HETATM   15  C16 UNL     1      35.003  23.406  44.702  1.00  0.00     0.016 C 
HETATM   16  C17 UNL     1      33.394  21.735  44.029  1.00  0.00     0.016 C 
HETATM   17  C18 UNL     1      32.658  24.156  44.271  1.00  0.00     0.022 C 
ENDROOT
BRANCH   4  18
HETATM   18  O1  UNL     1      29.126  24.808  44.175  1.00  0.00    -0.233 OA
BRANCH  18  19
HETATM   19  O2  UNL     1      28.145  24.351  43.474  1.00  0.00    -0.250 OA
ATOM     20  H2  UNL     1      27.794  24.962  42.837  1.00  0.00     0.253 HD
ENDBRANCH  18  19
ENDBRANCH   4  18
BRANCH   1  21
HETATM   21  S1  UNL     1      33.741  24.206  41.709  1.00  0.00    -0.164 SA
HETATM   22  C1  UNL     1      34.522  25.825  41.806  1.00  0.00     0.090 C 
ENDBRANCH   1  21
BRANCH   8  23
HETATM   23  O3  UNL     1      31.214  21.799  46.509  1.00  0.00    -0.389 OA
ATOM     24  H3  UNL     1      30.467  21.985  45.952  1.00  0.00     0.210 HD
ENDBRANCH   8  23
TORSDOF 4
ENDMDL
MODEL 5
REMARK VINA RESULT: -3.983258087      7.504      9.917
REMARK  4 active torsions:
REMARK  status: ('A' for Active; 'I' for Inactive)
REMARK    1  A    between atoms: S1_2  and  C2_3 
REMARK    2  A    between atoms: C5_6  and  O1_7 
REMARK    3  A    between atoms: O1_7  and  O2_8 
REMARK    4  A    between atoms: C9_13  and  O3_14 
ROOT
HETATM    1  C2  UNL     1      34.513  22.981  41.120  1.00  0.00     0.074 C 
HETATM    2  C3  UNL     1      34.708  21.528  40.985  1.00  0.00    -0.013 C 
HETATM    3  C4  UNL     1      33.696  20.766  41.357  1.00  0.00     0.006 C 
HETATM    4  C5  UNL     1      32.432  21.308  41.881  1.00  0.00     0.191 C 
HETATM    5  C6  UNL     1      32.507  22.695  42.421  1.00  0.00    -0.003 C 
HETATM    6  C7  UNL     1      31.539  23.525  41.550  1.00  0.00     0.019 C 
HETATM    7  C8  UNL     1      31.837  22.710  43.775  1.00  0.00     0.051 C 
HETATM    8  C9  UNL     1      32.727  22.279  44.887  1.00  0.00     0.066 C 
HETATM    9  C10 UNL     1      32.035  22.603  46.195  1.00  0.00     0.016 C 
HETATM   10  C11 UNL     1      30.565  22.812  46.058  1.00  0.00     0.013 C 
HETATM   11  C12 UNL     1      32.651  23.879  46.712  1.00  0.00     0.008 C 
HETATM   12  C13 UNL     1      33.399  24.421  45.512  1.00  0.00     0.009 C 
HETATM   13  C14 UNL     1      33.925  23.121  44.917  1.00  0.00     0.028 C 
HETATM   14  C15 UNL     1      34.666  23.321  43.630  1.00  0.00    -0.035 C 
HETATM   15  C16 UNL     1      35.382  24.667  43.891  1.00  0.00     0.016 C 
HETATM   16  C17 UNL     1      35.797  22.301  43.638  1.00  0.00     0.016 C 
HETATM   17  C18 UNL     1      33.844  23.367  42.411  1.00  0.00     0.022 C 
ENDROOT
BRANCH   4  18
HETATM   18  O1  UNL     1      31.479  21.150  40.861  1.00  0.00    -0.233 OA
BRANCH  18  19
HETATM   19  O2  UNL     1      31.719  20.180  40.045  1.00  0.00    -0.250 OA
ATOM     20  H2  UNL     1      31.051  20.043  39.383  1.00  0.00     0.253 HD
ENDBRANCH  18  19
ENDBRANCH   4  18
BRANCH   1  21
HETATM   21  S1  UNL     1      35.927  23.964  40.667  1.00  0.00    -0.164 SA
HETATM   22  C1  UNL     1      35.422  25.670  40.397  1.00  0.00     0.090 C 
ENDBRANCH   1  21
BRANCH   8  23
HETATM   23  O3  UNL     1      33.060  20.952  44.901  1.00  0.00    -0.389 OA
ATOM     24  H3  UNL     1      32.659  20.432  45.587  1.00  0.00     0.210 HD
ENDBRANCH   8  23
TORSDOF 4
ENDMDL
