MODEL 1
REMARK VINA RESULT: -6.936499228      0.000      0.000
REMARK  3 active torsions:
REMARK  status: ('A' for Active; 'I' for Inactive)
REMARK    1  A    between atoms: C8_11  and  C9_12 
REMARK    2  A    between atoms: C13_17  and  N3_18 
REMARK    3  A    between atoms: N3_18  and  C14_21 
ROOT
HETATM    1  C9  UNL     1      28.126  21.487  41.804  1.00  0.00     0.080 C 
HETATM    2  C10 UNL     1      28.030  20.033  41.827  1.00  0.00     0.071 C 
HETATM    3  N2  UNL     1      28.066  18.888  41.809  1.00  0.00    -0.196 NA
HETATM    4  C11 UNL     1      28.308  21.993  43.196  1.00  0.00     0.029 C 
HETATM    5  C12 UNL     1      29.383  23.048  43.178  1.00  0.00     0.035 C 
HETATM    6  C13 UNL     1      30.247  22.646  42.021  1.00  0.00     0.188 C 
HETATM    7  C18 UNL     1      29.373  21.934  41.031  1.00  0.00     0.059 C 
ENDROOT
BRANCH   1   8
HETATM    8  C8  UNL     1      26.938  22.126  41.187  1.00  0.00     0.219 C 
HETATM    9  N1  UNL     1      26.149  22.813  42.192  1.00  0.00    -0.050 N 
HETATM   10  C5  UNL     1      25.144  23.592  41.467  1.00  0.00     0.174 C 
ATOM     11  H12 UNL     1      26.711  23.374  42.833  1.00  0.00     0.279 HD
ATOM     12  H11 UNL     1      25.749  22.186  42.890  1.00  0.00     0.279 HD
HETATM   13  C4  UNL     1      23.981  23.969  42.312  1.00  0.00     0.050 C 
HETATM   14  C6  UNL     1      25.855  24.712  40.803  1.00  0.00     0.050 C 
HETATM   15  S1  UNL     1      24.574  22.311  40.288  1.00  0.00    -0.128 SA
HETATM   16  C3  UNL     1      24.183  25.311  42.959  1.00  0.00     0.007 C 
HETATM   17  C2  UNL     1      24.393  26.410  41.962  1.00  0.00    -0.019 C 
HETATM   18  C1  UNL     1      25.075  27.579  42.668  1.00  0.00     0.010 C 
HETATM   19  C7  UNL     1      25.110  25.998  40.721  1.00  0.00     0.007 C 
HETATM   20  C19 UNL     1      25.958  21.139  40.577  1.00  0.00     0.111 C 
ENDBRANCH   1   8
BRANCH   6  21
HETATM   21  N3  UNL     1      31.338  21.778  42.377  1.00  0.00    -0.063 N 
ATOM     22  H32 UNL     1      31.139  21.274  43.241  1.00  0.00     0.278 HD
ATOM     23  H31 UNL     1      31.402  20.987  41.736  1.00  0.00     0.278 HD
BRANCH  21  24
HETATM   24  C14 UNL     1      32.604  22.483  42.463  1.00  0.00     0.115 C 
HETATM   25  C15 UNL     1      33.626  21.610  41.762  1.00  0.00     0.045 C 
HETATM   26  C16 UNL     1      32.573  23.801  41.722  1.00  0.00     0.045 C 
HETATM   27  C17 UNL     1      32.968  22.748  43.904  1.00  0.00     0.045 C 
ENDBRANCH  21  24
ENDBRANCH   6  21
TORSDOF 3
ENDMDL
MODEL 2
REMARK VINA RESULT: -6.733966150      2.123      2.892
REMARK  3 active torsions:
REMARK  status: ('A' for Active; 'I' for Inactive)
REMARK    1  A    between atoms: C8_11  and  C9_12 
REMARK    2  A    between atoms: C13_17  and  N3_18 
REMARK    3  A    between atoms: N3_18  and  C14_21 
ROOT
HETATM    1  C9  UNL     1      26.639  23.400  41.833  1.00  0.00     0.080 C 
HETATM    2  C10 UNL     1      26.552  22.009  41.408  1.00  0.00     0.071 C 
HETATM    3  N2  UNL     1      26.595  20.906  41.102  1.00  0.00    -0.196 NA
HETATM    4  C11 UNL     1      26.038  23.542  43.192  1.00  0.00     0.029 C 
HETATM    5  C12 UNL     1      26.948  24.407  44.023  1.00  0.00     0.035 C 
HETATM    6  C13 UNL     1      28.302  24.162  43.429  1.00  0.00     0.188 C 
HETATM    7  C18 UNL     1      28.105  23.829  41.979  1.00  0.00     0.059 C 
ENDROOT
BRANCH   1   8
HETATM    8  C8  UNL     1      25.972  24.328  40.887  1.00  0.00     0.219 C 
HETATM    9  N1  UNL     1      25.114  25.254  41.602  1.00  0.00    -0.050 N 
HETATM   10  C5  UNL     1      24.686  26.258  40.627  1.00  0.00     0.174 C 
ATOM     11  H12 UNL     1      25.554  25.655  42.430  1.00  0.00     0.279 HD
ATOM     12  H11 UNL     1      24.337  24.798  42.081  1.00  0.00     0.279 HD
HETATM   13  C4  UNL     1      23.461  26.989  41.044  1.00  0.00     0.050 C 
HETATM   14  C6  UNL     1      25.871  27.097  40.317  1.00  0.00     0.050 C 
HETATM   15  S1  UNL     1      24.221  25.147  39.246  1.00  0.00    -0.128 SA
HETATM   16  C3  UNL     1      23.800  28.242  41.803  1.00  0.00     0.007 C 
HETATM   17  C2  UNL     1      24.644  29.191  41.009  1.00  0.00    -0.019 C 
HETATM   18  C1  UNL     1      25.342  30.143  41.977  1.00  0.00     0.010 C 
HETATM   19  C7  UNL     1      25.598  28.539  40.066  1.00  0.00     0.007 C 
HETATM   20  C19 UNL     1      25.026  23.640  39.918  1.00  0.00     0.111 C 
ENDBRANCH   1   8
BRANCH   6  21
HETATM   21  N3  UNL     1      29.030  23.087  44.051  1.00  0.00    -0.063 N 
ATOM     22  H32 UNL     1      28.483  22.656  44.797  1.00  0.00     0.278 HD
ATOM     23  H31 UNL     1      29.111  22.287  43.424  1.00  0.00     0.278 HD
BRANCH  21  24
HETATM   24  C14 UNL     1      30.333  23.506  44.534  1.00  0.00     0.115 C 
HETATM   25  C15 UNL     1      31.322  23.171  43.435  1.00  0.00     0.045 C 
HETATM   26  C16 UNL     1      30.408  25.001  44.748  1.00  0.00     0.045 C 
HETATM   27  C17 UNL     1      30.665  22.816  45.834  1.00  0.00     0.045 C 
ENDBRANCH  21  24
ENDBRANCH   6  21
TORSDOF 3
ENDMDL
MODEL 3
REMARK VINA RESULT: -6.590290647      0.916      1.102
REMARK  3 active torsions:
REMARK  status: ('A' for Active; 'I' for Inactive)
REMARK    1  A    between atoms: C8_11  and  C9_12 
REMARK    2  A    between atoms: C13_17  and  N3_18 
REMARK    3  A    between atoms: N3_18  and  C14_21 
ROOT
HETATM    1  C9  UNL     1      28.129  22.155  42.121  1.00  0.00     0.080 C 
HETATM    2  C10 UNL     1      28.124  20.713  41.912  1.00  0.00     0.071 C 
HETATM    3  N2  UNL     1      28.233  19.588  41.726  1.00  0.00    -0.196 NA
HETATM    4  C11 UNL     1      28.133  22.445  43.584  1.00  0.00     0.029 C 
HETATM    5  C12 UNL     1      29.136  23.538  43.847  1.00  0.00     0.035 C 
HETATM    6  C13 UNL     1      30.139  23.363  42.748  1.00  0.00     0.188 C 
HETATM    7  C18 UNL     1      29.420  22.776  41.569  1.00  0.00     0.059 C 
ENDROOT
BRANCH   1   8
HETATM    8  C8  UNL     1      26.975  22.828  41.477  1.00  0.00     0.219 C 
HETATM    9  N1  UNL     1      26.240  23.619  42.447  1.00  0.00    -0.050 N 
HETATM   10  C5  UNL     1      25.275  24.413  41.687  1.00  0.00     0.174 C 
ATOM     11  H12 UNL     1      26.842  24.181  43.049  1.00  0.00     0.279 HD
ATOM     12  H11 UNL     1      25.812  23.059  43.184  1.00  0.00     0.279 HD
HETATM   13  C4  UNL     1      24.147  24.908  42.518  1.00  0.00     0.050 C 
HETATM   14  C6  UNL     1      26.044  25.448  40.951  1.00  0.00     0.050 C 
HETATM   15  S1  UNL     1      24.615  23.102  40.589  1.00  0.00    -0.128 SA
HETATM   16  C3  UNL     1      24.436  26.271  43.082  1.00  0.00     0.007 C 
HETATM   17  C2  UNL     1      24.700  27.295  42.021  1.00  0.00    -0.019 C 
HETATM   18  C1  UNL     1      25.458  28.460  42.651  1.00  0.00     0.010 C 
HETATM   19  C7  UNL     1      25.376  26.770  40.801  1.00  0.00     0.007 C 
HETATM   20  C19 UNL     1      25.930  21.868  40.935  1.00  0.00     0.111 C 
ENDBRANCH   1   8
BRANCH   6  21
HETATM   21  N3  UNL     1      31.240  22.501  43.089  1.00  0.00    -0.063 N 
ATOM     22  H32 UNL     1      31.035  21.960  43.930  1.00  0.00     0.278 HD
ATOM     23  H31 UNL     1      31.329  21.737  42.420  1.00  0.00     0.278 HD
BRANCH  21  24
HETATM   24  C14 UNL     1      32.490  23.225  43.226  1.00  0.00     0.115 C 
HETATM   25  C15 UNL     1      32.797  23.806  41.859  1.00  0.00     0.045 C 
HETATM   26  C16 UNL     1      32.373  24.391  44.180  1.00  0.00     0.045 C 
HETATM   27  C17 UNL     1      33.584  22.308  43.717  1.00  0.00     0.045 C 
ENDBRANCH  21  24
ENDBRANCH   6  21
TORSDOF 3
ENDMDL
MODEL 4
REMARK VINA RESULT: -6.576796974      4.067      7.933
REMARK  3 active torsions:
REMARK  status: ('A' for Active; 'I' for Inactive)
REMARK    1  A    between atoms: C8_11  and  C9_12 
REMARK    2  A    between atoms: C13_17  and  N3_18 
REMARK    3  A    between atoms: N3_18  and  C14_21 
ROOT
HETATM    1  C9  UNL     1      24.616  26.934  40.636  1.00  0.00     0.080 C 
HETATM    2  C10 UNL     1      24.166  26.696  39.271  1.00  0.00     0.071 C 
HETATM    3  N2  UNL     1      23.740  26.598  38.212  1.00  0.00    -0.196 NA
HETATM    4  C11 UNL     1      25.919  27.660  40.609  1.00  0.00     0.029 C 
HETATM    5  C12 UNL     1      25.867  28.764  41.633  1.00  0.00     0.035 C 
HETATM    6  C13 UNL     1      24.409  29.103  41.706  1.00  0.00     0.188 C 
HETATM    7  C18 UNL     1      23.639  27.859  41.373  1.00  0.00     0.059 C 
ENDROOT
BRANCH   1   8
HETATM    8  C8  UNL     1      24.753  25.680  41.417  1.00  0.00     0.219 C 
HETATM    9  N1  UNL     1      24.180  24.563  40.692  1.00  0.00    -0.050 N 
HETATM   10  C5  UNL     1      24.561  23.355  41.425  1.00  0.00     0.174 C 
ATOM     11  H12 UNL     1      24.447  24.540  39.708  1.00  0.00     0.279 HD
ATOM     12  H11 UNL     1      23.174  24.647  40.547  1.00  0.00     0.279 HD
HETATM   13  C4  UNL     1      23.694  22.188  41.115  1.00  0.00     0.050 C 
HETATM   14  C6  UNL     1      26.017  23.157  41.213  1.00  0.00     0.050 C 
HETATM   15  S1  UNL     1      24.158  23.903  43.126  1.00  0.00    -0.128 SA
HETATM   16  C3  UNL     1      24.255  21.370  39.985  1.00  0.00     0.007 C 
HETATM   17  C2  UNL     1      25.629  20.848  40.272  1.00  0.00    -0.019 C 
HETATM   18  C1  UNL     1      26.298  20.492  38.948  1.00  0.00     0.010 C 
HETATM   19  C7  UNL     1      26.473  21.743  41.114  1.00  0.00     0.007 C 
HETATM   20  C19 UNL     1      23.985  25.687  42.728  1.00  0.00     0.111 C 
ENDBRANCH   1   8
BRANCH   6  21
HETATM   21  N3  UNL     1      24.003  30.148  40.803  1.00  0.00    -0.063 N 
ATOM     22  H32 UNL     1      24.486  30.067  39.908  1.00  0.00     0.278 HD
ATOM     23  H31 UNL     1      23.044  30.007  40.485  1.00  0.00     0.278 HD
BRANCH  21  24
HETATM   24  C14 UNL     1      24.176  31.472  41.372  1.00  0.00     0.115 C 
HETATM   25  C15 UNL     1      22.789  32.076  41.472  1.00  0.00     0.045 C 
HETATM   26  C16 UNL     1      24.731  31.419  42.778  1.00  0.00     0.045 C 
HETATM   27  C17 UNL     1      25.103  32.301  40.518  1.00  0.00     0.045 C 
ENDBRANCH  21  24
ENDBRANCH   6  21
TORSDOF 3
ENDMDL
MODEL 5
REMARK VINA RESULT: -6.404918748      3.871      7.132
REMARK  3 active torsions:
REMARK  status: ('A' for Active; 'I' for Inactive)
REMARK    1  A    between atoms: C8_11  and  C9_12 
REMARK    2  A    between atoms: C13_17  and  N3_18 
REMARK    3  A    between atoms: N3_18  and  C14_21 
ROOT
HETATM    1  C9  UNL     1      24.902  25.781  42.418  1.00  0.00     0.080 C 
HETATM    2  C10 UNL     1      24.814  25.410  43.824  1.00  0.00     0.071 C 
HETATM    3  N2  UNL     1      24.789  25.223  44.955  1.00  0.00    -0.196 NA
HETATM    4  C11 UNL     1      23.550  26.177  41.924  1.00  0.00     0.029 C 
HETATM    5  C12 UNL     1      23.696  27.429  41.100  1.00  0.00     0.035 C 
HETATM    6  C13 UNL     1      24.902  28.097  41.690  1.00  0.00     0.188 C 
HETATM    7  C18 UNL     1      25.790  27.020  42.241  1.00  0.00     0.059 C 
ENDROOT
BRANCH   1   8
HETATM    8  C8  UNL     1      25.447  24.690  41.575  1.00  0.00     0.219 C 
HETATM    9  N1  UNL     1      24.569  23.535  41.604  1.00  0.00    -0.050 N 
HETATM   10  C5  UNL     1      25.062  22.614  40.580  1.00  0.00     0.174 C 
ATOM     11  H12 UNL     1      23.583  23.774  41.492  1.00  0.00     0.279 HD
ATOM     12  H11 UNL     1      24.491  23.109  42.527  1.00  0.00     0.279 HD
HETATM   13  C4  UNL     1      24.599  21.216  40.783  1.00  0.00     0.050 C 
HETATM   14  C6  UNL     1      24.748  23.218  39.261  1.00  0.00     0.050 C 
HETATM   15  S1  UNL     1      26.850  22.664  40.977  1.00  0.00    -0.128 SA
HETATM   16  C3  UNL     1      23.318  20.948  40.042  1.00  0.00     0.007 C 
HETATM   17  C2  UNL     1      23.444  21.174  38.566  1.00  0.00    -0.019 C 
HETATM   18  C1  UNL     1      22.046  21.378  37.988  1.00  0.00     0.010 C 
HETATM   19  C7  UNL     1      24.385  22.263  38.179  1.00  0.00     0.007 C 
HETATM   20  C19 UNL     1      26.775  24.140  42.066  1.00  0.00     0.111 C 
ENDBRANCH   1   8
BRANCH   6  21
HETATM   21  N3  UNL     1      24.600  29.027  42.746  1.00  0.00    -0.063 N 
ATOM     22  H32 UNL     1      23.649  28.895  43.091  1.00  0.00     0.278 HD
ATOM     23  H31 UNL     1      25.116  28.798  43.595  1.00  0.00     0.278 HD
BRANCH  21  24
HETATM   24  C14 UNL     1      24.826  30.405  42.352  1.00  0.00     0.115 C 
HETATM   25  C15 UNL     1      25.473  31.087  43.542  1.00  0.00     0.045 C 
HETATM   26  C16 UNL     1      25.801  30.517  41.202  1.00  0.00     0.045 C 
HETATM   27  C17 UNL     1      23.529  31.063  41.950  1.00  0.00     0.045 C 
ENDBRANCH  21  24
ENDBRANCH   6  21
TORSDOF 3
ENDMDL
