MODEL 1
REMARK VINA RESULT: -8.742528228      0.000      0.000
REMARK  12 active torsions:
REMARK  status: ('A' for Active; 'I' for Inactive)
REMARK    1  A    between atoms: C2_2  and  C4_4 
REMARK    2  A    between atoms: C6_6  and  C7_7 
REMARK    3  A    between atoms: C7_7  and  C8_8 
REMARK    4  A    between atoms: C8_8  and  C10_10 
REMARK    5  A    between atoms: C10_10  and  O1_11 
REMARK    6  A    between atoms: C12_14  and  C13_15 
REMARK    7  A    between atoms: C17_19  and  C18_20 
REMARK    8  A    between atoms: C18_20  and  C19_21 
REMARK    9  A    between atoms: C19_21  and  C20_22 
REMARK   10  A    between atoms: C20_22  and  C21_23 
REMARK   11  A    between atoms: C21_23  and  C22_24 
REMARK   12  A    between atoms: C24_26  and  C25_27 
ROOT
HETATM    1  C10 UNL     1      13.059  -4.714   0.039  1.00  0.00     0.100 C 
HETATM    2  C11 UNL     1      12.487  -3.787   1.092  1.00  0.00     0.076 C 
HETATM    3  C12 UNL     1      11.915  -4.813   2.043  1.00  0.00     0.155 C 
HETATM    4  O5  UNL     1      11.783  -5.996   1.395  1.00  0.00    -0.364 OA
HETATM    5  C26 UNL     1      12.040  -5.805   0.039  1.00  0.00     0.142 C 
HETATM    6  C27 UNL     1      10.754  -5.486  -0.625  1.00  0.00     0.047 C 
HETATM    7  C28 UNL     1       9.608  -6.360  -0.242  1.00  0.00     0.009 C 
HETATM    8  C29 UNL     1       9.946  -7.698   0.287  1.00  0.00     0.068 C 
HETATM    9  C30 UNL     1      11.140  -8.356  -0.316  1.00  0.00     0.166 C 
HETATM   10  C31 UNL     1      10.952  -9.845  -0.553  1.00  0.00     0.079 C 
HETATM   11  O6  UNL     1      11.647  -7.692  -1.421  1.00  0.00    -0.322 OA
HETATM   12  C32 UNL     1      12.579  -7.092  -0.569  1.00  0.00     0.304 C 
HETATM   13  O7  UNL     1      12.328  -8.124   0.330  1.00  0.00    -0.322 OA
ENDROOT
BRANCH   3  14
HETATM   14  C13 UNL     1      10.662  -4.320   2.718  1.00  0.00     0.158 C 
HETATM   15  C14 UNL     1      11.033  -3.734   4.051  1.00  0.00     0.041 C 
HETATM   16  C15 UNL     1      10.632  -4.798   5.035  1.00  0.00     0.067 C 
HETATM   17  C16 UNL     1       9.521  -5.471   4.343  1.00  0.00     0.043 C 
HETATM   18  C17 UNL     1       8.458  -6.025   4.849  1.00  0.00     0.005 C 
HETATM   19  O4  UNL     1       9.832  -5.406   2.981  1.00  0.00    -0.348 OA
BRANCH  18  20
HETATM   20  C18 UNL     1       8.183  -6.062   6.312  1.00  0.00     0.029 C 
BRANCH  20  21
HETATM   21  C19 UNL     1       6.935  -5.284   6.630  1.00  0.00     0.004 C 
BRANCH  21  22
HETATM   22  C20 UNL     1       7.235  -3.960   7.298  1.00  0.00     0.005 C 
BRANCH  22  23
HETATM   23  C21 UNL     1       8.536  -3.977   8.032  1.00  0.00     0.034 C 
BRANCH  23  24
HETATM   24  C22 UNL     1       9.407  -2.820   7.627  1.00  0.00    -0.077 C 
HETATM   25  C23 UNL     1      10.799  -2.807   8.112  1.00  0.00     0.043 C 
HETATM   26  C24 UNL     1       8.946  -1.851   6.865  1.00  0.00     0.086 C 
BRANCH  26  27
HETATM   27  C25 UNL     1       9.733  -0.717   6.445  1.00  0.00     0.198 C 
HETATM   28  O2  UNL     1      10.095  -0.627   5.224  1.00  0.00    -0.644 OA
HETATM   29  O3  UNL     1      10.142   0.309   7.274  1.00  0.00    -0.644 OA
ENDBRANCH  26  27
ENDBRANCH  23  24
ENDBRANCH  22  23
ENDBRANCH  21  22
ENDBRANCH  20  21
ENDBRANCH  18  20
ENDBRANCH   3  14
BRANCH   1  30
HETATM   30  C8  UNL     1      13.272  -3.989  -1.201  1.00  0.00     0.023 C 
HETATM   31  C9  UNL     1      14.489  -4.290  -2.014  1.00  0.00     0.013 C 
BRANCH  30  32
HETATM   32  C7  UNL     1      13.222  -2.500  -0.981  1.00  0.00     0.035 C 
BRANCH  32  33
HETATM   33  C6  UNL     1      14.377  -1.745  -1.487  1.00  0.00    -0.019 C 
HETATM   34  C4  UNL     1      14.902  -0.768  -0.785  1.00  0.00    -0.061 C 
HETATM   35  C5  UNL     1      14.343  -0.434   0.527  1.00  0.00     0.048 C 
BRANCH  34  36
HETATM   36  C2  UNL     1      16.033  -0.053  -1.321  1.00  0.00    -0.066 C 
HETATM   37  C1  UNL     1      16.740  -0.474  -2.322  1.00  0.00     0.019 C 
HETATM   38  C3  UNL     1      16.445   1.265  -0.699  1.00  0.00     0.048 C 
ENDBRANCH  34  36
ENDBRANCH  32  33
ENDBRANCH  30  32
ENDBRANCH   1  30
BRANCH   1  39
HETATM   39  O1  UNL     1      14.203  -5.259   0.615  1.00  0.00    -0.386 OA
ATOM     40  H1  UNL     1      14.143  -5.438   1.546  1.00  0.00     0.210 HD
ENDBRANCH   1  39
TORSDOF 12
ENDMDL
MODEL 2
REMARK VINA RESULT: -8.634480113      2.717      3.517
REMARK  12 active torsions:
REMARK  status: ('A' for Active; 'I' for Inactive)
REMARK    1  A    between atoms: C2_2  and  C4_4 
REMARK    2  A    between atoms: C6_6  and  C7_7 
REMARK    3  A    between atoms: C7_7  and  C8_8 
REMARK    4  A    between atoms: C8_8  and  C10_10 
REMARK    5  A    between atoms: C10_10  and  O1_11 
REMARK    6  A    between atoms: C12_14  and  C13_15 
REMARK    7  A    between atoms: C17_19  and  C18_20 
REMARK    8  A    between atoms: C18_20  and  C19_21 
REMARK    9  A    between atoms: C19_21  and  C20_22 
REMARK   10  A    between atoms: C20_22  and  C21_23 
REMARK   11  A    between atoms: C21_23  and  C22_24 
REMARK   12  A    between atoms: C24_26  and  C25_27 
ROOT
HETATM    1  C10 UNL     1      13.717  -4.631   0.210  1.00  0.00     0.100 C 
HETATM    2  C11 UNL     1      13.155  -3.609   1.176  1.00  0.00     0.076 C 
HETATM    3  C12 UNL     1      12.305  -4.519   2.034  1.00  0.00     0.155 C 
HETATM    4  O5  UNL     1      12.083  -5.678   1.369  1.00  0.00    -0.364 OA
HETATM    5  C26 UNL     1      12.551  -5.553   0.063  1.00  0.00     0.142 C 
HETATM    6  C27 UNL     1      11.435  -5.052  -0.773  1.00  0.00     0.047 C 
HETATM    7  C28 UNL     1      10.126  -5.732  -0.558  1.00  0.00     0.009 C 
HETATM    8  C29 UNL     1      10.177  -7.097   0.008  1.00  0.00     0.068 C 
HETATM    9  C30 UNL     1      11.326  -7.941  -0.425  1.00  0.00     0.166 C 
HETATM   10  C31 UNL     1      10.946  -9.387  -0.692  1.00  0.00     0.079 C 
HETATM   11  O6  UNL     1      12.079  -7.382  -1.446  1.00  0.00    -0.322 OA
HETATM   12  C32 UNL     1      12.965  -6.917  -0.470  1.00  0.00     0.304 C 
HETATM   13  O7  UNL     1      12.435  -7.883   0.382  1.00  0.00    -0.322 OA
ENDROOT
BRANCH   3  14
HETATM   14  C13 UNL     1      11.062  -3.827   2.530  1.00  0.00     0.158 C 
HETATM   15  C14 UNL     1      11.392  -2.389   2.814  1.00  0.00     0.041 C 
HETATM   16  C15 UNL     1      11.504  -2.335   4.312  1.00  0.00     0.067 C 
HETATM   17  C16 UNL     1      10.598  -3.413   4.739  1.00  0.00     0.043 C 
HETATM   18  C17 UNL     1       9.858  -3.484   5.807  1.00  0.00     0.005 C 
HETATM   19  O4  UNL     1      10.683  -4.393   3.745  1.00  0.00    -0.348 OA
BRANCH  18  20
HETATM   20  C18 UNL     1       9.810  -2.406   6.832  1.00  0.00     0.029 C 
BRANCH  20  21
HETATM   21  C19 UNL     1       9.938  -2.989   8.213  1.00  0.00     0.004 C 
BRANCH  21  22
HETATM   22  C20 UNL     1      11.046  -2.340   9.013  1.00  0.00     0.005 C 
BRANCH  22  23
HETATM   23  C21 UNL     1      12.170  -3.283   9.295  1.00  0.00     0.034 C 
BRANCH  23  24
HETATM   24  C22 UNL     1      12.409  -3.422  10.772  1.00  0.00    -0.077 C 
HETATM   25  C23 UNL     1      11.334  -2.993  11.685  1.00  0.00     0.043 C 
HETATM   26  C24 UNL     1      13.539  -3.911  11.238  1.00  0.00     0.086 C 
BRANCH  26  27
HETATM   27  C25 UNL     1      13.825  -4.068  12.644  1.00  0.00     0.198 C 
HETATM   28  O2  UNL     1      14.632  -3.256  13.210  1.00  0.00    -0.644 OA
HETATM   29  O3  UNL     1      13.288  -5.048  13.453  1.00  0.00    -0.644 OA
ENDBRANCH  26  27
ENDBRANCH  23  24
ENDBRANCH  22  23
ENDBRANCH  21  22
ENDBRANCH  20  21
ENDBRANCH  18  20
ENDBRANCH   3  14
BRANCH   1  30
HETATM   30  C8  UNL     1      14.209  -3.969  -0.986  1.00  0.00     0.023 C 
HETATM   31  C9  UNL     1      15.681  -3.769  -1.146  1.00  0.00     0.013 C 
BRANCH  30  32
HETATM   32  C7  UNL     1      13.538  -2.637  -1.190  1.00  0.00     0.035 C 
BRANCH  32  33
HETATM   33  C6  UNL     1      13.581  -2.109  -2.561  1.00  0.00    -0.019 C 
HETATM   34  C4  UNL     1      13.703  -0.821  -2.783  1.00  0.00    -0.061 C 
HETATM   35  C5  UNL     1      13.817   0.103  -1.653  1.00  0.00     0.048 C 
BRANCH  34  36
HETATM   36  C2  UNL     1      13.739  -0.348  -4.144  1.00  0.00    -0.066 C 
HETATM   37  C1  UNL     1      13.023  -0.852  -5.099  1.00  0.00     0.019 C 
HETATM   38  C3  UNL     1      14.655   0.801  -4.510  1.00  0.00     0.048 C 
ENDBRANCH  34  36
ENDBRANCH  32  33
ENDBRANCH  30  32
ENDBRANCH   1  30
BRANCH   1  39
HETATM   39  O1  UNL     1      14.672  -5.335   0.937  1.00  0.00    -0.386 OA
ATOM     40  H1  UNL     1      14.773  -6.249   0.698  1.00  0.00     0.210 HD
ENDBRANCH   1  39
TORSDOF 12
ENDMDL
MODEL 3
REMARK VINA RESULT: -8.603729488      2.509      3.305
REMARK  12 active torsions:
REMARK  status: ('A' for Active; 'I' for Inactive)
REMARK    1  A    between atoms: C2_2  and  C4_4 
REMARK    2  A    between atoms: C6_6  and  C7_7 
REMARK    3  A    between atoms: C7_7  and  C8_8 
REMARK    4  A    between atoms: C8_8  and  C10_10 
REMARK    5  A    between atoms: C10_10  and  O1_11 
REMARK    6  A    between atoms: C12_14  and  C13_15 
REMARK    7  A    between atoms: C17_19  and  C18_20 
REMARK    8  A    between atoms: C18_20  and  C19_21 
REMARK    9  A    between atoms: C19_21  and  C20_22 
REMARK   10  A    between atoms: C20_22  and  C21_23 
REMARK   11  A    between atoms: C21_23  and  C22_24 
REMARK   12  A    between atoms: C24_26  and  C25_27 
ROOT
HETATM    1  C10 UNL     1      13.309  -4.793   0.062  1.00  0.00     0.100 C 
HETATM    2  C11 UNL     1      12.768  -3.808   1.079  1.00  0.00     0.076 C 
HETATM    3  C12 UNL     1      12.042  -4.769   1.992  1.00  0.00     0.155 C 
HETATM    4  O5  UNL     1      11.834  -5.936   1.337  1.00  0.00    -0.364 OA
HETATM    5  C26 UNL     1      12.190  -5.779  -0.000  1.00  0.00     0.142 C 
HETATM    6  C27 UNL     1      10.983  -5.339  -0.741  1.00  0.00     0.047 C 
HETATM    7  C28 UNL     1       9.737  -6.094  -0.429  1.00  0.00     0.009 C 
HETATM    8  C29 UNL     1       9.909  -7.456   0.119  1.00  0.00     0.068 C 
HETATM    9  C30 UNL     1      11.067  -8.231  -0.412  1.00  0.00     0.166 C 
HETATM   10  C31 UNL     1      10.749  -9.695  -0.661  1.00  0.00     0.079 C 
HETATM   11  O6  UNL     1      11.703  -7.626  -1.483  1.00  0.00    -0.322 OA
HETATM   12  C32 UNL     1      12.636  -7.115  -0.576  1.00  0.00     0.304 C 
HETATM   13  O7  UNL     1      12.231  -8.113   0.306  1.00  0.00    -0.322 OA
ENDROOT
BRANCH   3  14
HETATM   14  C13 UNL     1      10.805  -4.152   2.591  1.00  0.00     0.158 C 
HETATM   15  C14 UNL     1      11.042  -2.679   2.775  1.00  0.00     0.041 C 
HETATM   16  C15 UNL     1      11.307  -2.540   4.248  1.00  0.00     0.067 C 
HETATM   17  C16 UNL     1      10.544  -3.662   4.818  1.00  0.00     0.043 C 
HETATM   18  C17 UNL     1       9.929  -3.735   5.963  1.00  0.00     0.005 C 
HETATM   19  O4  UNL     1      10.605  -4.682   3.864  1.00  0.00    -0.348 OA
BRANCH  18  20
HETATM   20  C18 UNL     1       9.900  -2.612   6.940  1.00  0.00     0.029 C 
BRANCH  20  21
HETATM   21  C19 UNL     1       9.897  -3.142   8.348  1.00  0.00     0.004 C 
BRANCH  21  22
HETATM   22  C20 UNL     1      10.981  -2.520   9.201  1.00  0.00     0.005 C 
BRANCH  22  23
HETATM   23  C21 UNL     1      12.108  -3.464   9.463  1.00  0.00     0.034 C 
BRANCH  23  24
HETATM   24  C22 UNL     1      12.433  -3.534  10.929  1.00  0.00    -0.077 C 
HETATM   25  C23 UNL     1      11.381  -3.140  11.885  1.00  0.00     0.043 C 
HETATM   26  C24 UNL     1      13.615  -3.933  11.349  1.00  0.00     0.086 C 
BRANCH  26  27
HETATM   27  C25 UNL     1      13.984  -4.020  12.742  1.00  0.00     0.198 C 
HETATM   28  O2  UNL     1      14.711  -3.103  13.252  1.00  0.00    -0.644 OA
HETATM   29  O3  UNL     1      13.609  -5.039  13.594  1.00  0.00    -0.644 OA
ENDBRANCH  26  27
ENDBRANCH  23  24
ENDBRANCH  22  23
ENDBRANCH  21  22
ENDBRANCH  20  21
ENDBRANCH  18  20
ENDBRANCH   3  14
BRANCH   1  30
HETATM   30  C8  UNL     1      13.666  -4.098  -1.163  1.00  0.00     0.023 C 
HETATM   31  C9  UNL     1      15.052  -4.247  -1.699  1.00  0.00     0.013 C 
BRANCH  30  32
HETATM   32  C7  UNL     1      13.366  -2.626  -1.065  1.00  0.00     0.035 C 
BRANCH  32  33
HETATM   33  C6  UNL     1      14.466  -1.728  -1.444  1.00  0.00    -0.019 C 
HETATM   34  C4  UNL     1      14.812  -0.724  -0.673  1.00  0.00    -0.061 C 
HETATM   35  C5  UNL     1      14.106  -0.503   0.591  1.00  0.00     0.048 C 
BRANCH  34  36
HETATM   36  C2  UNL     1      15.896   0.132  -1.084  1.00  0.00    -0.066 C 
HETATM   37  C1  UNL     1      16.182   1.256  -0.508  1.00  0.00     0.019 C 
HETATM   38  C3  UNL     1      16.766  -0.277  -2.255  1.00  0.00     0.048 C 
ENDBRANCH  34  36
ENDBRANCH  32  33
ENDBRANCH  30  32
ENDBRANCH   1  30
BRANCH   1  39
HETATM   39  O1  UNL     1      14.357  -5.444   0.705  1.00  0.00    -0.386 OA
ATOM     40  H1  UNL     1      15.189  -4.984   0.695  1.00  0.00     0.210 HD
ENDBRANCH   1  39
TORSDOF 12
ENDMDL
MODEL 4
REMARK VINA RESULT: -8.595661996      0.999      1.368
REMARK  12 active torsions:
REMARK  status: ('A' for Active; 'I' for Inactive)
REMARK    1  A    between atoms: C2_2  and  C4_4 
REMARK    2  A    between atoms: C6_6  and  C7_7 
REMARK    3  A    between atoms: C7_7  and  C8_8 
REMARK    4  A    between atoms: C8_8  and  C10_10 
REMARK    5  A    between atoms: C10_10  and  O1_11 
REMARK    6  A    between atoms: C12_14  and  C13_15 
REMARK    7  A    between atoms: C17_19  and  C18_20 
REMARK    8  A    between atoms: C18_20  and  C19_21 
REMARK    9  A    between atoms: C19_21  and  C20_22 
REMARK   10  A    between atoms: C20_22  and  C21_23 
REMARK   11  A    between atoms: C21_23  and  C22_24 
REMARK   12  A    between atoms: C24_26  and  C25_27 
ROOT
HETATM    1  C10 UNL     1      13.067  -4.616   0.268  1.00  0.00     0.100 C 
HETATM    2  C11 UNL     1      12.452  -3.726   1.328  1.00  0.00     0.076 C 
HETATM    3  C12 UNL     1      11.855  -4.785   2.225  1.00  0.00     0.155 C 
HETATM    4  O5  UNL     1      11.753  -5.948   1.537  1.00  0.00    -0.364 OA
HETATM    5  C26 UNL     1      12.057  -5.713   0.198  1.00  0.00     0.142 C 
HETATM    6  C27 UNL     1      10.792  -5.381  -0.502  1.00  0.00     0.047 C 
HETATM    7  C28 UNL     1       9.640  -6.272  -0.187  1.00  0.00     0.009 C 
HETATM    8  C29 UNL     1       9.969  -7.625   0.312  1.00  0.00     0.068 C 
HETATM    9  C30 UNL     1      11.187  -8.256  -0.270  1.00  0.00     0.166 C 
HETATM   10  C31 UNL     1      11.019  -9.738  -0.560  1.00  0.00     0.079 C 
HETATM   11  O6  UNL     1      11.729  -7.555  -1.335  1.00  0.00    -0.322 OA
HETATM   12  C32 UNL     1      12.626  -6.976  -0.432  1.00  0.00     0.304 C 
HETATM   13  O7  UNL     1      12.351  -8.038   0.425  1.00  0.00    -0.322 OA
ENDROOT
BRANCH   3  14
HETATM   14  C13 UNL     1      10.575  -4.321   2.872  1.00  0.00     0.158 C 
HETATM   15  C14 UNL     1      10.901  -3.725   4.212  1.00  0.00     0.041 C 
HETATM   16  C15 UNL     1      10.504  -4.797   5.187  1.00  0.00     0.067 C 
HETATM   17  C16 UNL     1       9.425  -5.497   4.472  1.00  0.00     0.043 C 
HETATM   18  C17 UNL     1       8.364  -6.076   4.955  1.00  0.00     0.005 C 
HETATM   19  O4  UNL     1       9.765  -5.426   3.117  1.00  0.00    -0.348 OA
BRANCH  18  20
HETATM   20  C18 UNL     1       8.057  -6.118   6.411  1.00  0.00     0.029 C 
BRANCH  20  21
HETATM   21  C19 UNL     1       7.042  -5.064   6.762  1.00  0.00     0.004 C 
BRANCH  21  22
HETATM   22  C20 UNL     1       7.599  -4.017   7.703  1.00  0.00     0.005 C 
BRANCH  22  23
HETATM   23  C21 UNL     1       8.029  -2.781   6.984  1.00  0.00     0.034 C 
BRANCH  23  24
HETATM   24  C22 UNL     1       9.355  -2.287   7.493  1.00  0.00    -0.077 C 
HETATM   25  C23 UNL     1       9.885  -1.035   6.923  1.00  0.00     0.043 C 
HETATM   26  C24 UNL     1      10.021  -2.946   8.417  1.00  0.00     0.086 C 
BRANCH  26  27
HETATM   27  C25 UNL     1      11.297  -2.521   8.943  1.00  0.00     0.198 C 
HETATM   28  O2  UNL     1      12.342  -3.198   8.665  1.00  0.00    -0.644 OA
HETATM   29  O3  UNL     1      11.489  -1.414   9.745  1.00  0.00    -0.644 OA
ENDBRANCH  26  27
ENDBRANCH  23  24
ENDBRANCH  22  23
ENDBRANCH  21  22
ENDBRANCH  20  21
ENDBRANCH  18  20
ENDBRANCH   3  14
BRANCH   1  30
HETATM   30  C8  UNL     1      13.319  -3.851  -0.941  1.00  0.00     0.023 C 
HETATM   31  C9  UNL     1      14.526  -4.170  -1.761  1.00  0.00     0.013 C 
BRANCH  30  32
HETATM   32  C7  UNL     1      13.331  -2.372  -0.660  1.00  0.00     0.035 C 
BRANCH  32  33
HETATM   33  C6  UNL     1      14.501  -1.640  -1.167  1.00  0.00    -0.019 C 
HETATM   34  C4  UNL     1      14.883  -0.514  -0.611  1.00  0.00    -0.061 C 
HETATM   35  C5  UNL     1      14.148   0.014   0.540  1.00  0.00     0.048 C 
BRANCH  34  36
HETATM   36  C2  UNL     1      16.035   0.171  -1.142  1.00  0.00    -0.066 C 
HETATM   37  C1  UNL     1      16.453   1.317  -0.707  1.00  0.00     0.019 C 
HETATM   38  C3  UNL     1      16.820  -0.458  -2.274  1.00  0.00     0.048 C 
ENDBRANCH  34  36
ENDBRANCH  32  33
ENDBRANCH  30  32
ENDBRANCH   1  30
BRANCH   1  39
HETATM   39  O1  UNL     1      14.194  -5.172   0.866  1.00  0.00    -0.386 OA
ATOM     40  H1  UNL     1      14.080  -5.452   1.767  1.00  0.00     0.210 HD
ENDBRANCH   1  39
TORSDOF 12
ENDMDL
MODEL 5
REMARK VINA RESULT: -8.516004093      0.952      1.169
REMARK  12 active torsions:
REMARK  status: ('A' for Active; 'I' for Inactive)
REMARK    1  A    between atoms: C2_2  and  C4_4 
REMARK    2  A    between atoms: C6_6  and  C7_7 
REMARK    3  A    between atoms: C7_7  and  C8_8 
REMARK    4  A    between atoms: C8_8  and  C10_10 
REMARK    5  A    between atoms: C10_10  and  O1_11 
REMARK    6  A    between atoms: C12_14  and  C13_15 
REMARK    7  A    between atoms: C17_19  and  C18_20 
REMARK    8  A    between atoms: C18_20  and  C19_21 
REMARK    9  A    between atoms: C19_21  and  C20_22 
REMARK   10  A    between atoms: C20_22  and  C21_23 
REMARK   11  A    between atoms: C21_23  and  C22_24 
REMARK   12  A    between atoms: C24_26  and  C25_27 
ROOT
HETATM    1  C10 UNL     1      12.827  -4.956   0.156  1.00  0.00     0.100 C 
HETATM    2  C11 UNL     1      12.248  -4.044   1.218  1.00  0.00     0.076 C 
HETATM    3  C12 UNL     1      11.680  -5.085   2.156  1.00  0.00     0.155 C 
HETATM    4  O5  UNL     1      11.556  -6.261   1.495  1.00  0.00    -0.364 OA
HETATM    5  C26 UNL     1      11.814  -6.053   0.142  1.00  0.00     0.142 C 
HETATM    6  C27 UNL     1      10.528  -5.733  -0.522  1.00  0.00     0.047 C 
HETATM    7  C28 UNL     1       9.386  -6.617  -0.152  1.00  0.00     0.009 C 
HETATM    8  C29 UNL     1       9.731  -7.960   0.363  1.00  0.00     0.068 C 
HETATM    9  C30 UNL     1      10.929  -8.604  -0.245  1.00  0.00     0.166 C 
HETATM   10  C31 UNL     1      10.751 -10.091  -0.500  1.00  0.00     0.079 C 
HETATM   11  O6  UNL     1      11.435  -7.925  -1.341  1.00  0.00    -0.322 OA
HETATM   12  C32 UNL     1      12.362  -7.329  -0.481  1.00  0.00     0.304 C 
HETATM   13  O7  UNL     1      12.115  -8.373   0.406  1.00  0.00    -0.322 OA
ENDROOT
BRANCH   3  14
HETATM   14  C13 UNL     1      10.423  -4.606   2.835  1.00  0.00     0.158 C 
HETATM   15  C14 UNL     1      10.797  -3.946   4.132  1.00  0.00     0.041 C 
HETATM   16  C15 UNL     1      10.456  -4.977   5.171  1.00  0.00     0.067 C 
HETATM   17  C16 UNL     1       9.358  -5.722   4.534  1.00  0.00     0.043 C 
HETATM   18  C17 UNL     1       8.326  -6.290   5.088  1.00  0.00     0.005 C 
HETATM   19  O4  UNL     1       9.639  -5.709   3.164  1.00  0.00    -0.348 OA
BRANCH  18  20
HETATM   20  C18 UNL     1       8.081  -6.269   6.556  1.00  0.00     0.029 C 
BRANCH  20  21
HETATM   21  C19 UNL     1       6.883  -5.417   6.875  1.00  0.00     0.004 C 
BRANCH  21  22
HETATM   22  C20 UNL     1       7.262  -3.989   7.204  1.00  0.00     0.005 C 
BRANCH  22  23
HETATM   23  C21 UNL     1       8.485  -3.909   8.057  1.00  0.00     0.034 C 
BRANCH  23  24
HETATM   24  C22 UNL     1       9.384  -2.786   7.619  1.00  0.00    -0.077 C 
HETATM   25  C23 UNL     1      10.771  -2.783   8.118  1.00  0.00     0.043 C 
HETATM   26  C24 UNL     1       8.951  -1.836   6.818  1.00  0.00     0.086 C 
BRANCH  26  27
HETATM   27  C25 UNL     1       9.766  -0.734   6.365  1.00  0.00     0.198 C 
HETATM   28  O2  UNL     1      10.192  -0.727   5.162  1.00  0.00    -0.644 OA
HETATM   29  O3  UNL     1      10.136   0.343   7.143  1.00  0.00    -0.644 OA
ENDBRANCH  26  27
ENDBRANCH  23  24
ENDBRANCH  22  23
ENDBRANCH  21  22
ENDBRANCH  20  21
ENDBRANCH  18  20
ENDBRANCH   3  14
BRANCH   1  30
HETATM   30  C8  UNL     1      13.039  -4.215  -1.075  1.00  0.00     0.023 C 
HETATM   31  C9  UNL     1      13.505  -4.950  -2.289  1.00  0.00     0.013 C 
BRANCH  30  32
HETATM   32  C7  UNL     1      13.964  -3.047  -0.859  1.00  0.00     0.035 C 
BRANCH  32  33
HETATM   33  C6  UNL     1      14.280  -2.259  -2.059  1.00  0.00    -0.019 C 
HETATM   34  C4  UNL     1      15.518  -2.135  -2.476  1.00  0.00    -0.061 C 
HETATM   35  C5  UNL     1      16.600  -2.804  -1.749  1.00  0.00     0.048 C 
BRANCH  34  36
HETATM   36  C2  UNL     1      15.782  -1.351  -3.656  1.00  0.00    -0.066 C 
HETATM   37  C1  UNL     1      15.452  -1.721  -4.853  1.00  0.00     0.019 C 
HETATM   38  C3  UNL     1      16.485  -0.017  -3.523  1.00  0.00     0.048 C 
ENDBRANCH  34  36
ENDBRANCH  32  33
ENDBRANCH  30  32
ENDBRANCH   1  30
BRANCH   1  39
HETATM   39  O1  UNL     1      13.973  -5.501   0.728  1.00  0.00    -0.386 OA
ATOM     40  H1  UNL     1      14.072  -6.441   0.624  1.00  0.00     0.210 HD
ENDBRANCH   1  39
TORSDOF 12
ENDMDL
