MODEL 1
REMARK VINA RESULT: -8.060646668      0.000      0.000
REMARK  14 active torsions:
REMARK  status: ('A' for Active; 'I' for Inactive)
REMARK    1  A    between atoms: C3_3  and  C4_4 
REMARK    2  A    between atoms: C4_4  and  C5_6 
REMARK    3  A    between atoms: C5_6  and  C6_7 
REMARK    4  A    between atoms: C6_7  and  C7_8 
REMARK    5  A    between atoms: C7_8  and  C8_10 
REMARK    6  A    between atoms: C8_10  and  O3_11 
REMARK    7  A    between atoms: C19_23  and  O4_24 
REMARK    8  A    between atoms: C23_29  and  C24_30 
REMARK    9  A    between atoms: C24_30  and  C26_32 
REMARK   10  A    between atoms: C26_32  and  C27_33 
REMARK   11  A    between atoms: C27_33  and  C28_34 
REMARK   12  A    between atoms: C28_34  and  O6_36 
REMARK   13  A    between atoms: O6_36  and  C29_37 
REMARK   14  A    between atoms: C29_37  and  C30_38 
ROOT
HETATM    1  C8  UNL     1      14.333  -1.003  -1.470  1.00  0.00     0.122 C 
HETATM    2  C9  UNL     1      13.981  -1.854  -2.653  1.00  0.00     0.047 C 
HETATM    3  C10 UNL     1      13.979  -3.330  -2.441  1.00  0.00     0.009 C 
HETATM    4  C11 UNL     1      13.105  -3.644  -1.293  1.00  0.00    -0.001 C 
HETATM    5  C12 UNL     1      13.728  -2.988  -0.051  1.00  0.00    -0.002 C 
HETATM    6  C13 UNL     1      14.960  -3.721   0.285  1.00  0.00     0.006 C 
HETATM    7  C14 UNL     1      14.493  -5.118   0.792  1.00  0.00     0.007 C 
HETATM    8  C15 UNL     1      13.972  -5.761  -0.436  1.00  0.00     0.004 C 
HETATM    9  C16 UNL     1      13.594  -7.173  -0.391  1.00  0.00    -0.017 C 
HETATM   10  C17 UNL     1      14.873  -8.008  -0.564  1.00  0.00     0.018 C 
HETATM   11  C18 UNL     1      12.950  -7.644   0.873  1.00  0.00     0.018 C 
HETATM   12  C19 UNL     1      12.698  -7.336  -1.611  1.00  0.00     0.127 C 
HETATM   13  C20 UNL     1      12.437  -5.922  -2.144  1.00  0.00     0.042 C 
HETATM   14  C21 UNL     1      12.771  -5.035  -0.991  1.00  0.00    -0.033 C 
HETATM   15  C22 UNL     1      11.590  -5.062  -0.042  1.00  0.00     0.016 C 
HETATM   16  C23 UNL     1      13.757  -1.510  -0.191  1.00  0.00     0.036 C 
ENDROOT
BRANCH  16  17
HETATM   17  C24 UNL     1      14.257  -0.855   1.063  1.00  0.00    -0.010 C 
HETATM   18  C25 UNL     1      13.629  -1.696   2.194  1.00  0.00     0.010 C 
BRANCH  17  19
HETATM   19  C26 UNL     1      13.741   0.528   1.274  1.00  0.00     0.014 C 
BRANCH  19  20
HETATM   20  C27 UNL     1      13.739   0.879   2.736  1.00  0.00     0.111 C 
BRANCH  20  21
HETATM   21  C28 UNL     1      12.617   1.812   3.069  1.00  0.00     0.259 C 
HETATM   22  O5  UNL     1      12.906   3.010   3.311  1.00  0.00    -0.265 OA
BRANCH  21  23
HETATM   23  O6  UNL     1      11.305   1.415   3.119  1.00  0.00    -0.318 OA
BRANCH  23  24
HETATM   24  C29 UNL     1      10.746   0.909   4.312  1.00  0.00     0.206 C 
BRANCH  24  25
HETATM   25  C30 UNL     1      10.733  -0.568   4.391  1.00  0.00     0.002 C 
HETATM   26  C31 UNL     1      10.192  -1.164   5.433  1.00  0.00    -0.089 C 
HETATM   27  C32 UNL     1       9.600  -0.356   6.518  1.00  0.00     0.042 C 
HETATM   28  C33 UNL     1      10.145  -2.653   5.578  1.00  0.00     0.042 C 
ENDBRANCH  24  25
ENDBRANCH  23  24
ENDBRANCH  21  23
ENDBRANCH  20  21
ENDBRANCH  19  20
ENDBRANCH  17  19
ENDBRANCH  16  17
BRANCH   1  29
HETATM   29  C7  UNL     1      15.761  -0.699  -1.512  1.00  0.00     0.161 C 
HETATM   30  O2  UNL     1      16.646  -1.514  -1.740  1.00  0.00    -0.295 OA
BRANCH  29  31
HETATM   31  C6  UNL     1      16.290   0.680  -1.275  1.00  0.00     0.089 C 
BRANCH  31  32
HETATM   32  C5  UNL     1      17.707   0.866  -1.740  1.00  0.00     0.090 C 
BRANCH  32  33
HETATM   33  C4  UNL     1      17.636   1.642  -3.029  1.00  0.00     0.149 C 
HETATM   34  O1  UNL     1      17.424   2.875  -2.943  1.00  0.00    -0.293 OA
BRANCH  33  35
HETATM   35  C3  UNL     1      17.802   1.021  -4.309  1.00  0.00     0.045 C 
HETATM   36  C2  UNL     1      16.820   0.706  -5.100  1.00  0.00    -0.027 C 
HETATM   37  C1  UNL     1      15.397   0.947  -4.783  1.00  0.00     0.036 C 
ENDBRANCH  33  35
ENDBRANCH  32  33
ENDBRANCH  31  32
ENDBRANCH  29  31
ENDBRANCH   1  29
BRANCH   1  38
HETATM   38  O3  UNL     1      13.667   0.223  -1.771  1.00  0.00    -0.382 OA
ATOM     39  H3  UNL     1      12.742   0.009  -1.815  1.00  0.00     0.211 HD
ENDBRANCH   1  38
BRANCH  12  40
HETATM   40  O4  UNL     1      11.538  -8.017  -1.329  1.00  0.00    -0.395 OA
ATOM     41  H4  UNL     1      10.765  -7.471  -1.406  1.00  0.00     0.210 HD
ENDBRANCH  12  40
TORSDOF 14
ENDMDL
MODEL 2
REMARK VINA RESULT: -7.837736482      2.478      6.914
REMARK  14 active torsions:
REMARK  status: ('A' for Active; 'I' for Inactive)
REMARK    1  A    between atoms: C3_3  and  C4_4 
REMARK    2  A    between atoms: C4_4  and  C5_6 
REMARK    3  A    between atoms: C5_6  and  C6_7 
REMARK    4  A    between atoms: C6_7  and  C7_8 
REMARK    5  A    between atoms: C7_8  and  C8_10 
REMARK    6  A    between atoms: C8_10  and  O3_11 
REMARK    7  A    between atoms: C19_23  and  O4_24 
REMARK    8  A    between atoms: C23_29  and  C24_30 
REMARK    9  A    between atoms: C24_30  and  C26_32 
REMARK   10  A    between atoms: C26_32  and  C27_33 
REMARK   11  A    between atoms: C27_33  and  C28_34 
REMARK   12  A    between atoms: C28_34  and  O6_36 
REMARK   13  A    between atoms: O6_36  and  C29_37 
REMARK   14  A    between atoms: C29_37  and  C30_38 
ROOT
HETATM    1  C8  UNL     1      14.653  -4.729   0.451  1.00  0.00     0.122 C 
HETATM    2  C9  UNL     1      15.991  -4.568  -0.208  1.00  0.00     0.047 C 
HETATM    3  C10 UNL     1      16.083  -3.560  -1.302  1.00  0.00     0.009 C 
HETATM    4  C11 UNL     1      15.590  -2.263  -0.797  1.00  0.00    -0.001 C 
HETATM    5  C12 UNL     1      14.106  -2.444  -0.443  1.00  0.00    -0.002 C 
HETATM    6  C13 UNL     1      13.351  -2.597  -1.699  1.00  0.00     0.006 C 
HETATM    7  C14 UNL     1      13.405  -1.204  -2.394  1.00  0.00     0.007 C 
HETATM    8  C15 UNL     1      14.825  -1.087  -2.796  1.00  0.00     0.004 C 
HETATM    9  C16 UNL     1      15.232   0.034  -3.643  1.00  0.00    -0.017 C 
HETATM   10  C17 UNL     1      14.906  -0.334  -5.100  1.00  0.00     0.018 C 
HETATM   11  C18 UNL     1      14.556   1.341  -3.378  1.00  0.00     0.018 C 
HETATM   12  C19 UNL     1      16.740   0.094  -3.447  1.00  0.00     0.127 C 
HETATM   13  C20 UNL     1      17.061  -0.870  -2.298  1.00  0.00     0.042 C 
HETATM   14  C21 UNL     1      15.752  -1.057  -1.607  1.00  0.00    -0.033 C 
HETATM   15  C22 UNL     1      15.527   0.158  -0.729  1.00  0.00     0.016 C 
HETATM   16  C23 UNL     1      13.939  -3.435   0.650  1.00  0.00     0.036 C 
ENDROOT
BRANCH  16  17
HETATM   17  C24 UNL     1      12.504  -3.533   1.080  1.00  0.00    -0.010 C 
HETATM   18  C25 UNL     1      12.293  -2.277   1.950  1.00  0.00     0.010 C 
BRANCH  17  19
HETATM   19  C26 UNL     1      12.218  -4.685   1.984  1.00  0.00     0.014 C 
BRANCH  19  20
HETATM   20  C27 UNL     1      10.751  -5.012   1.983  1.00  0.00     0.111 C 
BRANCH  20  21
HETATM   21  C28 UNL     1      10.253  -5.284   3.367  1.00  0.00     0.259 C 
HETATM   22  O5  UNL     1       9.171  -5.910   3.487  1.00  0.00    -0.265 OA
BRANCH  21  23
HETATM   23  O6  UNL     1      10.924  -4.882   4.495  1.00  0.00    -0.318 OA
BRANCH  23  24
HETATM   24  C29 UNL     1      10.314  -4.023   5.434  1.00  0.00     0.206 C 
BRANCH  24  25
HETATM   25  C30 UNL     1      10.544  -2.586   5.173  1.00  0.00     0.002 C 
HETATM   26  C31 UNL     1       9.816  -1.682   5.795  1.00  0.00    -0.089 C 
HETATM   27  C32 UNL     1       8.775  -2.107   6.751  1.00  0.00     0.042 C 
HETATM   28  C33 UNL     1       9.994  -0.212   5.578  1.00  0.00     0.042 C 
ENDBRANCH  24  25
ENDBRANCH  23  24
ENDBRANCH  21  23
ENDBRANCH  20  21
ENDBRANCH  19  20
ENDBRANCH  17  19
ENDBRANCH  16  17
BRANCH   1  29
HETATM   29  C7  UNL     1      13.933  -5.823  -0.196  1.00  0.00     0.161 C 
HETATM   30  O2  UNL     1      13.848  -6.963   0.242  1.00  0.00    -0.295 OA
BRANCH  29  31
HETATM   31  C6  UNL     1      13.209  -5.645  -1.492  1.00  0.00     0.089 C 
BRANCH  31  32
HETATM   32  C5  UNL     1      12.245  -6.757  -1.798  1.00  0.00     0.090 C 
BRANCH  32  33
HETATM   33  C4  UNL     1      10.894  -6.115  -1.977  1.00  0.00     0.149 C 
HETATM   34  O1  UNL     1      10.796  -4.899  -1.690  1.00  0.00    -0.293 OA
BRANCH  33  35
HETATM   35  C3  UNL     1       9.756  -6.843  -2.454  1.00  0.00     0.045 C 
HETATM   36  C2  UNL     1       8.871  -7.401  -1.682  1.00  0.00    -0.027 C 
HETATM   37  C1  UNL     1       8.922  -7.361  -0.206  1.00  0.00     0.036 C 
ENDBRANCH  33  35
ENDBRANCH  32  33
ENDBRANCH  31  32
ENDBRANCH  29  31
ENDBRANCH   1  29
BRANCH   1  38
HETATM   38  O3  UNL     1      15.010  -5.213   1.745  1.00  0.00    -0.382 OA
ATOM     39  H3  UNL     1      14.217  -5.164   2.267  1.00  0.00     0.211 HD
ENDBRANCH   1  38
BRANCH  12  40
HETATM   40  O4  UNL     1      17.193   1.369  -3.209  1.00  0.00    -0.395 OA
ATOM     41  H4  UNL     1      18.140   1.430  -3.227  1.00  0.00     0.210 HD
ENDBRANCH  12  40
TORSDOF 14
ENDMDL
MODEL 3
REMARK VINA RESULT: -7.789305400      0.791      1.261
REMARK  14 active torsions:
REMARK  status: ('A' for Active; 'I' for Inactive)
REMARK    1  A    between atoms: C3_3  and  C4_4 
REMARK    2  A    between atoms: C4_4  and  C5_6 
REMARK    3  A    between atoms: C5_6  and  C6_7 
REMARK    4  A    between atoms: C6_7  and  C7_8 
REMARK    5  A    between atoms: C7_8  and  C8_10 
REMARK    6  A    between atoms: C8_10  and  O3_11 
REMARK    7  A    between atoms: C19_23  and  O4_24 
REMARK    8  A    between atoms: C23_29  and  C24_30 
REMARK    9  A    between atoms: C24_30  and  C26_32 
REMARK   10  A    between atoms: C26_32  and  C27_33 
REMARK   11  A    between atoms: C27_33  and  C28_34 
REMARK   12  A    between atoms: C28_34  and  O6_36 
REMARK   13  A    between atoms: O6_36  and  C29_37 
REMARK   14  A    between atoms: C29_37  and  C30_38 
ROOT
HETATM    1  C8  UNL     1      14.359  -1.032  -1.493  1.00  0.00     0.122 C 
HETATM    2  C9  UNL     1      13.997  -1.885  -2.672  1.00  0.00     0.047 C 
HETATM    3  C10 UNL     1      13.986  -3.360  -2.455  1.00  0.00     0.009 C 
HETATM    4  C11 UNL     1      13.113  -3.664  -1.303  1.00  0.00    -0.001 C 
HETATM    5  C12 UNL     1      13.745  -3.007  -0.065  1.00  0.00    -0.002 C 
HETATM    6  C13 UNL     1      14.974  -3.747   0.270  1.00  0.00     0.006 C 
HETATM    7  C14 UNL     1      14.499  -5.138   0.784  1.00  0.00     0.007 C 
HETATM    8  C15 UNL     1      13.969  -5.782  -0.439  1.00  0.00     0.004 C 
HETATM    9  C16 UNL     1      13.582  -7.192  -0.388  1.00  0.00    -0.017 C 
HETATM   10  C17 UNL     1      14.855  -8.037  -0.562  1.00  0.00     0.018 C 
HETATM   11  C18 UNL     1      12.940  -7.654   0.880  1.00  0.00     0.018 C 
HETATM   12  C19 UNL     1      12.681  -7.354  -1.604  1.00  0.00     0.127 C 
HETATM   13  C20 UNL     1      12.427  -5.940  -2.142  1.00  0.00     0.042 C 
HETATM   14  C21 UNL     1      12.771  -5.051  -0.993  1.00  0.00    -0.033 C 
HETATM   15  C22 UNL     1      11.593  -5.067  -0.040  1.00  0.00     0.016 C 
HETATM   16  C23 UNL     1      13.783  -1.529  -0.211  1.00  0.00     0.036 C 
ENDROOT
BRANCH  16  17
HETATM   17  C24 UNL     1      14.293  -0.873   1.039  1.00  0.00    -0.010 C 
HETATM   18  C25 UNL     1      13.696  -1.730   2.175  1.00  0.00     0.010 C 
BRANCH  17  19
HETATM   19  C26 UNL     1      13.757   0.501   1.265  1.00  0.00     0.014 C 
BRANCH  19  20
HETATM   20  C27 UNL     1      13.718   0.822   2.733  1.00  0.00     0.111 C 
BRANCH  20  21
HETATM   21  C28 UNL     1      12.621   1.789   3.049  1.00  0.00     0.259 C 
HETATM   22  O5  UNL     1      12.938   2.988   3.248  1.00  0.00    -0.265 OA
BRANCH  21  23
HETATM   23  O6  UNL     1      11.301   1.422   3.127  1.00  0.00    -0.318 OA
BRANCH  23  24
HETATM   24  C29 UNL     1      10.761   0.912   4.326  1.00  0.00     0.206 C 
BRANCH  24  25
HETATM   25  C30 UNL     1      10.734  -0.565   4.393  1.00  0.00     0.002 C 
HETATM   26  C31 UNL     1      10.185  -1.165   5.429  1.00  0.00    -0.089 C 
HETATM   27  C32 UNL     1       9.600  -0.360   6.520  1.00  0.00     0.042 C 
HETATM   28  C33 UNL     1      10.124  -2.655   5.562  1.00  0.00     0.042 C 
ENDBRANCH  24  25
ENDBRANCH  23  24
ENDBRANCH  21  23
ENDBRANCH  20  21
ENDBRANCH  19  20
ENDBRANCH  17  19
ENDBRANCH  16  17
BRANCH   1  29
HETATM   29  C7  UNL     1      15.789  -0.737  -1.541  1.00  0.00     0.161 C 
HETATM   30  O2  UNL     1      16.668  -1.562  -1.752  1.00  0.00    -0.295 OA
BRANCH  29  31
HETATM   31  C6  UNL     1      16.326   0.643  -1.335  1.00  0.00     0.089 C 
BRANCH  31  32
HETATM   32  C5  UNL     1      17.083   1.175  -2.520  1.00  0.00     0.090 C 
BRANCH  32  33
HETATM   33  C4  UNL     1      18.320   1.839  -1.975  1.00  0.00     0.149 C 
HETATM   34  O1  UNL     1      18.247   3.064  -1.721  1.00  0.00    -0.293 OA
BRANCH  33  35
HETATM   35  C3  UNL     1      19.538   1.121  -1.747  1.00  0.00     0.045 C 
HETATM   36  C2  UNL     1      20.517   1.056  -2.599  1.00  0.00    -0.027 C 
HETATM   37  C1  UNL     1      20.504   1.714  -3.922  1.00  0.00     0.036 C 
ENDBRANCH  33  35
ENDBRANCH  32  33
ENDBRANCH  31  32
ENDBRANCH  29  31
ENDBRANCH   1  29
BRANCH   1  38
HETATM   38  O3  UNL     1      13.700   0.197  -1.798  1.00  0.00    -0.382 OA
ATOM     39  H3  UNL     1      12.774   0.035  -1.658  1.00  0.00     0.211 HD
ENDBRANCH   1  38
BRANCH  12  40
HETATM   40  O4  UNL     1      11.518  -8.026  -1.316  1.00  0.00    -0.395 OA
ATOM     41  H4  UNL     1      11.000  -8.210  -2.090  1.00  0.00     0.210 HD
ENDBRANCH  12  40
TORSDOF 14
ENDMDL
MODEL 4
REMARK VINA RESULT: -7.348407607      4.515     10.182
REMARK  14 active torsions:
REMARK  status: ('A' for Active; 'I' for Inactive)
REMARK    1  A    between atoms: C3_3  and  C4_4 
REMARK    2  A    between atoms: C4_4  and  C5_6 
REMARK    3  A    between atoms: C5_6  and  C6_7 
REMARK    4  A    between atoms: C6_7  and  C7_8 
REMARK    5  A    between atoms: C7_8  and  C8_10 
REMARK    6  A    between atoms: C8_10  and  O3_11 
REMARK    7  A    between atoms: C19_23  and  O4_24 
REMARK    8  A    between atoms: C23_29  and  C24_30 
REMARK    9  A    between atoms: C24_30  and  C26_32 
REMARK   10  A    between atoms: C26_32  and  C27_33 
REMARK   11  A    between atoms: C27_33  and  C28_34 
REMARK   12  A    between atoms: C28_34  and  O6_36 
REMARK   13  A    between atoms: O6_36  and  C29_37 
REMARK   14  A    between atoms: C29_37  and  C30_38 
ROOT
HETATM    1  C8  UNL     1       9.365  -2.490   6.975  1.00  0.00     0.122 C 
HETATM    2  C9  UNL     1       8.948  -3.766   7.643  1.00  0.00     0.047 C 
HETATM    3  C10 UNL     1       9.897  -4.345   8.636  1.00  0.00     0.009 C 
HETATM    4  C11 UNL     1      10.223  -3.313   9.640  1.00  0.00    -0.001 C 
HETATM    5  C12 UNL     1      10.944  -2.172   8.905  1.00  0.00    -0.002 C 
HETATM    6  C13 UNL     1      12.278  -2.653   8.507  1.00  0.00     0.006 C 
HETATM    7  C14 UNL     1      13.080  -2.812   9.833  1.00  0.00     0.007 C 
HETATM    8  C15 UNL     1      12.420  -3.965  10.486  1.00  0.00     0.004 C 
HETATM    9  C16 UNL     1      13.015  -4.531  11.697  1.00  0.00    -0.017 C 
HETATM   10  C17 UNL     1      14.139  -5.488  11.266  1.00  0.00     0.018 C 
HETATM   11  C18 UNL     1      13.633  -3.556  12.646  1.00  0.00     0.018 C 
HETATM   12  C19 UNL     1      11.870  -5.320  12.316  1.00  0.00     0.127 C 
HETATM   13  C20 UNL     1      10.613  -4.949  11.519  1.00  0.00     0.042 C 
HETATM   14  C21 UNL     1      10.982  -3.674  10.837  1.00  0.00    -0.033 C 
HETATM   15  C22 UNL     1      10.850  -2.561  11.857  1.00  0.00     0.016 C 
HETATM   16  C23 UNL     1      10.051  -1.542   7.900  1.00  0.00     0.036 C 
ENDROOT
BRANCH  16  17
HETATM   17  C24 UNL     1      10.707  -0.354   7.258  1.00  0.00    -0.010 C 
HETATM   18  C25 UNL     1      10.803   0.676   8.402  1.00  0.00     0.010 C 
BRANCH  17  19
HETATM   19  C26 UNL     1       9.877   0.305   6.209  1.00  0.00     0.014 C 
BRANCH  19  20
HETATM   20  C27 UNL     1      10.603   1.481   5.616  1.00  0.00     0.111 C 
BRANCH  20  21
HETATM   21  C28 UNL     1      10.451   1.519   4.128  1.00  0.00     0.259 C 
HETATM   22  O5  UNL     1       9.311   1.767   3.663  1.00  0.00    -0.265 OA
BRANCH  21  23
HETATM   23  O6  UNL     1      11.494   1.298   3.264  1.00  0.00    -0.318 OA
BRANCH  23  24
HETATM   24  C29 UNL     1      12.236   0.098   3.316  1.00  0.00     0.206 C 
BRANCH  24  25
HETATM   25  C30 UNL     1      13.184  -0.072   2.194  1.00  0.00     0.002 C 
HETATM   26  C31 UNL     1      13.401  -1.272   1.696  1.00  0.00    -0.089 C 
HETATM   27  C32 UNL     1      12.697  -2.441   2.258  1.00  0.00     0.042 C 
HETATM   28  C33 UNL     1      14.348  -1.516   0.562  1.00  0.00     0.042 C 
ENDBRANCH  24  25
ENDBRANCH  23  24
ENDBRANCH  21  23
ENDBRANCH  20  21
ENDBRANCH  19  20
ENDBRANCH  17  19
ENDBRANCH  16  17
BRANCH   1  29
HETATM   29  C7  UNL     1      10.013  -2.808   5.706  1.00  0.00     0.161 C 
HETATM   30  O2  UNL     1      10.076  -2.056   4.741  1.00  0.00    -0.295 OA
BRANCH  29  31
HETATM   31  C6  UNL     1      10.684  -4.122   5.461  1.00  0.00     0.089 C 
BRANCH  31  32
HETATM   32  C5  UNL     1      10.374  -4.711   4.112  1.00  0.00     0.090 C 
BRANCH  32  33
HETATM   33  C4  UNL     1       9.567  -5.958   4.364  1.00  0.00     0.149 C 
HETATM   34  O1  UNL     1       8.411  -5.807   4.825  1.00  0.00    -0.293 OA
BRANCH  33  35
HETATM   35  C3  UNL     1      10.077  -7.268   4.095  1.00  0.00     0.045 C 
HETATM   36  C2  UNL     1      10.131  -7.802   2.911  1.00  0.00    -0.027 C 
HETATM   37  C1  UNL     1       9.671  -7.125   1.681  1.00  0.00     0.036 C 
ENDBRANCH  33  35
ENDBRANCH  32  33
ENDBRANCH  31  32
ENDBRANCH  29  31
ENDBRANCH   1  29
BRANCH   1  38
HETATM   38  O3  UNL     1       8.109  -1.905   6.633  1.00  0.00    -0.382 OA
ATOM     39  H3  UNL     1       7.655  -1.769   7.456  1.00  0.00     0.211 HD
ENDBRANCH   1  38
BRANCH  12  40
HETATM   40  O4  UNL     1      11.730  -5.082  13.662  1.00  0.00    -0.395 OA
ATOM     41  H4  UNL     1      11.886  -5.857  14.189  1.00  0.00     0.210 HD
ENDBRANCH  12  40
TORSDOF 14
ENDMDL
MODEL 5
REMARK VINA RESULT: -7.332796469      2.845      7.112
REMARK  14 active torsions:
REMARK  status: ('A' for Active; 'I' for Inactive)
REMARK    1  A    between atoms: C3_3  and  C4_4 
REMARK    2  A    between atoms: C4_4  and  C5_6 
REMARK    3  A    between atoms: C5_6  and  C6_7 
REMARK    4  A    between atoms: C6_7  and  C7_8 
REMARK    5  A    between atoms: C7_8  and  C8_10 
REMARK    6  A    between atoms: C8_10  and  O3_11 
REMARK    7  A    between atoms: C19_23  and  O4_24 
REMARK    8  A    between atoms: C23_29  and  C24_30 
REMARK    9  A    between atoms: C24_30  and  C26_32 
REMARK   10  A    between atoms: C26_32  and  C27_33 
REMARK   11  A    between atoms: C27_33  and  C28_34 
REMARK   12  A    between atoms: C28_34  and  O6_36 
REMARK   13  A    between atoms: O6_36  and  C29_37 
REMARK   14  A    between atoms: C29_37  and  C30_38 
ROOT
HETATM    1  C8  UNL     1      12.258  -7.320   0.173  1.00  0.00     0.122 C 
HETATM    2  C9  UNL     1      13.634  -7.515  -0.390  1.00  0.00     0.047 C 
HETATM    3  C10 UNL     1      14.207  -6.381  -1.170  1.00  0.00     0.009 C 
HETATM    4  C11 UNL     1      14.149  -5.158  -0.344  1.00  0.00    -0.001 C 
HETATM    5  C12 UNL     1      12.665  -4.853  -0.083  1.00  0.00    -0.002 C 
HETATM    6  C13 UNL     1      12.060  -4.404  -1.348  1.00  0.00     0.006 C 
HETATM    7  C14 UNL     1      12.686  -3.007  -1.640  1.00  0.00     0.007 C 
HETATM    8  C15 UNL     1      14.092  -3.334  -1.967  1.00  0.00     0.004 C 
HETATM    9  C16 UNL     1      14.967  -2.276  -2.472  1.00  0.00    -0.017 C 
HETATM   10  C17 UNL     1      14.709  -2.130  -3.980  1.00  0.00     0.018 C 
HETATM   11  C18 UNL     1      14.771  -0.918  -1.878  1.00  0.00     0.018 C 
HETATM   12  C19 UNL     1      16.364  -2.832  -2.235  1.00  0.00     0.127 C 
HETATM   13  C20 UNL     1      16.185  -4.094  -1.382  1.00  0.00     0.042 C 
HETATM   14  C21 UNL     1      14.822  -3.941  -0.794  1.00  0.00    -0.033 C 
HETATM   15  C22 UNL     1      14.938  -2.982   0.373  1.00  0.00     0.016 C 
HETATM   16  C23 UNL     1      12.030  -5.944   0.699  1.00  0.00     0.036 C 
ENDROOT
BRANCH  16  17
HETATM   17  C24 UNL     1      10.613  -5.602   1.056  1.00  0.00    -0.010 C 
HETATM   18  C25 UNL     1      10.726  -4.217   1.728  1.00  0.00     0.010 C 
BRANCH  17  19
HETATM   19  C26 UNL     1      10.016  -6.490   2.096  1.00  0.00     0.014 C 
BRANCH  19  20
HETATM   20  C27 UNL     1       9.459  -5.681   3.233  1.00  0.00     0.111 C 
BRANCH  20  21
HETATM   21  C28 UNL     1      10.202  -5.948   4.504  1.00  0.00     0.259 C 
HETATM   22  O5  UNL     1      10.310  -7.141   4.879  1.00  0.00    -0.265 OA
BRANCH  21  23
HETATM   23  O6  UNL     1      10.762  -4.953   5.266  1.00  0.00    -0.318 OA
BRANCH  23  24
HETATM   24  C29 UNL     1       9.994  -3.851   5.697  1.00  0.00     0.206 C 
BRANCH  24  25
HETATM   25  C30 UNL     1      10.364  -2.571   5.055  1.00  0.00     0.002 C 
HETATM   26  C31 UNL     1       9.940  -1.434   5.567  1.00  0.00    -0.089 C 
HETATM   27  C32 UNL     1       9.097  -1.442   6.779  1.00  0.00     0.042 C 
HETATM   28  C33 UNL     1      10.276  -0.103   4.969  1.00  0.00     0.042 C 
ENDBRANCH  24  25
ENDBRANCH  23  24
ENDBRANCH  21  23
ENDBRANCH  20  21
ENDBRANCH  19  20
ENDBRANCH  17  19
ENDBRANCH  16  17
BRANCH   1  29
HETATM   29  C7  UNL     1      11.281  -7.875  -0.760  1.00  0.00     0.161 C 
HETATM   30  O2  UNL     1      10.881  -9.032  -0.753  1.00  0.00    -0.295 OA
BRANCH  29  31
HETATM   31  C6  UNL     1      10.656  -7.053  -1.843  1.00  0.00     0.089 C 
BRANCH  31  32
HETATM   32  C5  UNL     1       9.154  -7.040  -1.793  1.00  0.00     0.090 C 
BRANCH  32  33
HETATM   33  C4  UNL     1       8.708  -5.864  -2.623  1.00  0.00     0.149 C 
HETATM   34  O1  UNL     1       9.604  -5.176  -3.167  1.00  0.00    -0.293 OA
BRANCH  33  35
HETATM   35  C3  UNL     1       7.327  -5.528  -2.798  1.00  0.00     0.045 C 
HETATM   36  C2  UNL     1       6.889  -4.320  -2.992  1.00  0.00    -0.027 C 
HETATM   37  C1  UNL     1       7.760  -3.128  -3.056  1.00  0.00     0.036 C 
ENDBRANCH  33  35
ENDBRANCH  32  33
ENDBRANCH  31  32
ENDBRANCH  29  31
ENDBRANCH   1  29
BRANCH   1  38
HETATM   38  O3  UNL     1      12.265  -8.201   1.296  1.00  0.00    -0.382 OA
ATOM     39  H3  UNL     1      12.395  -9.072   0.939  1.00  0.00     0.211 HD
ENDBRANCH   1  38
BRANCH  12  40
HETATM   40  O4  UNL     1      17.207  -1.917  -1.653  1.00  0.00    -0.395 OA
ATOM     41  H4  UNL     1      17.814  -1.530  -2.273  1.00  0.00     0.210 HD
ENDBRANCH  12  40
TORSDOF 14
ENDMDL
