MODEL 1
REMARK VINA RESULT: -8.929077925      0.000      0.000
REMARK  15 active torsions:
REMARK  status: ('A' for Active; 'I' for Inactive)
REMARK    1  A    between atoms: C2_2  and  C3_3 
REMARK    2  A    between atoms: C6_6  and  O1_8 
REMARK    3  A    between atoms: C8_10  and  C9_11 
REMARK    4  A    between atoms: C10_12  and  C11_13 
REMARK    5  A    between atoms: C11_13  and  C12_14 
REMARK    6  A    between atoms: C12_14  and  C13_15 
REMARK    7  A    between atoms: C12_14  and  C21_23 
REMARK    8  A    between atoms: C13_15  and  C15_17 
REMARK    9  A    between atoms: C15_17  and  C16_18 
REMARK   10  A    between atoms: C17_19  and  C18_20 
REMARK   11  A    between atoms: C22_25  and  C23_26 
REMARK   12  A    between atoms: C23_26  and  C24_27 
REMARK   13  A    between atoms: C28_31  and  O3_32 
REMARK   14  A    between atoms: C31_37  and  C32_38 
REMARK   15  A    between atoms: C32_38  and  O6_40 
ROOT
HETATM    1  C12 UNL     1      11.328  -3.334   3.460  1.00  0.00     0.029 C 
ENDROOT
BRANCH   1   2
HETATM    2  C11 UNL     1      11.010  -4.797   3.740  1.00  0.00     0.035 C 
BRANCH   2   3
HETATM    3  C10 UNL     1      10.188  -5.425   2.669  1.00  0.00    -0.030 C 
HETATM    4  C9  UNL     1      10.752  -6.256   1.826  1.00  0.00    -0.022 C 
BRANCH   4   5
HETATM    5  C8  UNL     1       9.972  -6.920   0.726  1.00  0.00     0.056 C 
HETATM    6  C6  UNL     1      10.341  -8.346   0.558  1.00  0.00     0.062 C 
HETATM    7  C5  UNL     1      10.397  -8.885  -0.822  1.00  0.00     0.038 C 
HETATM    8  C7  UNL     1       9.362  -9.183   1.401  1.00  0.00     0.046 C 
HETATM    9  C4  UNL     1       9.650  -8.163  -1.873  1.00  0.00     0.008 C 
HETATM   10  C3  UNL     1       9.353  -6.724  -1.636  1.00  0.00    -0.001 C 
HETATM   11  C31 UNL     1      10.090  -6.067  -0.520  1.00  0.00     0.100 C 
BRANCH   6  12
HETATM   12  O1  UNL     1      11.600  -8.642   1.144  1.00  0.00    -0.390 OA
ATOM     13  H1  UNL     1      12.123  -7.854   1.051  1.00  0.00     0.210 HD
ENDBRANCH   6  12
BRANCH  10  14
HETATM   14  C2  UNL     1       9.295  -5.898  -2.892  1.00  0.00     0.001 C 
HETATM   15  C1  UNL     1       8.386  -4.726  -2.864  1.00  0.00     0.005 C 
ENDBRANCH  10  14
BRANCH  11  16
HETATM   16  C32 UNL     1      11.447  -5.611  -0.790  1.00  0.00     0.263 C 
HETATM   17  O5  UNL     1      11.639  -4.448  -1.304  1.00  0.00    -0.265 OA
BRANCH  16  18
HETATM   18  O6  UNL     1      12.598  -6.332  -0.535  1.00  0.00    -0.326 OA
HETATM   19  C33 UNL     1      13.263  -6.960  -1.609  1.00  0.00     0.213 C 
ENDBRANCH  16  18
ENDBRANCH  11  16
ENDBRANCH   4   5
ENDBRANCH   2   3
ENDBRANCH   1   2
BRANCH   1  20
HETATM   20  C13 UNL     1      12.528  -3.245   2.620  1.00  0.00    -0.008 C 
HETATM   21  C14 UNL     1      13.704  -2.529   3.221  1.00  0.00     0.011 C 
BRANCH  20  22
HETATM   22  C15 UNL     1      12.342  -2.785   1.201  1.00  0.00     0.031 C 
BRANCH  22  23
HETATM   23  C16 UNL     1      13.468  -1.865   0.796  1.00  0.00    -0.030 C 
HETATM   24  C17 UNL     1      14.465  -2.162   0.022  1.00  0.00    -0.027 C 
BRANCH  24  25
HETATM   25  C18 UNL     1      14.766  -3.434  -0.652  1.00  0.00    -0.001 C 
HETATM   26  C19 UNL     1      15.915  -3.159  -1.633  1.00  0.00     0.013 C 
HETATM   27  C20 UNL     1      15.317  -4.462   0.320  1.00  0.00     0.013 C 
ENDBRANCH  24  25
ENDBRANCH  22  23
ENDBRANCH  20  22
ENDBRANCH   1  20
BRANCH   1  28
HETATM   28  C21 UNL     1      11.169  -2.483   4.653  1.00  0.00     0.196 C 
HETATM   29  O2  UNL     1      10.417  -3.043   5.686  1.00  0.00    -0.370 OA
HETATM   30  C22 UNL     1      10.512  -2.135   6.742  1.00  0.00     0.155 C 
HETATM   31  C28 UNL     1       9.407  -1.131   6.533  1.00  0.00     0.154 C 
HETATM   32  C29 UNL     1       9.675  -0.431   5.216  1.00  0.00     0.115 C 
HETATM   33  C30 UNL     1      10.771  -1.076   4.444  1.00  0.00     0.158 C 
HETATM   34  O4  UNL     1      11.349  -0.403   3.617  1.00  0.00    -0.295 OA
BRANCH  30  35
HETATM   35  C23 UNL     1      10.441  -2.825   8.084  1.00  0.00     0.061 C 
BRANCH  35  36
HETATM   36  C24 UNL     1      11.782  -2.748   8.718  1.00  0.00    -0.022 C 
HETATM   37  C25 UNL     1      11.953  -2.974  10.013  1.00  0.00    -0.091 C 
HETATM   38  C26 UNL     1      13.316  -2.886  10.615  1.00  0.00     0.042 C 
HETATM   39  C27 UNL     1      10.821  -3.320  10.911  1.00  0.00     0.042 C 
ENDBRANCH  35  36
ENDBRANCH  30  35
BRANCH  31  40
HETATM   40  O3  UNL     1       8.152  -1.780   6.492  1.00  0.00    -0.393 OA
ATOM     41  H3  UNL     1       7.588  -1.370   5.846  1.00  0.00     0.210 HD
ENDBRANCH  31  40
ENDBRANCH   1  28
TORSDOF 15
ENDMDL
MODEL 2
REMARK VINA RESULT: -8.736708113      1.142      1.580
REMARK  15 active torsions:
REMARK  status: ('A' for Active; 'I' for Inactive)
REMARK    1  A    between atoms: C2_2  and  C3_3 
REMARK    2  A    between atoms: C6_6  and  O1_8 
REMARK    3  A    between atoms: C8_10  and  C9_11 
REMARK    4  A    between atoms: C10_12  and  C11_13 
REMARK    5  A    between atoms: C11_13  and  C12_14 
REMARK    6  A    between atoms: C12_14  and  C13_15 
REMARK    7  A    between atoms: C12_14  and  C21_23 
REMARK    8  A    between atoms: C13_15  and  C15_17 
REMARK    9  A    between atoms: C15_17  and  C16_18 
REMARK   10  A    between atoms: C17_19  and  C18_20 
REMARK   11  A    between atoms: C22_25  and  C23_26 
REMARK   12  A    between atoms: C23_26  and  C24_27 
REMARK   13  A    between atoms: C28_31  and  O3_32 
REMARK   14  A    between atoms: C31_37  and  C32_38 
REMARK   15  A    between atoms: C32_38  and  O6_40 
ROOT
HETATM    1  C12 UNL     1      11.172  -2.821   3.492  1.00  0.00     0.029 C 
ENDROOT
BRANCH   1   2
HETATM    2  C11 UNL     1      11.209  -4.340   3.592  1.00  0.00     0.035 C 
BRANCH   2   3
HETATM    3  C10 UNL     1      10.399  -5.009   2.535  1.00  0.00    -0.030 C 
HETATM    4  C9  UNL     1      10.915  -6.011   1.865  1.00  0.00    -0.022 C 
BRANCH   4   5
HETATM    5  C8  UNL     1      10.145  -6.723   0.789  1.00  0.00     0.056 C 
HETATM    6  C6  UNL     1      10.485  -8.164   0.715  1.00  0.00     0.062 C 
HETATM    7  C5  UNL     1      10.560  -8.787  -0.628  1.00  0.00     0.038 C 
HETATM    8  C7  UNL     1       9.469  -8.928   1.584  1.00  0.00     0.046 C 
HETATM    9  C4  UNL     1       9.852  -8.115  -1.738  1.00  0.00     0.008 C 
HETATM   10  C3  UNL     1       9.583  -6.658  -1.594  1.00  0.00    -0.001 C 
HETATM   11  C31 UNL     1      10.309  -5.951  -0.504  1.00  0.00     0.100 C 
BRANCH   6  12
HETATM   12  O1  UNL     1      11.724  -8.451   1.347  1.00  0.00    -0.390 OA
ATOM     13  H1  UNL     1      11.978  -7.654   1.797  1.00  0.00     0.210 HD
ENDBRANCH   6  12
BRANCH  10  14
HETATM   14  C2  UNL     1       9.570  -5.908  -2.899  1.00  0.00     0.001 C 
HETATM   15  C1  UNL     1       8.732  -4.685  -2.944  1.00  0.00     0.005 C 
ENDBRANCH  10  14
BRANCH  11  16
HETATM   16  C32 UNL     1      11.681  -5.540  -0.768  1.00  0.00     0.263 C 
HETATM   17  O5  UNL     1      11.963  -4.290  -0.879  1.00  0.00    -0.265 OA
BRANCH  16  18
HETATM   18  O6  UNL     1      12.757  -6.394  -0.916  1.00  0.00    -0.326 OA
HETATM   19  C33 UNL     1      13.952  -6.118  -0.217  1.00  0.00     0.213 C 
ENDBRANCH  16  18
ENDBRANCH  11  16
ENDBRANCH   4   5
ENDBRANCH   2   3
ENDBRANCH   1   2
BRANCH   1  20
HETATM   20  C13 UNL     1      12.225  -2.363   2.580  1.00  0.00    -0.008 C 
HETATM   21  C14 UNL     1      13.387  -3.297   2.388  1.00  0.00     0.011 C 
BRANCH  20  22
HETATM   22  C15 UNL     1      12.743  -0.965   2.772  1.00  0.00     0.031 C 
BRANCH  22  23
HETATM   23  C16 UNL     1      14.223  -0.909   2.485  1.00  0.00    -0.030 C 
HETATM   24  C17 UNL     1      14.804  -0.201   1.566  1.00  0.00    -0.027 C 
BRANCH  24  25
HETATM   25  C18 UNL     1      14.202   0.710   0.582  1.00  0.00    -0.001 C 
HETATM   26  C19 UNL     1      15.255   1.780   0.260  1.00  0.00     0.013 C 
HETATM   27  C20 UNL     1      13.938   0.009  -0.739  1.00  0.00     0.013 C 
ENDBRANCH  24  25
ENDBRANCH  22  23
ENDBRANCH  20  22
ENDBRANCH   1  20
BRANCH   1  28
HETATM   28  C21 UNL     1      10.964  -2.175   4.800  1.00  0.00     0.196 C 
HETATM   29  O2  UNL     1      10.375  -2.981   5.774  1.00  0.00    -0.370 OA
HETATM   30  C22 UNL     1      10.399  -2.220   6.944  1.00  0.00     0.155 C 
HETATM   31  C28 UNL     1       9.144  -1.386   6.930  1.00  0.00     0.154 C 
HETATM   32  C29 UNL     1       9.216  -0.482   5.716  1.00  0.00     0.115 C 
HETATM   33  C30 UNL     1      10.344  -0.834   4.813  1.00  0.00     0.158 C 
HETATM   34  O4  UNL     1      10.758   0.027   4.066  1.00  0.00    -0.295 OA
BRANCH  30  35
HETATM   35  C23 UNL     1      10.522  -3.086   8.176  1.00  0.00     0.061 C 
BRANCH  35  36
HETATM   36  C24 UNL     1      11.861  -2.854   8.776  1.00  0.00    -0.022 C 
HETATM   37  C25 UNL     1      12.067  -2.968  10.081  1.00  0.00    -0.091 C 
HETATM   38  C26 UNL     1      13.427  -2.726  10.648  1.00  0.00     0.042 C 
HETATM   39  C27 UNL     1      10.980  -3.336  11.024  1.00  0.00     0.042 C 
ENDBRANCH  35  36
ENDBRANCH  30  35
BRANCH  31  40
HETATM   40  O3  UNL     1       8.002  -2.216   6.851  1.00  0.00    -0.393 OA
ATOM     41  H3  UNL     1       7.447  -1.948   6.127  1.00  0.00     0.210 HD
ENDBRANCH  31  40
ENDBRANCH   1  28
TORSDOF 15
ENDMDL
MODEL 3
REMARK VINA RESULT: -8.669059274      0.980      1.260
REMARK  15 active torsions:
REMARK  status: ('A' for Active; 'I' for Inactive)
REMARK    1  A    between atoms: C2_2  and  C3_3 
REMARK    2  A    between atoms: C6_6  and  O1_8 
REMARK    3  A    between atoms: C8_10  and  C9_11 
REMARK    4  A    between atoms: C10_12  and  C11_13 
REMARK    5  A    between atoms: C11_13  and  C12_14 
REMARK    6  A    between atoms: C12_14  and  C13_15 
REMARK    7  A    between atoms: C12_14  and  C21_23 
REMARK    8  A    between atoms: C13_15  and  C15_17 
REMARK    9  A    between atoms: C15_17  and  C16_18 
REMARK   10  A    between atoms: C17_19  and  C18_20 
REMARK   11  A    between atoms: C22_25  and  C23_26 
REMARK   12  A    between atoms: C23_26  and  C24_27 
REMARK   13  A    between atoms: C28_31  and  O3_32 
REMARK   14  A    between atoms: C31_37  and  C32_38 
REMARK   15  A    between atoms: C32_38  and  O6_40 
ROOT
HETATM    1  C12 UNL     1      11.349  -2.795   3.673  1.00  0.00     0.029 C 
ENDROOT
BRANCH   1   2
HETATM    2  C11 UNL     1      11.456  -4.314   3.664  1.00  0.00     0.035 C 
BRANCH   2   3
HETATM    3  C10 UNL     1      10.558  -4.951   2.660  1.00  0.00    -0.030 C 
HETATM    4  C9  UNL     1      11.041  -5.860   1.848  1.00  0.00    -0.022 C 
BRANCH   4   5
HETATM    5  C8  UNL     1      10.183  -6.536   0.816  1.00  0.00     0.056 C 
HETATM    6  C6  UNL     1      10.431  -7.996   0.749  1.00  0.00     0.062 C 
HETATM    7  C5  UNL     1      10.409  -8.638  -0.587  1.00  0.00     0.038 C 
HETATM    8  C7  UNL     1       9.408  -8.685   1.670  1.00  0.00     0.046 C 
HETATM    9  C4  UNL     1       9.697  -7.936  -1.676  1.00  0.00     0.008 C 
HETATM   10  C3  UNL     1       9.525  -6.464  -1.543  1.00  0.00    -0.001 C 
HETATM   11  C31 UNL     1      10.339  -5.791  -0.494  1.00  0.00     0.100 C 
BRANCH   6  12
HETATM   12  O1  UNL     1      11.676  -8.351   1.332  1.00  0.00    -0.390 OA
ATOM     13  H1  UNL     1      11.479  -9.013   1.984  1.00  0.00     0.210 HD
ENDBRANCH   6  12
BRANCH  10  14
HETATM   14  C2  UNL     1       9.503  -5.731  -2.856  1.00  0.00     0.001 C 
HETATM   15  C1  UNL     1       8.549  -4.600  -2.959  1.00  0.00     0.005 C 
ENDBRANCH  10  14
BRANCH  11  16
HETATM   16  C32 UNL     1      11.722  -5.469  -0.821  1.00  0.00     0.263 C 
HETATM   17  O5  UNL     1      12.032  -4.273  -1.177  1.00  0.00    -0.265 OA
BRANCH  16  18
HETATM   18  O6  UNL     1      12.779  -6.358  -0.786  1.00  0.00    -0.326 OA
HETATM   19  C33 UNL     1      14.007  -5.940  -0.228  1.00  0.00     0.213 C 
ENDBRANCH  16  18
ENDBRANCH  11  16
ENDBRANCH   4   5
ENDBRANCH   2   3
ENDBRANCH   1   2
BRANCH   1  20
HETATM   20  C13 UNL     1      12.468  -2.220   2.918  1.00  0.00    -0.008 C 
HETATM   21  C14 UNL     1      12.613  -0.726   2.984  1.00  0.00     0.011 C 
BRANCH  20  22
HETATM   22  C15 UNL     1      12.642  -2.670   1.495  1.00  0.00     0.031 C 
BRANCH  22  23
HETATM   23  C16 UNL     1      14.081  -2.516   1.066  1.00  0.00    -0.030 C 
HETATM   24  C17 UNL     1      14.509  -1.880   0.020  1.00  0.00    -0.027 C 
BRANCH  24  25
HETATM   25  C18 UNL     1      13.739  -1.159  -1.004  1.00  0.00    -0.001 C 
HETATM   26  C19 UNL     1      14.130   0.322  -0.898  1.00  0.00     0.013 C 
HETATM   27  C20 UNL     1      14.150  -1.574  -2.406  1.00  0.00     0.013 C 
ENDBRANCH  24  25
ENDBRANCH  22  23
ENDBRANCH  20  22
ENDBRANCH   1  20
BRANCH   1  28
HETATM   28  C21 UNL     1      10.969  -2.264   4.994  1.00  0.00     0.196 C 
HETATM   29  O2  UNL     1      10.566  -3.220   5.926  1.00  0.00    -0.370 OA
HETATM   30  C22 UNL     1      10.388  -2.518   7.119  1.00  0.00     0.155 C 
HETATM   31  C28 UNL     1       8.972  -2.000   7.095  1.00  0.00     0.154 C 
HETATM   32  C29 UNL     1       8.855  -1.060   5.912  1.00  0.00     0.115 C 
HETATM   33  C30 UNL     1      10.052  -1.106   5.030  1.00  0.00     0.158 C 
HETATM   34  O4  UNL     1      10.268  -0.145   4.322  1.00  0.00    -0.295 OA
BRANCH  30  35
HETATM   35  C23 UNL     1      10.685  -3.376   8.326  1.00  0.00     0.061 C 
BRANCH  35  36
HETATM   36  C24 UNL     1      12.015  -2.984   8.859  1.00  0.00    -0.022 C 
HETATM   37  C25 UNL     1      12.219  -2.803  10.157  1.00  0.00    -0.091 C 
HETATM   38  C26 UNL     1      13.569  -2.408  10.655  1.00  0.00     0.042 C 
HETATM   39  C27 UNL     1      11.137  -2.983  11.159  1.00  0.00     0.042 C 
ENDBRANCH  35  36
ENDBRANCH  30  35
BRANCH  31  40
HETATM   40  O3  UNL     1       8.058  -3.070   6.958  1.00  0.00    -0.393 OA
ATOM     41  H3  UNL     1       7.174  -2.775   7.139  1.00  0.00     0.210 HD
ENDBRANCH  31  40
ENDBRANCH   1  28
TORSDOF 15
ENDMDL
MODEL 4
REMARK VINA RESULT: -8.558640581      1.774      4.719
REMARK  15 active torsions:
REMARK  status: ('A' for Active; 'I' for Inactive)
REMARK    1  A    between atoms: C2_2  and  C3_3 
REMARK    2  A    between atoms: C6_6  and  O1_8 
REMARK    3  A    between atoms: C8_10  and  C9_11 
REMARK    4  A    between atoms: C10_12  and  C11_13 
REMARK    5  A    between atoms: C11_13  and  C12_14 
REMARK    6  A    between atoms: C12_14  and  C13_15 
REMARK    7  A    between atoms: C12_14  and  C21_23 
REMARK    8  A    between atoms: C13_15  and  C15_17 
REMARK    9  A    between atoms: C15_17  and  C16_18 
REMARK   10  A    between atoms: C17_19  and  C18_20 
REMARK   11  A    between atoms: C22_25  and  C23_26 
REMARK   12  A    between atoms: C23_26  and  C24_27 
REMARK   13  A    between atoms: C28_31  and  O3_32 
REMARK   14  A    between atoms: C31_37  and  C32_38 
REMARK   15  A    between atoms: C32_38  and  O6_40 
ROOT
HETATM    1  C12 UNL     1      10.803  -4.550   3.597  1.00  0.00     0.029 C 
ENDROOT
BRANCH   1   2
HETATM    2  C11 UNL     1      10.708  -3.919   2.214  1.00  0.00     0.035 C 
BRANCH   2   3
HETATM    3  C10 UNL     1      11.801  -4.360   1.302  1.00  0.00    -0.030 C 
HETATM    4  C9  UNL     1      12.453  -3.466   0.598  1.00  0.00    -0.022 C 
BRANCH   4   5
HETATM    5  C8  UNL     1      13.564  -3.851  -0.337  1.00  0.00     0.056 C 
HETATM    6  C6  UNL     1      14.691  -4.506   0.371  1.00  0.00     0.062 C 
HETATM    7  C5  UNL     1      16.067  -4.190  -0.083  1.00  0.00     0.038 C 
HETATM    8  C7  UNL     1      14.461  -6.027   0.305  1.00  0.00     0.046 C 
HETATM    9  C4  UNL     1      16.234  -3.658  -1.452  1.00  0.00     0.008 C 
HETATM   10  C3  UNL     1      15.060  -2.985  -2.072  1.00  0.00    -0.001 C 
HETATM   11  C31 UNL     1      13.935  -2.636  -1.162  1.00  0.00     0.100 C 
BRANCH   6  12
HETATM   12  O1  UNL     1      14.669  -4.239   1.765  1.00  0.00    -0.390 OA
ATOM     13  H1  UNL     1      14.226  -3.405   1.865  1.00  0.00     0.210 HD
ENDBRANCH   6  12
BRANCH  10  14
HETATM   14  C2  UNL     1      15.425  -1.886  -3.033  1.00  0.00     0.001 C 
HETATM   15  C1  UNL     1      14.605  -1.794  -4.265  1.00  0.00     0.005 C 
ENDBRANCH  10  14
BRANCH  11  16
HETATM   16  C32 UNL     1      14.059  -1.414  -0.378  1.00  0.00     0.263 C 
HETATM   17  O5  UNL     1      13.700  -0.290  -0.888  1.00  0.00    -0.265 OA
BRANCH  16  18
HETATM   18  O6  UNL     1      14.544  -1.339   0.914  1.00  0.00    -0.326 OA
HETATM   19  C33 UNL     1      14.387  -0.136   1.635  1.00  0.00     0.213 C 
ENDBRANCH  16  18
ENDBRANCH  11  16
ENDBRANCH   4   5
ENDBRANCH   2   3
ENDBRANCH   1   2
BRANCH   1  20
HETATM   20  C13 UNL     1       9.813  -5.627   3.713  1.00  0.00    -0.008 C 
HETATM   21  C14 UNL     1      10.200  -6.790   4.582  1.00  0.00     0.011 C 
BRANCH  20  22
HETATM   22  C15 UNL     1       9.204  -6.143   2.440  1.00  0.00     0.031 C 
BRANCH  22  23
HETATM   23  C16 UNL     1       9.852  -7.444   2.037  1.00  0.00    -0.030 C 
HETATM   24  C17 UNL     1      10.296  -7.751   0.857  1.00  0.00    -0.027 C 
BRANCH  24  25
HETATM   25  C18 UNL     1      10.290  -6.945  -0.372  1.00  0.00    -0.001 C 
HETATM   26  C19 UNL     1      11.423  -7.477  -1.262  1.00  0.00     0.013 C 
HETATM   27  C20 UNL     1       9.022  -7.166  -1.177  1.00  0.00     0.013 C 
ENDBRANCH  24  25
ENDBRANCH  22  23
ENDBRANCH  20  22
ENDBRANCH   1  20
BRANCH   1  28
HETATM   28  C21 UNL     1      10.966  -3.548   4.665  1.00  0.00     0.196 C 
HETATM   29  O2  UNL     1      10.188  -3.760   5.803  1.00  0.00    -0.370 OA
HETATM   30  C22 UNL     1      10.599  -2.787   6.715  1.00  0.00     0.155 C 
HETATM   31  C28 UNL     1       9.770  -1.562   6.424  1.00  0.00     0.154 C 
HETATM   32  C29 UNL     1      10.093  -1.123   5.010  1.00  0.00     0.115 C 
HETATM   33  C30 UNL     1      10.920  -2.122   4.282  1.00  0.00     0.158 C 
HETATM   34  O4  UNL     1      11.577  -1.731   3.340  1.00  0.00    -0.295 OA
BRANCH  30  35
HETATM   35  C23 UNL     1      10.471  -3.264   8.142  1.00  0.00     0.061 C 
BRANCH  35  36
HETATM   36  C24 UNL     1      11.793  -3.115   8.803  1.00  0.00    -0.022 C 
HETATM   37  C25 UNL     1      11.931  -3.229  10.117  1.00  0.00    -0.091 C 
HETATM   38  C26 UNL     1      13.276  -3.071  10.745  1.00  0.00     0.042 C 
HETATM   39  C27 UNL     1      10.779  -3.514  11.010  1.00  0.00     0.042 C 
ENDBRANCH  35  36
ENDBRANCH  30  35
BRANCH  31  40
HETATM   40  O3  UNL     1       8.393  -1.860   6.538  1.00  0.00    -0.393 OA
ATOM     41  H3  UNL     1       7.871  -1.086   6.359  1.00  0.00     0.210 HD
ENDBRANCH  31  40
ENDBRANCH   1  28
TORSDOF 15
ENDMDL
MODEL 5
REMARK VINA RESULT: -8.414616106      2.536      8.673
REMARK  15 active torsions:
REMARK  status: ('A' for Active; 'I' for Inactive)
REMARK    1  A    between atoms: C2_2  and  C3_3 
REMARK    2  A    between atoms: C6_6  and  O1_8 
REMARK    3  A    between atoms: C8_10  and  C9_11 
REMARK    4  A    between atoms: C10_12  and  C11_13 
REMARK    5  A    between atoms: C11_13  and  C12_14 
REMARK    6  A    between atoms: C12_14  and  C13_15 
REMARK    7  A    between atoms: C12_14  and  C21_23 
REMARK    8  A    between atoms: C13_15  and  C15_17 
REMARK    9  A    between atoms: C15_17  and  C16_18 
REMARK   10  A    between atoms: C17_19  and  C18_20 
REMARK   11  A    between atoms: C22_25  and  C23_26 
REMARK   12  A    between atoms: C23_26  and  C24_27 
REMARK   13  A    between atoms: C28_31  and  O3_32 
REMARK   14  A    between atoms: C31_37  and  C32_38 
REMARK   15  A    between atoms: C32_38  and  O6_40 
ROOT
HETATM    1  C12 UNL     1      12.105  -4.995   0.403  1.00  0.00     0.029 C 
ENDROOT
BRANCH   1   2
HETATM    2  C11 UNL     1      13.582  -5.354   0.497  1.00  0.00     0.035 C 
BRANCH   2   3
HETATM    3  C10 UNL     1      14.467  -4.156   0.532  1.00  0.00    -0.030 C 
HETATM    4  C9  UNL     1      14.034  -3.019   0.043  1.00  0.00    -0.022 C 
BRANCH   4   5
HETATM    5  C8  UNL     1      14.881  -1.779   0.052  1.00  0.00     0.056 C 
HETATM    6  C6  UNL     1      14.159  -0.609   0.607  1.00  0.00     0.062 C 
HETATM    7  C5  UNL     1      14.395   0.711  -0.026  1.00  0.00     0.038 C 
HETATM    8  C7  UNL     1      14.486  -0.528   2.109  1.00  0.00     0.046 C 
HETATM    9  C4  UNL     1      15.635   0.885  -0.811  1.00  0.00     0.008 C 
HETATM   10  C3  UNL     1      16.275  -0.342  -1.360  1.00  0.00    -0.001 C 
HETATM   11  C31 UNL     1      15.458  -1.587  -1.335  1.00  0.00     0.100 C 
BRANCH   6  12
HETATM   12  O1  UNL     1      12.751  -0.800   0.597  1.00  0.00    -0.390 OA
ATOM     13  H1  UNL     1      12.386  -0.072   1.085  1.00  0.00     0.210 HD
ENDBRANCH   6  12
BRANCH  10  14
HETATM   14  C2  UNL     1      17.004  -0.121  -2.657  1.00  0.00     0.001 C 
HETATM   15  C1  UNL     1      16.569   1.046  -3.463  1.00  0.00     0.005 C 
ENDBRANCH  10  14
BRANCH  11  16
HETATM   16  C32 UNL     1      14.485  -1.772  -2.403  1.00  0.00     0.263 C 
HETATM   17  O5  UNL     1      14.659  -2.705  -3.270  1.00  0.00    -0.265 OA
BRANCH  16  18
HETATM   18  O6  UNL     1      13.344  -1.014  -2.585  1.00  0.00    -0.326 OA
HETATM   19  C33 UNL     1      12.833  -0.848  -3.890  1.00  0.00     0.213 C 
ENDBRANCH  16  18
ENDBRANCH  11  16
ENDBRANCH   4   5
ENDBRANCH   2   3
ENDBRANCH   1   2
BRANCH   1  20
HETATM   20  C13 UNL     1      11.494  -5.084   1.734  1.00  0.00    -0.008 C 
HETATM   21  C14 UNL     1      10.692  -6.324   2.012  1.00  0.00     0.011 C 
BRANCH  20  22
HETATM   22  C15 UNL     1      10.732  -3.884   2.224  1.00  0.00     0.031 C 
BRANCH  22  23
HETATM   23  C16 UNL     1      11.654  -2.939   2.954  1.00  0.00    -0.030 C 
HETATM   24  C17 UNL     1      11.457  -2.424   4.128  1.00  0.00    -0.027 C 
BRANCH  24  25
HETATM   25  C18 UNL     1      10.320  -2.611   5.042  1.00  0.00    -0.001 C 
HETATM   26  C19 UNL     1      10.785  -3.574   6.144  1.00  0.00     0.013 C 
HETATM   27  C20 UNL     1       9.971  -1.324   5.768  1.00  0.00     0.013 C 
ENDBRANCH  24  25
ENDBRANCH  22  23
ENDBRANCH  20  22
ENDBRANCH   1  20
BRANCH   1  28
HETATM   28  C21 UNL     1      11.453  -5.591  -0.775  1.00  0.00     0.196 C 
HETATM   29  O2  UNL     1      10.073  -5.400  -0.850  1.00  0.00    -0.370 OA
HETATM   30  C22 UNL     1       9.697  -5.921  -2.089  1.00  0.00     0.155 C 
HETATM   31  C28 UNL     1       9.444  -7.390  -1.869  1.00  0.00     0.154 C 
HETATM   32  C29 UNL     1      10.749  -8.011  -1.415  1.00  0.00     0.115 C 
HETATM   33  C30 UNL     1      11.787  -6.990  -1.112  1.00  0.00     0.158 C 
HETATM   34  O4  UNL     1      12.948  -7.338  -1.150  1.00  0.00    -0.295 OA
BRANCH  30  35
HETATM   35  C23 UNL     1       8.506  -5.194  -2.667  1.00  0.00     0.061 C 
BRANCH  35  36
HETATM   36  C24 UNL     1       8.994  -3.963  -3.341  1.00  0.00    -0.022 C 
HETATM   37  C25 UNL     1       8.169  -3.151  -3.989  1.00  0.00    -0.091 C 
HETATM   38  C26 UNL     1       8.697  -1.924  -4.656  1.00  0.00     0.042 C 
HETATM   39  C27 UNL     1       6.711  -3.416  -4.082  1.00  0.00     0.042 C 
ENDBRANCH  35  36
ENDBRANCH  30  35
BRANCH  31  40
HETATM   40  O3  UNL     1       8.448  -7.576  -0.883  1.00  0.00    -0.393 OA
ATOM     41  H3  UNL     1       8.821  -7.979  -0.107  1.00  0.00     0.210 HD
ENDBRANCH  31  40
ENDBRANCH   1  28
TORSDOF 15
ENDMDL
