MODEL 1
REMARK VINA RESULT: -8.582880532      0.000      0.000
REMARK  16 active torsions:
REMARK  status: ('A' for Active; 'I' for Inactive)
REMARK    1  A    between atoms: C2_2  and  C3_3 
REMARK    2  A    between atoms: C3_3  and  C4_4 
REMARK    3  A    between atoms: C4_4  and  O2_6 
REMARK    4  A    between atoms: O2_6  and  C5_7 
REMARK    5  A    between atoms: C5_7  and  C8_10 
REMARK    6  A    between atoms: C8_10  and  C9_11 
REMARK    7  A    between atoms: C9_11  and  O4_13 
REMARK    8  A    between atoms: O4_13  and  C10_14 
REMARK    9  A    between atoms: C10_14  and  C21_25 
REMARK   10  A    between atoms: C11_15  and  C12_16 
REMARK   11  A    between atoms: C13_17  and  C15_19 
REMARK   12  A    between atoms: C15_19  and  C16_20 
REMARK   13  A    between atoms: C16_20  and  C17_21 
REMARK   14  A    between atoms: C17_21  and  C18_22 
REMARK   15  A    between atoms: C25_29  and  C27_31 
REMARK   16  A    between atoms: C30_36  and  O7_37 
ROOT
HETATM    1  C10 UNL     1      13.918  -3.281   0.883  1.00  0.00     0.061 C 
HETATM    2  C11 UNL     1      12.785  -2.953   1.542  1.00  0.00     0.033 C 
ENDROOT
BRANCH   1   3
HETATM    3  O4  UNL     1      14.431  -4.527   0.948  1.00  0.00    -0.283 OA
BRANCH   3   4
HETATM    4  C9  UNL     1      14.502  -5.616   0.168  1.00  0.00     0.266 C 
HETATM    5  O3  UNL     1      15.527  -6.376   0.238  1.00  0.00    -0.265 OA
BRANCH   4   6
HETATM    6  C8  UNL     1      13.407  -5.954  -0.784  1.00  0.00     0.149 C 
BRANCH   6   7
HETATM    7  C5  UNL     1      12.474  -7.021  -0.344  1.00  0.00     0.072 C 
HETATM    8  C6  UNL     1      11.571  -6.681   0.799  1.00  0.00     0.047 C 
HETATM    9  C7  UNL     1      13.286  -8.258   0.137  1.00  0.00     0.047 C 
BRANCH   7  10
HETATM   10  O2  UNL     1      11.752  -7.523  -1.446  1.00  0.00    -0.310 OA
BRANCH  10  11
HETATM   11  C4  UNL     1      10.494  -8.077  -1.405  1.00  0.00     0.259 C 
HETATM   12  O1  UNL     1      10.389  -9.270  -1.031  1.00  0.00    -0.265 OA
BRANCH  11  13
HETATM   13  C3  UNL     1       9.315  -7.230  -1.811  1.00  0.00     0.111 C 
BRANCH  13  14
HETATM   14  C2  UNL     1       9.752  -6.104  -2.698  1.00  0.00     0.005 C 
HETATM   15  C1  UNL     1       8.714  -4.993  -2.737  1.00  0.00     0.005 C 
ENDBRANCH  13  14
ENDBRANCH  11  13
ENDBRANCH  10  11
ENDBRANCH   7  10
ENDBRANCH   6   7
ENDBRANCH   4   6
ENDBRANCH   3   4
ENDBRANCH   1   3
BRANCH   1  16
HETATM   16  C21 UNL     1      14.497  -2.203   0.110  1.00  0.00     0.054 C 
HETATM   17  C22 UNL     1      13.829  -0.843   0.479  1.00  0.00     0.013 C 
HETATM   18  C23 UNL     1      14.099   0.051  -0.732  1.00  0.00     0.007 C 
HETATM   19  C24 UNL     1      15.112  -0.760  -1.490  1.00  0.00     0.015 C 
HETATM   20  C25 UNL     1      15.566  -0.282  -2.772  1.00  0.00     0.049 C 
HETATM   21  C31 UNL     1      14.467  -2.146  -1.384  1.00  0.00    -0.004 C 
HETATM   22  C26 UNL     1      16.548   0.880  -2.498  1.00  0.00     0.027 C 
HETATM   23  C28 UNL     1      16.385  -1.343  -3.474  1.00  0.00     0.023 C 
HETATM   24  C29 UNL     1      15.688  -2.685  -3.436  1.00  0.00     0.034 C 
HETATM   25  C30 UNL     1      15.401  -3.123  -2.024  1.00  0.00     0.127 C 
HETATM   26  C32 UNL     1      13.097  -2.154  -1.941  1.00  0.00     0.019 C 
BRANCH  20  27
HETATM   27  C27 UNL     1      14.615   0.270  -3.737  1.00  0.00     0.181 C 
HETATM   28  O5  UNL     1      13.445   0.642  -3.414  1.00  0.00    -0.647 OA
HETATM   29  O6  UNL     1      14.952   0.409  -5.069  1.00  0.00    -0.647 OA
ENDBRANCH  20  27
BRANCH  25  30
HETATM   30  O7  UNL     1      16.586  -3.143  -1.295  1.00  0.00    -0.395 OA
ATOM     31  H7  UNL     1      16.386  -3.141  -0.366  1.00  0.00     0.210 HD
ENDBRANCH  25  30
ENDBRANCH   1  16
BRANCH   2  32
HETATM   32  C12 UNL     1      12.021  -3.864   2.367  1.00  0.00     0.005 C 
HETATM   33  C13 UNL     1      11.333  -3.417   3.430  1.00  0.00    -0.083 C 
HETATM   34  C14 UNL     1      11.338  -1.975   3.781  1.00  0.00     0.043 C 
BRANCH  33  35
HETATM   35  C15 UNL     1      10.555  -4.354   4.254  1.00  0.00     0.045 C 
BRANCH  35  36
HETATM   36  C16 UNL     1      10.355  -3.900   5.701  1.00  0.00     0.084 C 
BRANCH  36  37
HETATM   37  C17 UNL     1       9.153  -4.170   6.350  1.00  0.00    -0.179 C 
BRANCH  37  38
HETATM   38  C18 UNL     1       8.049  -4.420   6.945  1.00  0.00     0.044 C 
HETATM   39  C19 UNL     1       7.674  -3.506   8.103  1.00  0.00     0.022 C 
HETATM   40  C20 UNL     1       7.074  -5.528   6.645  1.00  0.00     0.022 C 
ENDBRANCH  37  38
ENDBRANCH  36  37
ENDBRANCH  35  36
ENDBRANCH  33  35
ENDBRANCH   2  32
TORSDOF 16
ENDMDL
MODEL 2
REMARK VINA RESULT: -8.500606464      1.325      1.954
REMARK  16 active torsions:
REMARK  status: ('A' for Active; 'I' for Inactive)
REMARK    1  A    between atoms: C2_2  and  C3_3 
REMARK    2  A    between atoms: C3_3  and  C4_4 
REMARK    3  A    between atoms: C4_4  and  O2_6 
REMARK    4  A    between atoms: O2_6  and  C5_7 
REMARK    5  A    between atoms: C5_7  and  C8_10 
REMARK    6  A    between atoms: C8_10  and  C9_11 
REMARK    7  A    between atoms: C9_11  and  O4_13 
REMARK    8  A    between atoms: O4_13  and  C10_14 
REMARK    9  A    between atoms: C10_14  and  C21_25 
REMARK   10  A    between atoms: C11_15  and  C12_16 
REMARK   11  A    between atoms: C13_17  and  C15_19 
REMARK   12  A    between atoms: C15_19  and  C16_20 
REMARK   13  A    between atoms: C16_20  and  C17_21 
REMARK   14  A    between atoms: C17_21  and  C18_22 
REMARK   15  A    between atoms: C25_29  and  C27_31 
REMARK   16  A    between atoms: C30_36  and  O7_37 
ROOT
HETATM    1  C10 UNL     1      14.131  -2.987   0.701  1.00  0.00     0.061 C 
HETATM    2  C11 UNL     1      12.958  -2.724   1.315  1.00  0.00     0.033 C 
ENDROOT
BRANCH   1   3
HETATM    3  O4  UNL     1      14.816  -4.122   0.950  1.00  0.00    -0.283 OA
BRANCH   3   4
HETATM    4  C9  UNL     1      14.902  -5.363   0.447  1.00  0.00     0.266 C 
HETATM    5  O3  UNL     1      15.764  -6.177   0.923  1.00  0.00    -0.265 OA
BRANCH   4   6
HETATM    6  C8  UNL     1      14.011  -5.808  -0.661  1.00  0.00     0.149 C 
BRANCH   6   7
HETATM    7  C5  UNL     1      13.045  -6.884  -0.322  1.00  0.00     0.072 C 
HETATM    8  C6  UNL     1      13.635  -8.196   0.090  1.00  0.00     0.047 C 
HETATM    9  C7  UNL     1      12.166  -7.207  -1.564  1.00  0.00     0.047 C 
BRANCH   7  10
HETATM   10  O2  UNL     1      12.107  -6.417   0.621  1.00  0.00    -0.310 OA
BRANCH  10  11
HETATM   11  C4  UNL     1      10.770  -6.188   0.388  1.00  0.00     0.259 C 
HETATM   12  O1  UNL     1      10.450  -5.131  -0.208  1.00  0.00    -0.265 OA
BRANCH  11  13
HETATM   13  C3  UNL     1       9.767  -7.210   0.858  1.00  0.00     0.111 C 
BRANCH  13  14
HETATM   14  C2  UNL     1      10.315  -8.001   2.007  1.00  0.00     0.005 C 
HETATM   15  C1  UNL     1       9.918  -7.392   3.342  1.00  0.00     0.005 C 
ENDBRANCH  13  14
ENDBRANCH  11  13
ENDBRANCH  10  11
ENDBRANCH   7  10
ENDBRANCH   6   7
ENDBRANCH   4   6
ENDBRANCH   3   4
ENDBRANCH   1   3
BRANCH   1  16
HETATM   16  C21 UNL     1      14.559  -1.969  -0.237  1.00  0.00     0.054 C 
HETATM   17  C22 UNL     1      13.818  -0.625   0.036  1.00  0.00     0.013 C 
HETATM   18  C23 UNL     1      13.917   0.137  -1.287  1.00  0.00     0.007 C 
HETATM   19  C24 UNL     1      14.927  -0.686  -2.037  1.00  0.00     0.015 C 
HETATM   20  C25 UNL     1      15.236  -0.332  -3.399  1.00  0.00     0.049 C 
HETATM   21  C31 UNL     1      14.404  -2.092  -1.719  1.00  0.00    -0.004 C 
HETATM   22  C26 UNL     1      16.143   0.919  -3.346  1.00  0.00     0.027 C 
HETATM   23  C28 UNL     1      16.078  -1.410  -4.049  1.00  0.00     0.023 C 
HETATM   24  C29 UNL     1      15.494  -2.782  -3.800  1.00  0.00     0.034 C 
HETATM   25  C30 UNL     1      15.358  -3.070  -2.327  1.00  0.00     0.127 C 
HETATM   26  C32 UNL     1      12.999  -2.260  -2.148  1.00  0.00     0.019 C 
BRANCH  20  27
HETATM   27  C27 UNL     1      14.170   0.034  -4.331  1.00  0.00     0.181 C 
HETATM   28  O5  UNL     1      13.523  -0.823  -5.008  1.00  0.00    -0.647 OA
HETATM   29  O6  UNL     1      13.816   1.356  -4.525  1.00  0.00    -0.647 OA
ENDBRANCH  20  27
BRANCH  25  30
HETATM   30  O7  UNL     1      16.596  -2.922  -1.709  1.00  0.00    -0.395 OA
ATOM     31  H7  UNL     1      16.619  -2.093  -1.244  1.00  0.00     0.210 HD
ENDBRANCH  25  30
ENDBRANCH   1  16
BRANCH   2  32
HETATM   32  C12 UNL     1      12.323  -3.596   2.280  1.00  0.00     0.005 C 
HETATM   33  C13 UNL     1      11.638  -3.090   3.318  1.00  0.00    -0.083 C 
HETATM   34  C14 UNL     1      11.514  -1.622   3.497  1.00  0.00     0.043 C 
BRANCH  33  35
HETATM   35  C15 UNL     1      10.992  -3.988   4.286  1.00  0.00     0.045 C 
BRANCH  35  36
HETATM   36  C16 UNL     1      10.592  -3.313   5.599  1.00  0.00     0.084 C 
BRANCH  36  37
HETATM   37  C17 UNL     1       9.457  -3.745   6.281  1.00  0.00    -0.179 C 
BRANCH  37  38
HETATM   38  C18 UNL     1       8.415  -4.141   6.908  1.00  0.00     0.044 C 
HETATM   39  C19 UNL     1       7.800  -5.456   6.450  1.00  0.00     0.022 C 
HETATM   40  C20 UNL     1       7.709  -3.449   8.044  1.00  0.00     0.022 C 
ENDBRANCH  37  38
ENDBRANCH  36  37
ENDBRANCH  35  36
ENDBRANCH  33  35
ENDBRANCH   2  32
TORSDOF 16
ENDMDL
MODEL 3
REMARK VINA RESULT: -8.421707119      0.816      1.045
REMARK  16 active torsions:
REMARK  status: ('A' for Active; 'I' for Inactive)
REMARK    1  A    between atoms: C2_2  and  C3_3 
REMARK    2  A    between atoms: C3_3  and  C4_4 
REMARK    3  A    between atoms: C4_4  and  O2_6 
REMARK    4  A    between atoms: O2_6  and  C5_7 
REMARK    5  A    between atoms: C5_7  and  C8_10 
REMARK    6  A    between atoms: C8_10  and  C9_11 
REMARK    7  A    between atoms: C9_11  and  O4_13 
REMARK    8  A    between atoms: O4_13  and  C10_14 
REMARK    9  A    between atoms: C10_14  and  C21_25 
REMARK   10  A    between atoms: C11_15  and  C12_16 
REMARK   11  A    between atoms: C13_17  and  C15_19 
REMARK   12  A    between atoms: C15_19  and  C16_20 
REMARK   13  A    between atoms: C16_20  and  C17_21 
REMARK   14  A    between atoms: C17_21  and  C18_22 
REMARK   15  A    between atoms: C25_29  and  C27_31 
REMARK   16  A    between atoms: C30_36  and  O7_37 
ROOT
HETATM    1  C10 UNL     1      13.742  -3.449   0.725  1.00  0.00     0.061 C 
HETATM    2  C11 UNL     1      12.683  -3.087   1.481  1.00  0.00     0.033 C 
ENDROOT
BRANCH   1   3
HETATM    3  O4  UNL     1      14.126  -4.737   0.626  1.00  0.00    -0.283 OA
BRANCH   3   4
HETATM    4  C9  UNL     1      13.874  -5.795  -0.160  1.00  0.00     0.266 C 
HETATM    5  O3  UNL     1      14.491  -6.894   0.044  1.00  0.00    -0.265 OA
BRANCH   4   6
HETATM    6  C8  UNL     1      12.887  -5.708  -1.274  1.00  0.00     0.149 C 
BRANCH   6   7
HETATM    7  C5  UNL     1      11.621  -6.456  -1.075  1.00  0.00     0.072 C 
HETATM    8  C6  UNL     1      10.687  -5.912  -0.041  1.00  0.00     0.047 C 
HETATM    9  C7  UNL     1      11.939  -7.906  -0.610  1.00  0.00     0.047 C 
BRANCH   7  10
HETATM   10  O2  UNL     1      10.972  -6.652  -2.311  1.00  0.00    -0.310 OA
BRANCH  10  11
HETATM   11  C4  UNL     1       9.645  -6.405  -2.577  1.00  0.00     0.259 C 
HETATM   12  O1  UNL     1       8.849  -7.374  -2.546  1.00  0.00    -0.265 OA
BRANCH  11  13
HETATM   13  C3  UNL     1       9.220  -4.994  -2.892  1.00  0.00     0.111 C 
BRANCH  13  14
HETATM   14  C2  UNL     1       7.726  -4.879  -2.900  1.00  0.00     0.005 C 
HETATM   15  C1  UNL     1       7.278  -3.463  -3.225  1.00  0.00     0.005 C 
ENDBRANCH  13  14
ENDBRANCH  11  13
ENDBRANCH  10  11
ENDBRANCH   7  10
ENDBRANCH   6   7
ENDBRANCH   4   6
ENDBRANCH   3   4
ENDBRANCH   1   3
BRANCH   1  16
HETATM   16  C21 UNL     1      14.391  -2.352   0.036  1.00  0.00     0.054 C 
HETATM   17  C22 UNL     1      13.808  -0.986   0.509  1.00  0.00     0.013 C 
HETATM   18  C23 UNL     1      14.138  -0.019  -0.630  1.00  0.00     0.007 C 
HETATM   19  C24 UNL     1      15.102  -0.832  -1.448  1.00  0.00     0.015 C 
HETATM   20  C25 UNL     1      15.590  -0.286  -2.689  1.00  0.00     0.049 C 
HETATM   21  C31 UNL     1      14.371  -2.179  -1.449  1.00  0.00    -0.004 C 
HETATM   22  C26 UNL     1      16.642   0.788  -2.327  1.00  0.00     0.027 C 
HETATM   23  C28 UNL     1      16.346  -1.340  -3.471  1.00  0.00     0.023 C 
HETATM   24  C29 UNL     1      15.566  -2.634  -3.536  1.00  0.00     0.034 C 
HETATM   25  C30 UNL     1      15.245  -3.161  -2.162  1.00  0.00     0.127 C 
HETATM   26  C32 UNL     1      13.006  -2.058  -2.005  1.00  0.00     0.019 C 
BRANCH  20  27
HETATM   27  C27 UNL     1      14.681   0.396  -3.608  1.00  0.00     0.181 C 
HETATM   28  O5  UNL     1      13.417   0.295  -3.528  1.00  0.00    -0.647 OA
HETATM   29  O6  UNL     1      15.163   1.193  -4.629  1.00  0.00    -0.647 OA
ENDBRANCH  20  27
BRANCH  25  30
HETATM   30  O7  UNL     1      16.424  -3.311  -1.437  1.00  0.00    -0.395 OA
ATOM     31  H7  UNL     1      17.058  -3.788  -1.959  1.00  0.00     0.210 HD
ENDBRANCH  25  30
ENDBRANCH   1  16
BRANCH   2  32
HETATM   32  C12 UNL     1      11.870  -4.006   2.249  1.00  0.00     0.005 C 
HETATM   33  C13 UNL     1      11.195  -3.586   3.331  1.00  0.00    -0.083 C 
HETATM   34  C14 UNL     1      11.265  -2.168   3.763  1.00  0.00     0.043 C 
BRANCH  33  35
HETATM   35  C15 UNL     1      10.367  -4.530   4.097  1.00  0.00     0.045 C 
BRANCH  35  36
HETATM   36  C16 UNL     1      10.302  -4.234   5.596  1.00  0.00     0.084 C 
BRANCH  36  37
HETATM   37  C17 UNL     1       9.107  -4.423   6.287  1.00  0.00    -0.179 C 
BRANCH  37  38
HETATM   38  C18 UNL     1       8.010  -4.596   6.922  1.00  0.00     0.044 C 
HETATM   39  C19 UNL     1       7.665  -3.563   7.985  1.00  0.00     0.022 C 
HETATM   40  C20 UNL     1       7.020  -5.718   6.753  1.00  0.00     0.022 C 
ENDBRANCH  37  38
ENDBRANCH  36  37
ENDBRANCH  35  36
ENDBRANCH  33  35
ENDBRANCH   2  32
TORSDOF 16
ENDMDL
MODEL 4
REMARK VINA RESULT: -8.413860894      1.641      2.067
REMARK  16 active torsions:
REMARK  status: ('A' for Active; 'I' for Inactive)
REMARK    1  A    between atoms: C2_2  and  C3_3 
REMARK    2  A    between atoms: C3_3  and  C4_4 
REMARK    3  A    between atoms: C4_4  and  O2_6 
REMARK    4  A    between atoms: O2_6  and  C5_7 
REMARK    5  A    between atoms: C5_7  and  C8_10 
REMARK    6  A    between atoms: C8_10  and  C9_11 
REMARK    7  A    between atoms: C9_11  and  O4_13 
REMARK    8  A    between atoms: O4_13  and  C10_14 
REMARK    9  A    between atoms: C10_14  and  C21_25 
REMARK   10  A    between atoms: C11_15  and  C12_16 
REMARK   11  A    between atoms: C13_17  and  C15_19 
REMARK   12  A    between atoms: C15_19  and  C16_20 
REMARK   13  A    between atoms: C16_20  and  C17_21 
REMARK   14  A    between atoms: C17_21  and  C18_22 
REMARK   15  A    between atoms: C25_29  and  C27_31 
REMARK   16  A    between atoms: C30_36  and  O7_37 
ROOT
HETATM    1  C10 UNL     1      13.280  -2.923   1.654  1.00  0.00     0.061 C 
HETATM    2  C11 UNL     1      12.691  -2.183   2.618  1.00  0.00     0.033 C 
ENDROOT
BRANCH   1   3
HETATM    3  O4  UNL     1      13.025  -4.242   1.528  1.00  0.00    -0.283 OA
BRANCH   3   4
HETATM    4  C9  UNL     1      12.010  -5.026   1.133  1.00  0.00     0.266 C 
HETATM    5  O3  UNL     1      11.208  -5.504   2.004  1.00  0.00    -0.265 OA
BRANCH   4   6
HETATM    6  C8  UNL     1      11.806  -5.355  -0.306  1.00  0.00     0.149 C 
BRANCH   6   7
HETATM    7  C5  UNL     1      12.335  -6.668  -0.750  1.00  0.00     0.072 C 
HETATM    8  C6  UNL     1      13.601  -7.127  -0.097  1.00  0.00     0.047 C 
HETATM    9  C7  UNL     1      12.662  -6.612  -2.270  1.00  0.00     0.047 C 
BRANCH   7  10
HETATM   10  O2  UNL     1      11.327  -7.650  -0.677  1.00  0.00    -0.310 OA
BRANCH  10  11
HETATM   11  C4  UNL     1       9.976  -7.437  -0.825  1.00  0.00     0.259 C 
HETATM   12  O1  UNL     1       9.279  -7.335   0.213  1.00  0.00    -0.265 OA
BRANCH  11  13
HETATM   13  C3  UNL     1       9.406  -7.339  -2.217  1.00  0.00     0.111 C 
BRANCH  13  14
HETATM   14  C2  UNL     1       8.467  -6.176  -2.326  1.00  0.00     0.005 C 
HETATM   15  C1  UNL     1       9.175  -4.936  -2.847  1.00  0.00     0.005 C 
ENDBRANCH  13  14
ENDBRANCH  11  13
ENDBRANCH  10  11
ENDBRANCH   7  10
ENDBRANCH   6   7
ENDBRANCH   4   6
ENDBRANCH   3   4
ENDBRANCH   1   3
BRANCH   1  16
HETATM   16  C21 UNL     1      14.170  -2.181   0.785  1.00  0.00     0.054 C 
HETATM   17  C22 UNL     1      13.900  -0.650   0.903  1.00  0.00     0.013 C 
HETATM   18  C23 UNL     1      14.457  -0.067  -0.397  1.00  0.00     0.007 C 
HETATM   19  C24 UNL     1      15.228  -1.234  -0.947  1.00  0.00     0.015 C 
HETATM   20  C25 UNL     1      15.847  -1.107  -2.243  1.00  0.00     0.049 C 
HETATM   21  C31 UNL     1      14.214  -2.356  -0.699  1.00  0.00    -0.004 C 
HETATM   22  C26 UNL     1      17.107  -0.230  -2.057  1.00  0.00     0.027 C 
HETATM   23  C28 UNL     1      16.360  -2.450  -2.718  1.00  0.00     0.023 C 
HETATM   24  C29 UNL     1      15.312  -3.526  -2.548  1.00  0.00     0.034 C 
HETATM   25  C30 UNL     1      14.859  -3.640  -1.116  1.00  0.00     0.127 C 
HETATM   26  C32 UNL     1      12.921  -2.078  -1.359  1.00  0.00     0.019 C 
BRANCH  20  27
HETATM   27  C27 UNL     1      15.129  -0.478  -3.350  1.00  0.00     0.181 C 
HETATM   28  O5  UNL     1      14.247  -1.085  -4.032  1.00  0.00    -0.647 OA
HETATM   29  O6  UNL     1      15.386   0.830  -3.715  1.00  0.00    -0.647 OA
ENDBRANCH  20  27
BRANCH  25  30
HETATM   30  O7  UNL     1      15.961  -3.866  -0.297  1.00  0.00    -0.395 OA
ATOM     31  H7  UNL     1      15.969  -4.776  -0.022  1.00  0.00     0.210 HD
ENDBRANCH  25  30
ENDBRANCH   1  16
BRANCH   2  32
HETATM   32  C12 UNL     1      11.755  -2.699   3.594  1.00  0.00     0.005 C 
HETATM   33  C13 UNL     1      10.981  -1.868   4.310  1.00  0.00    -0.083 C 
HETATM   34  C14 UNL     1      11.064  -0.400   4.113  1.00  0.00     0.043 C 
BRANCH  33  35
HETATM   35  C15 UNL     1      10.029  -2.407   5.293  1.00  0.00     0.045 C 
BRANCH  35  36
HETATM   36  C16 UNL     1      10.628  -3.446   6.242  1.00  0.00     0.084 C 
BRANCH  36  37
HETATM   37  C17 UNL     1      10.722  -3.164   7.604  1.00  0.00    -0.179 C 
BRANCH  37  38
HETATM   38  C18 UNL     1      10.807  -2.905   8.853  1.00  0.00     0.044 C 
HETATM   39  C19 UNL     1       9.960  -3.758   9.787  1.00  0.00     0.022 C 
HETATM   40  C20 UNL     1      11.640  -1.840   9.515  1.00  0.00     0.022 C 
ENDBRANCH  37  38
ENDBRANCH  36  37
ENDBRANCH  35  36
ENDBRANCH  33  35
ENDBRANCH   2  32
TORSDOF 16
ENDMDL
MODEL 5
REMARK VINA RESULT: -8.392554371      1.296      1.753
REMARK  16 active torsions:
REMARK  status: ('A' for Active; 'I' for Inactive)
REMARK    1  A    between atoms: C2_2  and  C3_3 
REMARK    2  A    between atoms: C3_3  and  C4_4 
REMARK    3  A    between atoms: C4_4  and  O2_6 
REMARK    4  A    between atoms: O2_6  and  C5_7 
REMARK    5  A    between atoms: C5_7  and  C8_10 
REMARK    6  A    between atoms: C8_10  and  C9_11 
REMARK    7  A    between atoms: C9_11  and  O4_13 
REMARK    8  A    between atoms: O4_13  and  C10_14 
REMARK    9  A    between atoms: C10_14  and  C21_25 
REMARK   10  A    between atoms: C11_15  and  C12_16 
REMARK   11  A    between atoms: C13_17  and  C15_19 
REMARK   12  A    between atoms: C15_19  and  C16_20 
REMARK   13  A    between atoms: C16_20  and  C17_21 
REMARK   14  A    between atoms: C17_21  and  C18_22 
REMARK   15  A    between atoms: C25_29  and  C27_31 
REMARK   16  A    between atoms: C30_36  and  O7_37 
ROOT
HETATM    1  C10 UNL     1      13.383  -2.414   1.029  1.00  0.00     0.061 C 
HETATM    2  C11 UNL     1      13.011  -1.827   2.187  1.00  0.00     0.033 C 
ENDROOT
BRANCH   1   3
HETATM    3  O4  UNL     1      12.864  -3.598   0.645  1.00  0.00    -0.283 OA
BRANCH   3   4
HETATM    4  C9  UNL     1      13.217  -4.893   0.663  1.00  0.00     0.266 C 
HETATM    5  O3  UNL     1      14.423  -5.214   0.933  1.00  0.00    -0.265 OA
BRANCH   4   6
HETATM    6  C8  UNL     1      12.224  -5.965   0.370  1.00  0.00     0.149 C 
BRANCH   6   7
HETATM    7  C5  UNL     1      12.626  -6.952  -0.663  1.00  0.00     0.072 C 
HETATM    8  C6  UNL     1      13.819  -7.797  -0.342  1.00  0.00     0.047 C 
HETATM    9  C7  UNL     1      12.999  -6.209  -1.978  1.00  0.00     0.047 C 
BRANCH   7  10
HETATM   10  O2  UNL     1      11.519  -7.738  -1.043  1.00  0.00    -0.310 OA
BRANCH  10  11
HETATM   11  C4  UNL     1      10.346  -7.880  -0.338  1.00  0.00     0.259 C 
HETATM   12  O1  UNL     1      10.346  -8.649   0.652  1.00  0.00    -0.265 OA
BRANCH  11  13
HETATM   13  C3  UNL     1       9.132  -7.111  -0.791  1.00  0.00     0.111 C 
BRANCH  13  14
HETATM   14  C2  UNL     1       9.151  -6.915  -2.276  1.00  0.00     0.005 C 
HETATM   15  C1  UNL     1       9.273  -5.443  -2.641  1.00  0.00     0.005 C 
ENDBRANCH  13  14
ENDBRANCH  11  13
ENDBRANCH  10  11
ENDBRANCH   7  10
ENDBRANCH   6   7
ENDBRANCH   4   6
ENDBRANCH   3   4
ENDBRANCH   1   3
BRANCH   1  16
HETATM   16  C21 UNL     1      14.350  -1.661   0.257  1.00  0.00     0.054 C 
HETATM   17  C22 UNL     1      14.180  -0.132   0.508  1.00  0.00     0.013 C 
HETATM   18  C23 UNL     1      14.819   0.525  -0.717  1.00  0.00     0.007 C 
HETATM   19  C24 UNL     1      15.527  -0.639  -1.351  1.00  0.00     0.015 C 
HETATM   20  C25 UNL     1      16.197  -0.440  -2.612  1.00  0.00     0.049 C 
HETATM   21  C31 UNL     1      14.432  -1.705  -1.235  1.00  0.00    -0.004 C 
HETATM   22  C26 UNL     1      17.506   0.326  -2.311  1.00  0.00     0.027 C 
HETATM   23  C28 UNL     1      16.634  -1.767  -3.195  1.00  0.00     0.023 C 
HETATM   24  C29 UNL     1      15.510  -2.778  -3.153  1.00  0.00     0.034 C 
HETATM   25  C30 UNL     1      15.002  -2.988  -1.750  1.00  0.00     0.127 C 
HETATM   26  C32 UNL     1      13.184  -1.277  -1.902  1.00  0.00     0.019 C 
BRANCH  20  27
HETATM   27  C27 UNL     1      15.561   0.336  -3.675  1.00  0.00     0.181 C 
HETATM   28  O5  UNL     1      14.480  -0.023  -4.236  1.00  0.00    -0.647 OA
HETATM   29  O6  UNL     1      16.121   1.514  -4.131  1.00  0.00    -0.647 OA
ENDBRANCH  20  27
BRANCH  25  30
HETATM   30  O7  UNL     1      16.058  -3.364  -0.926  1.00  0.00    -0.395 OA
ATOM     31  H7  UNL     1      16.011  -2.880  -0.110  1.00  0.00     0.210 HD
ENDBRANCH  25  30
ENDBRANCH   1  16
BRANCH   2  32
HETATM   32  C12 UNL     1      12.050  -2.380   3.118  1.00  0.00     0.005 C 
HETATM   33  C13 UNL     1      11.295  -1.578   3.884  1.00  0.00    -0.083 C 
HETATM   34  C14 UNL     1      11.425  -0.103   3.792  1.00  0.00     0.043 C 
BRANCH  33  35
HETATM   35  C15 UNL     1      10.318  -2.155   4.820  1.00  0.00     0.045 C 
BRANCH  35  36
HETATM   36  C16 UNL     1      10.729  -3.508   5.402  1.00  0.00     0.084 C 
BRANCH  36  37
HETATM   37  C17 UNL     1      10.089  -4.669   4.971  1.00  0.00    -0.179 C 
BRANCH  37  38
HETATM   38  C18 UNL     1       9.502  -5.733   4.574  1.00  0.00     0.044 C 
HETATM   39  C19 UNL     1       9.832  -6.212   3.168  1.00  0.00     0.022 C 
HETATM   40  C20 UNL     1       8.505  -6.568   5.332  1.00  0.00     0.022 C 
ENDBRANCH  37  38
ENDBRANCH  36  37
ENDBRANCH  35  36
ENDBRANCH  33  35
ENDBRANCH   2  32
TORSDOF 16
ENDMDL
