MODEL 1
REMARK VINA RESULT: -8.311418072      0.000      0.000
REMARK  15 active torsions:
REMARK  status: ('A' for Active; 'I' for Inactive)
REMARK    1  A    between atoms: C2_2  and  C3_3 
REMARK    2  A    between atoms: C3_3  and  N1_4 
REMARK    3  A    between atoms: C10_11  and  C11_12 
REMARK    4  A    between atoms: C11_12  and  O1_13 
REMARK    5  A    between atoms: O1_13  and  C12_14 
REMARK    6  A    between atoms: C12_14  and  C13_16 
REMARK    7  A    between atoms: C13_16  and  C14_17 
REMARK    8  A    between atoms: C13_16  and  C16_19 
REMARK    9  A    between atoms: C13_16  and  C20_23 
REMARK   10  A    between atoms: C16_19  and  C17_20 
REMARK   11  A    between atoms: C17_20  and  C18_21 
REMARK   12  A    between atoms: C21_24  and  C22_25 
REMARK   13  A    between atoms: C22_25  and  C23_26 
REMARK   14  A    between atoms: C24_27  and  C25_28 
REMARK   15  A    between atoms: N3_35  and  N4_36 
ROOT
HETATM    1  C13 UNL     1      11.930  -2.406  10.459  1.00  0.00     0.065 C 
ENDROOT
BRANCH   1   2
HETATM    2  C12 UNL     1      13.191  -2.543  11.322  1.00  0.00     0.271 C 
HETATM    3  O2  UNL     1      14.316  -2.150  10.884  1.00  0.00    -0.264 OA
BRANCH   2   4
HETATM    4  O1  UNL     1      13.190  -3.081  12.575  1.00  0.00    -0.317 OA
BRANCH   4   5
HETATM    5  C11 UNL     1      14.116  -4.099  12.900  1.00  0.00     0.206 C 
BRANCH   5   6
HETATM    6  C10 UNL     1      13.781  -5.384  12.280  1.00  0.00     0.004 C 
HETATM    7  C9  UNL     1      14.633  -6.349  11.978  1.00  0.00    -0.052 C 
HETATM    8  C6  UNL     1      16.095  -6.272  12.227  1.00  0.00     0.019 C 
HETATM    9  C30 UNL     1      14.166  -7.631  11.343  1.00  0.00     0.272 C 
HETATM   10  C5  UNL     1      16.392  -7.243  13.359  1.00  0.00     0.037 C 
HETATM   11  C7  UNL     1      16.753  -6.894  10.987  1.00  0.00     0.037 C 
HETATM   12  C4  UNL     1      15.584  -8.492  13.074  1.00  0.00     0.239 C 
HETATM   13  N1  UNL     1      15.203  -8.606  11.681  1.00  0.00    -0.060 N 
HETATM   14  C8  UNL     1      16.350  -8.347  10.866  1.00  0.00     0.239 C 
BRANCH  13  15
HETATM   15  C3  UNL     1      14.649  -9.916  11.469  1.00  0.00     0.264 C 
BRANCH  15  16
HETATM   16  C2  UNL     1      13.247 -10.032  11.892  1.00  0.00    -0.009 C 
HETATM   17  C1  UNL     1      12.548 -11.105  11.541  1.00  0.00     0.008 C 
ENDBRANCH  15  16
ENDBRANCH  13  15
ENDBRANCH   5   6
ENDBRANCH   4   5
ENDBRANCH   2   4
ENDBRANCH   1   2
BRANCH   1  18
HETATM   18  C14 UNL     1      11.833  -1.113   9.761  1.00  0.00     0.019 C 
HETATM   19  C15 UNL     1      11.457   0.107  10.500  1.00  0.00     0.006 C 
ENDBRANCH   1  18
BRANCH   1  20
HETATM   20  C16 UNL     1      10.763  -2.786  11.319  1.00  0.00     0.024 C 
BRANCH  20  21
HETATM   21  C17 UNL     1      10.315  -4.214  11.255  1.00  0.00     0.001 C 
BRANCH  21  22
HETATM   22  C18 UNL     1      10.110  -4.641  12.723  1.00  0.00    -0.005 C 
HETATM   23  C19 UNL     1      10.426  -6.083  12.930  1.00  0.00     0.005 C 
ENDBRANCH  21  22
ENDBRANCH  20  21
ENDBRANCH   1  20
BRANCH   1  24
HETATM   24  C20 UNL     1      12.125  -3.482   9.422  1.00  0.00    -0.010 C 
HETATM   25  C21 UNL     1      11.854  -3.338   8.020  1.00  0.00    -0.018 C 
BRANCH  25  26
HETATM   26  C22 UNL     1      10.500  -3.006   7.482  1.00  0.00     0.121 C 
BRANCH  26  27
HETATM   27  C23 UNL     1      10.454  -3.678   6.126  1.00  0.00    -0.097 C 
HETATM   28  C24 UNL     1      10.421  -4.233   5.058  1.00  0.00    -0.061 C 
BRANCH  28  29
HETATM   29  C25 UNL     1      10.406  -4.905   3.781  1.00  0.00     0.080 A 
HETATM   30  C26 UNL     1       9.715  -6.089   3.642  1.00  0.00     0.029 A 
HETATM   31  C27 UNL     1       8.980  -6.687   4.799  1.00  0.00     0.070 C 
HETATM   32  N2  UNL     1       9.723  -6.686   2.438  1.00  0.00    -0.334 N 
HETATM   33  C28 UNL     1      10.383  -6.163   1.369  1.00  0.00     0.198 A 
ATOM     34  H2  UNL     1       9.216  -7.563   2.321  1.00  0.00     0.168 HD
HETATM   35  S1  UNL     1      10.348  -6.944  -0.060  1.00  0.00    -0.039 SA
HETATM   36  N3  UNL     1      11.064  -5.006   1.486  1.00  0.00    -0.224 N 
HETATM   37  C29 UNL     1      11.065  -4.397   2.684  1.00  0.00     0.145 A 
HETATM   38  S2  UNL     1      11.890  -2.976   2.863  1.00  0.00    -0.057 SA
BRANCH  36  39
HETATM   39  N4  UNL     1      11.760  -4.426   0.419  1.00  0.00    -0.335 N 
ATOM     40  H42 UNL     1      12.130  -5.022  -0.321  1.00  0.00     0.177 HD
ATOM     41  H41 UNL     1      11.916  -3.421   0.345  1.00  0.00     0.177 HD
ENDBRANCH  36  39
ENDBRANCH  28  29
ENDBRANCH  26  27
ENDBRANCH  25  26
ENDBRANCH   1  24
TORSDOF 15
ENDMDL
MODEL 2
REMARK VINA RESULT: -8.275939164      2.256      4.040
REMARK  15 active torsions:
REMARK  status: ('A' for Active; 'I' for Inactive)
REMARK    1  A    between atoms: C2_2  and  C3_3 
REMARK    2  A    between atoms: C3_3  and  N1_4 
REMARK    3  A    between atoms: C10_11  and  C11_12 
REMARK    4  A    between atoms: C11_12  and  O1_13 
REMARK    5  A    between atoms: O1_13  and  C12_14 
REMARK    6  A    between atoms: C12_14  and  C13_16 
REMARK    7  A    between atoms: C13_16  and  C14_17 
REMARK    8  A    between atoms: C13_16  and  C16_19 
REMARK    9  A    between atoms: C13_16  and  C20_23 
REMARK   10  A    between atoms: C16_19  and  C17_20 
REMARK   11  A    between atoms: C17_20  and  C18_21 
REMARK   12  A    between atoms: C21_24  and  C22_25 
REMARK   13  A    between atoms: C22_25  and  C23_26 
REMARK   14  A    between atoms: C24_27  and  C25_28 
REMARK   15  A    between atoms: N3_35  and  N4_36 
ROOT
HETATM    1  C13 UNL     1       9.531  -3.134   6.853  1.00  0.00     0.065 C 
ENDROOT
BRANCH   1   2
HETATM    2  C12 UNL     1      10.016  -2.992   8.301  1.00  0.00     0.271 C 
HETATM    3  O2  UNL     1       9.360  -3.514   9.255  1.00  0.00    -0.264 OA
BRANCH   2   4
HETATM    4  O1  UNL     1      11.147  -2.316   8.653  1.00  0.00    -0.317 OA
BRANCH   4   5
HETATM    5  C11 UNL     1      11.690  -2.486   9.948  1.00  0.00     0.206 C 
BRANCH   5   6
HETATM    6  C10 UNL     1      12.790  -3.454   9.975  1.00  0.00     0.004 C 
HETATM    7  C9  UNL     1      13.293  -4.032  11.052  1.00  0.00    -0.052 C 
HETATM    8  C6  UNL     1      12.806  -3.779  12.433  1.00  0.00     0.019 C 
HETATM    9  C30 UNL     1      14.426  -5.017  10.952  1.00  0.00     0.272 C 
HETATM   10  C5  UNL     1      12.088  -5.043  12.876  1.00  0.00     0.037 C 
HETATM   11  C7  UNL     1      14.068  -3.711  13.304  1.00  0.00     0.037 C 
HETATM   12  C4  UNL     1      12.943  -6.205  12.414  1.00  0.00     0.239 C 
HETATM   13  N1  UNL     1      14.318  -5.823  12.167  1.00  0.00    -0.060 N 
HETATM   14  C8  UNL     1      14.786  -5.042  13.271  1.00  0.00     0.239 C 
BRANCH  13  15
HETATM   15  C3  UNL     1      15.090  -7.020  11.961  1.00  0.00     0.264 C 
BRANCH  15  16
HETATM   16  C2  UNL     1      16.265  -7.114  12.840  1.00  0.00    -0.009 C 
HETATM   17  C1  UNL     1      16.966  -8.240  12.869  1.00  0.00     0.008 C 
ENDBRANCH  15  16
ENDBRANCH  13  15
ENDBRANCH   5   6
ENDBRANCH   4   5
ENDBRANCH   2   4
ENDBRANCH   1   2
BRANCH   1  18
HETATM   18  C14 UNL     1       9.293  -1.845   6.184  1.00  0.00     0.019 C 
HETATM   19  C15 UNL     1       9.213  -0.600   6.971  1.00  0.00     0.006 C 
ENDBRANCH   1  18
BRANCH   1  20
HETATM   20  C16 UNL     1       8.385  -4.099   6.864  1.00  0.00     0.024 C 
BRANCH  20  21
HETATM   21  C17 UNL     1       8.471  -5.258   5.919  1.00  0.00     0.001 C 
BRANCH  21  22
HETATM   22  C18 UNL     1       7.504  -6.317   6.488  1.00  0.00    -0.005 C 
HETATM   23  C19 UNL     1       6.704  -5.783   7.627  1.00  0.00     0.005 C 
ENDBRANCH  21  22
ENDBRANCH  20  21
ENDBRANCH   1  20
BRANCH   1  24
HETATM   24  C20 UNL     1      10.705  -3.798   6.180  1.00  0.00    -0.010 C 
HETATM   25  C21 UNL     1      11.473  -3.231   5.109  1.00  0.00    -0.018 C 
BRANCH  25  26
HETATM   26  C22 UNL     1      10.877  -2.853   3.790  1.00  0.00     0.121 C 
BRANCH  26  27
HETATM   27  C23 UNL     1      10.807  -4.153   3.017  1.00  0.00    -0.097 C 
HETATM   28  C24 UNL     1      10.764  -5.196   2.418  1.00  0.00    -0.061 C 
BRANCH  28  29
HETATM   29  C25 UNL     1      10.738  -6.445   1.696  1.00  0.00     0.080 A 
HETATM   30  C26 UNL     1      10.205  -7.567   2.293  1.00  0.00     0.029 A 
HETATM   31  C27 UNL     1       9.654  -7.506   3.682  1.00  0.00     0.070 C 
HETATM   32  N2  UNL     1      10.198  -8.712   1.590  1.00  0.00    -0.334 N 
HETATM   33  C28 UNL     1      10.694  -8.794   0.325  1.00  0.00     0.198 A 
ATOM     34  H2  UNL     1       9.807  -9.550   2.020  1.00  0.00     0.168 HD
HETATM   35  S1  UNL     1      10.651 -10.218  -0.465  1.00  0.00    -0.039 SA
HETATM   36  N3  UNL     1      11.218  -7.708  -0.274  1.00  0.00    -0.224 N 
HETATM   37  C29 UNL     1      11.232  -6.555   0.416  1.00  0.00     0.145 A 
HETATM   38  S2  UNL     1      11.868  -5.203  -0.290  1.00  0.00    -0.057 SA
BRANCH  36  39
HETATM   39  N4  UNL     1      11.741  -7.738  -1.573  1.00  0.00    -0.335 N 
ATOM     40  H42 UNL     1      11.138  -8.008  -2.350  1.00  0.00     0.177 HD
ATOM     41  H41 UNL     1      12.710  -7.498  -1.782  1.00  0.00     0.177 HD
ENDBRANCH  36  39
ENDBRANCH  28  29
ENDBRANCH  26  27
ENDBRANCH  25  26
ENDBRANCH   1  24
TORSDOF 15
ENDMDL
MODEL 3
REMARK VINA RESULT: -8.218205037      0.955      1.583
REMARK  15 active torsions:
REMARK  status: ('A' for Active; 'I' for Inactive)
REMARK    1  A    between atoms: C2_2  and  C3_3 
REMARK    2  A    between atoms: C3_3  and  N1_4 
REMARK    3  A    between atoms: C10_11  and  C11_12 
REMARK    4  A    between atoms: C11_12  and  O1_13 
REMARK    5  A    between atoms: O1_13  and  C12_14 
REMARK    6  A    between atoms: C12_14  and  C13_16 
REMARK    7  A    between atoms: C13_16  and  C14_17 
REMARK    8  A    between atoms: C13_16  and  C16_19 
REMARK    9  A    between atoms: C13_16  and  C20_23 
REMARK   10  A    between atoms: C16_19  and  C17_20 
REMARK   11  A    between atoms: C17_20  and  C18_21 
REMARK   12  A    between atoms: C21_24  and  C22_25 
REMARK   13  A    between atoms: C22_25  and  C23_26 
REMARK   14  A    between atoms: C24_27  and  C25_28 
REMARK   15  A    between atoms: N3_35  and  N4_36 
ROOT
HETATM    1  C13 UNL     1      11.892  -2.433  10.438  1.00  0.00     0.065 C 
ENDROOT
BRANCH   1   2
HETATM    2  C12 UNL     1      13.177  -2.535  11.270  1.00  0.00     0.271 C 
HETATM    3  O2  UNL     1      14.288  -2.153  10.789  1.00  0.00    -0.264 OA
BRANCH   2   4
HETATM    4  O1  UNL     1      13.212  -3.028  12.542  1.00  0.00    -0.317 OA
BRANCH   4   5
HETATM    5  C11 UNL     1      14.130  -4.052  12.869  1.00  0.00     0.206 C 
BRANCH   5   6
HETATM    6  C10 UNL     1      13.738  -5.355  12.324  1.00  0.00     0.004 C 
HETATM    7  C9  UNL     1      14.556  -6.340  11.994  1.00  0.00    -0.052 C 
HETATM    8  C6  UNL     1      16.034  -6.270  12.128  1.00  0.00     0.019 C 
HETATM    9  C30 UNL     1      14.032  -7.639  11.444  1.00  0.00     0.272 C 
HETATM   10  C5  UNL     1      16.409  -7.202  13.268  1.00  0.00     0.037 C 
HETATM   11  C7  UNL     1      16.590  -6.943  10.865  1.00  0.00     0.037 C 
HETATM   12  C4  UNL     1      15.572  -8.452  13.093  1.00  0.00     0.239 C 
HETATM   13  N1  UNL     1      15.083  -8.612  11.738  1.00  0.00    -0.060 N 
HETATM   14  C8  UNL     1      16.167  -8.395  10.829  1.00  0.00     0.239 C 
BRANCH  13  15
HETATM   15  C3  UNL     1      14.505  -9.923  11.617  1.00  0.00     0.264 C 
BRANCH  15  16
HETATM   16  C2  UNL     1      13.036  -9.920  11.679  1.00  0.00    -0.009 C 
HETATM   17  C1  UNL     1      12.373 -11.044  11.438  1.00  0.00     0.008 C 
ENDBRANCH  15  16
ENDBRANCH  13  15
ENDBRANCH   5   6
ENDBRANCH   4   5
ENDBRANCH   2   4
ENDBRANCH   1   2
BRANCH   1  18
HETATM   18  C14 UNL     1      11.784  -1.178   9.677  1.00  0.00     0.019 C 
HETATM   19  C15 UNL     1      11.534   0.098  10.374  1.00  0.00     0.006 C 
ENDBRANCH   1  18
BRANCH   1  20
HETATM   20  C16 UNL     1      10.749  -2.760  11.349  1.00  0.00     0.024 C 
BRANCH  20  21
HETATM   21  C17 UNL     1      10.197  -4.150  11.267  1.00  0.00     0.001 C 
BRANCH  21  22
HETATM   22  C18 UNL     1      10.031  -4.608  12.730  1.00  0.00    -0.005 C 
HETATM   23  C19 UNL     1      10.503  -6.007  12.931  1.00  0.00     0.005 C 
ENDBRANCH  21  22
ENDBRANCH  20  21
ENDBRANCH   1  20
BRANCH   1  24
HETATM   24  C20 UNL     1      12.052  -3.563   9.452  1.00  0.00    -0.010 C 
HETATM   25  C21 UNL     1      11.860  -3.457   8.035  1.00  0.00    -0.018 C 
BRANCH  25  26
HETATM   26  C22 UNL     1      10.562  -3.045   7.417  1.00  0.00     0.121 C 
BRANCH  26  27
HETATM   27  C23 UNL     1      10.630  -3.578   6.001  1.00  0.00    -0.097 C 
HETATM   28  C24 UNL     1      10.698  -3.985   4.870  1.00  0.00    -0.061 C 
BRANCH  28  29
HETATM   29  C25 UNL     1      10.769  -4.451   3.506  1.00  0.00     0.080 A 
HETATM   30  C26 UNL     1      11.374  -3.665   2.548  1.00  0.00     0.029 A 
HETATM   31  C27 UNL     1      11.957  -2.335   2.905  1.00  0.00     0.070 C 
HETATM   32  N2  UNL     1      11.422  -4.132   1.289  1.00  0.00    -0.334 N 
HETATM   33  C28 UNL     1      10.899  -5.338   0.938  1.00  0.00     0.198 A 
ATOM     34  H2  UNL     1      11.866  -3.560   0.570  1.00  0.00     0.168 HD
HETATM   35  S1  UNL     1      10.994  -5.837  -0.610  1.00  0.00    -0.039 SA
HETATM   36  N3  UNL     1      10.305  -6.119   1.861  1.00  0.00    -0.224 N 
HETATM   37  C29 UNL     1      10.249  -5.666   3.124  1.00  0.00     0.145 A 
HETATM   38  S2  UNL     1       9.526  -6.600   4.282  1.00  0.00    -0.057 SA
BRANCH  36  39
HETATM   39  N4  UNL     1       9.751  -7.367   1.553  1.00  0.00    -0.335 N 
ATOM     40  H42 UNL     1      10.367  -8.145   1.317  1.00  0.00     0.177 HD
ATOM     41  H41 UNL     1       8.745  -7.539   1.554  1.00  0.00     0.177 HD
ENDBRANCH  36  39
ENDBRANCH  28  29
ENDBRANCH  26  27
ENDBRANCH  25  26
ENDBRANCH   1  24
TORSDOF 15
ENDMDL
MODEL 4
REMARK VINA RESULT: -8.202821526      2.746      4.674
REMARK  15 active torsions:
REMARK  status: ('A' for Active; 'I' for Inactive)
REMARK    1  A    between atoms: C2_2  and  C3_3 
REMARK    2  A    between atoms: C3_3  and  N1_4 
REMARK    3  A    between atoms: C10_11  and  C11_12 
REMARK    4  A    between atoms: C11_12  and  O1_13 
REMARK    5  A    between atoms: O1_13  and  C12_14 
REMARK    6  A    between atoms: C12_14  and  C13_16 
REMARK    7  A    between atoms: C13_16  and  C14_17 
REMARK    8  A    between atoms: C13_16  and  C16_19 
REMARK    9  A    between atoms: C13_16  and  C20_23 
REMARK   10  A    between atoms: C16_19  and  C17_20 
REMARK   11  A    between atoms: C17_20  and  C18_21 
REMARK   12  A    between atoms: C21_24  and  C22_25 
REMARK   13  A    between atoms: C22_25  and  C23_26 
REMARK   14  A    between atoms: C24_27  and  C25_28 
REMARK   15  A    between atoms: N3_35  and  N4_36 
ROOT
HETATM    1  C13 UNL     1       9.899  -2.131   6.763  1.00  0.00     0.065 C 
ENDROOT
BRANCH   1   2
HETATM    2  C12 UNL     1      10.482  -1.581   8.072  1.00  0.00     0.271 C 
HETATM    3  O2  UNL     1      10.645  -0.331   8.229  1.00  0.00    -0.264 OA
BRANCH   2   4
HETATM    4  O1  UNL     1      10.854  -2.370   9.120  1.00  0.00    -0.317 OA
BRANCH   4   5
HETATM    5  C11 UNL     1      12.040  -2.075   9.831  1.00  0.00     0.206 C 
BRANCH   5   6
HETATM    6  C10 UNL     1      12.962  -3.213   9.887  1.00  0.00     0.004 C 
HETATM    7  C9  UNL     1      13.329  -3.866  10.976  1.00  0.00    -0.052 C 
HETATM    8  C6  UNL     1      12.851  -3.533  12.343  1.00  0.00     0.019 C 
HETATM    9  C30 UNL     1      14.284  -5.026  10.906  1.00  0.00     0.272 C 
HETATM   10  C5  UNL     1      11.919  -4.658  12.761  1.00  0.00     0.037 C 
HETATM   11  C7  UNL     1      14.081  -3.676  13.251  1.00  0.00     0.037 C 
HETATM   12  C4  UNL     1      12.581  -5.948  12.320  1.00  0.00     0.239 C 
HETATM   13  N1  UNL     1      14.008  -5.802  12.114  1.00  0.00    -0.060 N 
HETATM   14  C8  UNL     1      14.566  -5.108  13.234  1.00  0.00     0.239 C 
BRANCH  13  15
HETATM   15  C3  UNL     1      14.574  -7.111  11.926  1.00  0.00     0.264 C 
BRANCH  15  16
HETATM   16  C2  UNL     1      15.900  -7.086  11.293  1.00  0.00    -0.009 C 
HETATM   17  C1  UNL     1      16.671  -8.164  11.358  1.00  0.00     0.008 C 
ENDBRANCH  15  16
ENDBRANCH  13  15
ENDBRANCH   5   6
ENDBRANCH   4   5
ENDBRANCH   2   4
ENDBRANCH   1   2
BRANCH   1  18
HETATM   18  C14 UNL     1      10.345  -1.398   5.568  1.00  0.00     0.019 C 
HETATM   19  C15 UNL     1       9.809  -0.055   5.272  1.00  0.00     0.006 C 
ENDBRANCH   1  18
BRANCH   1  20
HETATM   20  C16 UNL     1       8.418  -2.251   6.956  1.00  0.00     0.024 C 
BRANCH  20  21
HETATM   21  C17 UNL     1       7.939  -3.384   7.811  1.00  0.00     0.001 C 
BRANCH  21  22
HETATM   22  C18 UNL     1       7.265  -4.371   6.835  1.00  0.00    -0.005 C 
HETATM   23  C19 UNL     1       7.307  -5.771   7.346  1.00  0.00     0.005 C 
ENDBRANCH  21  22
ENDBRANCH  20  21
ENDBRANCH   1  20
BRANCH   1  24
HETATM   24  C20 UNL     1      10.485  -3.519   6.704  1.00  0.00    -0.010 C 
HETATM   25  C21 UNL     1      11.064  -4.122   5.539  1.00  0.00    -0.018 C 
BRANCH  25  26
HETATM   26  C22 UNL     1      10.303  -4.343   4.271  1.00  0.00     0.121 C 
BRANCH  26  27
HETATM   27  C23 UNL     1      11.212  -3.810   3.184  1.00  0.00    -0.097 C 
HETATM   28  C24 UNL     1      11.952  -3.395   2.329  1.00  0.00    -0.061 C 
BRANCH  28  29
HETATM   29  C25 UNL     1      12.851  -2.884   1.323  1.00  0.00     0.080 A 
HETATM   30  C26 UNL     1      13.391  -1.624   1.468  1.00  0.00     0.029 A 
HETATM   31  C27 UNL     1      13.055  -0.779   2.655  1.00  0.00     0.070 C 
HETATM   32  N2  UNL     1      14.224  -1.182   0.511  1.00  0.00    -0.334 N 
HETATM   33  C28 UNL     1      14.546  -1.931  -0.579  1.00  0.00     0.198 A 
ATOM     34  H2  UNL     1      14.630  -0.251   0.605  1.00  0.00     0.168 HD
HETATM   35  S1  UNL     1      15.564  -1.327  -1.699  1.00  0.00    -0.039 SA
HETATM   36  N3  UNL     1      14.028  -3.164  -0.737  1.00  0.00    -0.224 N 
HETATM   37  C29 UNL     1      13.193  -3.620   0.212  1.00  0.00     0.145 A 
HETATM   38  S2  UNL     1      12.540  -5.130   0.049  1.00  0.00    -0.057 SA
BRANCH  36  39
HETATM   39  N4  UNL     1      14.326  -3.975  -1.839  1.00  0.00    -0.335 N 
ATOM     40  H42 UNL     1      14.270  -3.582  -2.779  1.00  0.00     0.177 HD
ATOM     41  H41 UNL     1      14.599  -4.953  -1.746  1.00  0.00     0.177 HD
ENDBRANCH  36  39
ENDBRANCH  28  29
ENDBRANCH  26  27
ENDBRANCH  25  26
ENDBRANCH   1  24
TORSDOF 15
ENDMDL
MODEL 5
REMARK VINA RESULT: -8.201411785      2.551      4.346
REMARK  15 active torsions:
REMARK  status: ('A' for Active; 'I' for Inactive)
REMARK    1  A    between atoms: C2_2  and  C3_3 
REMARK    2  A    between atoms: C3_3  and  N1_4 
REMARK    3  A    between atoms: C10_11  and  C11_12 
REMARK    4  A    between atoms: C11_12  and  O1_13 
REMARK    5  A    between atoms: O1_13  and  C12_14 
REMARK    6  A    between atoms: C12_14  and  C13_16 
REMARK    7  A    between atoms: C13_16  and  C14_17 
REMARK    8  A    between atoms: C13_16  and  C16_19 
REMARK    9  A    between atoms: C13_16  and  C20_23 
REMARK   10  A    between atoms: C16_19  and  C17_20 
REMARK   11  A    between atoms: C17_20  and  C18_21 
REMARK   12  A    between atoms: C21_24  and  C22_25 
REMARK   13  A    between atoms: C22_25  and  C23_26 
REMARK   14  A    between atoms: C24_27  and  C25_28 
REMARK   15  A    between atoms: N3_35  and  N4_36 
ROOT
HETATM    1  C13 UNL     1       9.910  -2.147   6.805  1.00  0.00     0.065 C 
ENDROOT
BRANCH   1   2
HETATM    2  C12 UNL     1      10.481  -1.547   8.096  1.00  0.00     0.271 C 
HETATM    3  O2  UNL     1      10.656  -0.294   8.202  1.00  0.00    -0.264 OA
BRANCH   2   4
HETATM    4  O1  UNL     1      10.830  -2.294   9.182  1.00  0.00    -0.317 OA
BRANCH   4   5
HETATM    5  C11 UNL     1      12.028  -2.003   9.876  1.00  0.00     0.206 C 
BRANCH   5   6
HETATM    6  C10 UNL     1      12.953  -3.139   9.905  1.00  0.00     0.004 C 
HETATM    7  C9  UNL     1      13.314  -3.822  10.978  1.00  0.00    -0.052 C 
HETATM    8  C6  UNL     1      12.824  -3.531  12.350  1.00  0.00     0.019 C 
HETATM    9  C30 UNL     1      14.273  -4.977  10.881  1.00  0.00     0.272 C 
HETATM   10  C5  UNL     1      11.892  -4.672  12.727  1.00  0.00     0.037 C 
HETATM   11  C7  UNL     1      14.047  -3.698  13.263  1.00  0.00     0.037 C 
HETATM   12  C4  UNL     1      12.562  -5.946  12.253  1.00  0.00     0.239 C 
HETATM   13  N1  UNL     1      13.990  -5.789  12.064  1.00  0.00    -0.060 N 
HETATM   14  C8  UNL     1      14.537  -5.127  13.208  1.00  0.00     0.239 C 
BRANCH  13  15
HETATM   15  C3  UNL     1      14.562  -7.090  11.842  1.00  0.00     0.264 C 
BRANCH  15  16
HETATM   16  C2  UNL     1      15.933  -7.041  11.314  1.00  0.00    -0.009 C 
HETATM   17  C1  UNL     1      16.657  -8.152  11.283  1.00  0.00     0.008 C 
ENDBRANCH  15  16
ENDBRANCH  13  15
ENDBRANCH   5   6
ENDBRANCH   4   5
ENDBRANCH   2   4
ENDBRANCH   1   2
BRANCH   1  18
HETATM   18  C14 UNL     1      10.315  -1.421   5.590  1.00  0.00     0.019 C 
HETATM   19  C15 UNL     1       9.767  -0.081   5.305  1.00  0.00     0.006 C 
ENDBRANCH   1  18
BRANCH   1  20
HETATM   20  C16 UNL     1       8.437  -2.323   7.014  1.00  0.00     0.024 C 
BRANCH  20  21
HETATM   21  C17 UNL     1       8.011  -3.477   7.869  1.00  0.00     0.001 C 
BRANCH  21  22
HETATM   22  C18 UNL     1       7.220  -4.409   6.929  1.00  0.00    -0.005 C 
HETATM   23  C19 UNL     1       7.217  -5.817   7.417  1.00  0.00     0.005 C 
ENDBRANCH  21  22
ENDBRANCH  20  21
ENDBRANCH   1  20
BRANCH   1  24
HETATM   24  C20 UNL     1      10.551  -3.511   6.767  1.00  0.00    -0.010 C 
HETATM   25  C21 UNL     1      11.004  -4.179   5.581  1.00  0.00    -0.018 C 
BRANCH  25  26
HETATM   26  C22 UNL     1      10.097  -4.527   4.445  1.00  0.00     0.121 C 
BRANCH  26  27
HETATM   27  C23 UNL     1      10.940  -4.314   3.206  1.00  0.00    -0.097 C 
HETATM   28  C24 UNL     1      11.617  -4.125   2.228  1.00  0.00    -0.061 C 
BRANCH  28  29
HETATM   29  C25 UNL     1      12.412  -3.878   1.049  1.00  0.00     0.080 A 
HETATM   30  C26 UNL     1      12.402  -4.791   0.017  1.00  0.00     0.029 A 
HETATM   31  C27 UNL     1      11.579  -6.036   0.103  1.00  0.00     0.070 C 
HETATM   32  N2  UNL     1      13.155  -4.527  -1.064  1.00  0.00    -0.334 N 
HETATM   33  C28 UNL     1      13.914  -3.402  -1.168  1.00  0.00     0.198 A 
ATOM     34  H2  UNL     1      13.158  -5.195  -1.836  1.00  0.00     0.168 HD
HETATM   35  S1  UNL     1      14.801  -3.150  -2.511  1.00  0.00    -0.039 SA
HETATM   36  N3  UNL     1      13.934  -2.498  -0.169  1.00  0.00    -0.224 N 
HETATM   37  C29 UNL     1      13.187  -2.748   0.919  1.00  0.00     0.145 A 
HETATM   38  S2  UNL     1      13.190  -1.660   2.163  1.00  0.00    -0.057 SA
BRANCH  36  39
HETATM   39  N4  UNL     1      14.697  -1.326  -0.225  1.00  0.00    -0.335 N 
ATOM     40  H42 UNL     1      15.704  -1.390  -0.378  1.00  0.00     0.177 HD
ATOM     41  H41 UNL     1      14.289  -0.397  -0.120  1.00  0.00     0.177 HD
ENDBRANCH  36  39
ENDBRANCH  28  29
ENDBRANCH  26  27
ENDBRANCH  25  26
ENDBRANCH   1  24
TORSDOF 15
ENDMDL
