MODEL 1
REMARK VINA RESULT: -6.921334933      0.000      0.000
REMARK  3 active torsions:
REMARK  status: ('A' for Active; 'I' for Inactive)
REMARK    1  A    between atoms: N1_1  and  C1_4 
REMARK    2  A    between atoms: C4_11  and  N4_12 
REMARK    3  A    between atoms: N6_20  and  N7_21 
ROOT
HETATM    1  C1  UNL     1      34.073  39.774  26.460  1.00  0.00     0.678 A 
HETATM    2  N2  UNL     1      35.285  39.224  26.465  1.00  0.00    -0.175 N 
ATOM      3  H2  UNL     1      35.494  38.275  26.156  1.00  0.00     0.186 HD
HETATM    4  C2  UNL     1      36.210  40.111  26.943  1.00  0.00     0.149 A 
HETATM    5  C3  UNL     1      35.495  41.266  27.241  1.00  0.00     0.138 A 
HETATM    6  N3  UNL     1      34.210  41.022  26.937  1.00  0.00    -0.184 N 
ATOM      7  H3  UNL     1      33.447  41.689  27.050  1.00  0.00     0.184 HD
HETATM    8  C4  UNL     1      36.102  42.334  27.731  1.00  0.00     0.153 A 
HETATM    9  N6  UNL     1      37.503  42.246  27.935  1.00  0.00    -0.263 N 
HETATM   10  C9  UNL     1      38.269  41.058  27.633  1.00  0.00     0.273 A 
HETATM   11  N8  UNL     1      37.460  39.994  27.112  1.00  0.00    -0.356 N 
ATOM     12  H8  UNL     1      37.907  39.111  26.868  1.00  0.00     0.162 HD
ENDROOT
BRANCH   8  13
HETATM   13  N4  UNL     1      35.395  43.521  28.042  1.00  0.00    -0.361 N 
HETATM   14  C5  UNL     1      35.185  44.590  27.068  1.00  0.00     0.152 C 
HETATM   15  C6  UNL     1      34.665  45.795  27.779  1.00  0.00     0.252 C 
HETATM   16  N5  UNL     1      33.493  45.571  28.563  1.00  0.00    -0.072 N 
HETATM   17  C7  UNL     1      33.392  44.239  29.108  1.00  0.00     0.252 C 
ATOM     18  H52 UNL     1      33.421  46.268  29.305  1.00  0.00     0.277 HD
ATOM     19  H51 UNL     1      32.656  45.802  28.027  1.00  0.00     0.277 HD
HETATM   20  C8  UNL     1      34.824  43.757  29.366  1.00  0.00     0.152 C 
ENDBRANCH   8  13
BRANCH   9  21
HETATM   21  N7  UNL     1      38.229  43.344  28.455  1.00  0.00    -0.340 N 
ATOM     22  H72 UNL     1      38.787  43.161  29.289  1.00  0.00     0.177 HD
ATOM     23  H71 UNL     1      38.184  44.259  28.007  1.00  0.00     0.177 HD
ENDBRANCH   9  21
BRANCH   1  24
HETATM   24  N1  UNL     1      32.953  39.234  26.076  1.00  0.00    -0.234 N 
ATOM     25  H12 UNL     1      32.843  38.611  25.276  1.00  0.00     0.174 HD
ATOM     26  H11 UNL     1      32.030  39.341  26.496  1.00  0.00     0.174 HD
ENDBRANCH   1  24
TORSDOF 3
ENDMDL
MODEL 2
REMARK VINA RESULT: -6.773183093      0.374      1.228
REMARK  3 active torsions:
REMARK  status: ('A' for Active; 'I' for Inactive)
REMARK    1  A    between atoms: N1_1  and  C1_4 
REMARK    2  A    between atoms: C4_11  and  N4_12 
REMARK    3  A    between atoms: N6_20  and  N7_21 
ROOT
HETATM    1  C1  UNL     1      34.054  39.749  26.421  1.00  0.00     0.678 A 
HETATM    2  N2  UNL     1      35.276  39.222  26.469  1.00  0.00    -0.175 N 
ATOM      3  H2  UNL     1      35.511  38.273  26.178  1.00  0.00     0.186 HD
HETATM    4  C2  UNL     1      36.170  40.131  26.962  1.00  0.00     0.149 A 
HETATM    5  C3  UNL     1      35.425  41.277  27.225  1.00  0.00     0.138 A 
HETATM    6  N3  UNL     1      34.154  41.006  26.886  1.00  0.00    -0.184 N 
ATOM      7  H3  UNL     1      33.377  41.660  26.969  1.00  0.00     0.184 HD
HETATM    8  C4  UNL     1      35.998  42.362  27.718  1.00  0.00     0.153 A 
HETATM    9  N6  UNL     1      37.394  42.302  27.964  1.00  0.00    -0.263 N 
HETATM   10  C9  UNL     1      38.190  41.125  27.700  1.00  0.00     0.273 A 
HETATM   11  N8  UNL     1      37.416  40.040  27.169  1.00  0.00    -0.356 N 
ATOM     12  H8  UNL     1      37.886  39.162  26.949  1.00  0.00     0.162 HD
ENDROOT
BRANCH   8  13
HETATM   13  N4  UNL     1      35.261  43.539  27.993  1.00  0.00    -0.361 N 
HETATM   14  C5  UNL     1      34.639  43.793  29.291  1.00  0.00     0.152 C 
HETATM   15  C6  UNL     1      33.719  44.961  29.164  1.00  0.00     0.252 C 
HETATM   16  N5  UNL     1      34.319  46.145  28.638  1.00  0.00    -0.072 N 
HETATM   17  C7  UNL     1      35.399  45.899  27.713  1.00  0.00     0.252 C 
ATOM     18  H52 UNL     1      33.612  46.744  28.210  1.00  0.00     0.277 HD
ATOM     19  H51 UNL     1      34.628  46.755  29.394  1.00  0.00     0.277 HD
HETATM   20  C8  UNL     1      35.073  44.586  26.991  1.00  0.00     0.152 C 
ENDBRANCH   8  13
BRANCH   9  21
HETATM   21  N7  UNL     1      38.084  43.419  28.491  1.00  0.00    -0.340 N 
ATOM     22  H72 UNL     1      38.455  44.082  27.811  1.00  0.00     0.177 HD
ATOM     23  H71 UNL     1      38.195  43.537  29.498  1.00  0.00     0.177 HD
ENDBRANCH   9  21
BRANCH   1  24
HETATM   24  N1  UNL     1      32.956  39.184  26.012  1.00  0.00    -0.234 N 
ATOM     25  H12 UNL     1      32.858  38.201  25.757  1.00  0.00     0.174 HD
ATOM     26  H11 UNL     1      32.042  39.615  25.880  1.00  0.00     0.174 HD
ENDBRANCH   1  24
TORSDOF 3
ENDMDL
MODEL 3
REMARK VINA RESULT: -6.615587343      1.538      1.538
REMARK  3 active torsions:
REMARK  status: ('A' for Active; 'I' for Inactive)
REMARK    1  A    between atoms: N1_1  and  C1_4 
REMARK    2  A    between atoms: C4_11  and  N4_12 
REMARK    3  A    between atoms: N6_20  and  N7_21 
ROOT
HETATM    1  C1  UNL     1      34.968  40.666  24.226  1.00  0.00     0.678 A 
HETATM    2  N2  UNL     1      36.169  40.101  24.325  1.00  0.00    -0.175 N 
ATOM      3  H2  UNL     1      36.501  39.336  23.737  1.00  0.00     0.186 HD
HETATM    4  C2  UNL     1      36.893  40.688  25.325  1.00  0.00     0.149 A 
HETATM    5  C3  UNL     1      36.063  41.670  25.854  1.00  0.00     0.138 A 
HETATM    6  N3  UNL     1      34.911  41.625  25.166  1.00  0.00    -0.184 N 
ATOM      7  H3  UNL     1      34.108  42.231  25.331  1.00  0.00     0.184 HD
HETATM    8  C4  UNL     1      36.467  42.436  26.855  1.00  0.00     0.153 A 
HETATM    9  N6  UNL     1      37.774  42.210  27.356  1.00  0.00    -0.263 N 
HETATM   10  C9  UNL     1      38.657  41.196  26.823  1.00  0.00     0.273 A 
HETATM   11  N8  UNL     1      38.065  40.457  25.745  1.00  0.00    -0.356 N 
ATOM     12  H8  UNL     1      38.608  39.717  25.301  1.00  0.00     0.162 HD
ENDROOT
BRANCH   8  13
HETATM   13  N4  UNL     1      35.639  43.442  27.410  1.00  0.00    -0.361 N 
HETATM   14  C5  UNL     1      35.634  44.817  26.916  1.00  0.00     0.152 C 
HETATM   15  C6  UNL     1      34.881  45.672  27.880  1.00  0.00     0.252 C 
HETATM   16  N5  UNL     1      33.558  45.223  28.177  1.00  0.00    -0.072 N 
HETATM   17  C7  UNL     1      33.391  43.791  28.108  1.00  0.00     0.252 C 
ATOM     18  H52 UNL     1      33.257  45.575  29.086  1.00  0.00     0.277 HD
ATOM     19  H51 UNL     1      32.880  45.692  27.576  1.00  0.00     0.277 HD
HETATM   20  C8  UNL     1      34.730  43.170  28.521  1.00  0.00     0.152 C 
ENDBRANCH   8  13
BRANCH   9  21
HETATM   21  N7  UNL     1      38.285  42.985  28.424  1.00  0.00    -0.340 N 
ATOM     22  H72 UNL     1      38.750  42.471  29.172  1.00  0.00     0.177 HD
ATOM     23  H71 UNL     1      38.183  43.999  28.427  1.00  0.00     0.177 HD
ENDBRANCH   9  21
BRANCH   1  24
HETATM   24  N1  UNL     1      34.012  40.371  23.394  1.00  0.00    -0.234 N 
ATOM     25  H12 UNL     1      33.927  40.728  22.442  1.00  0.00     0.174 HD
ATOM     26  H11 UNL     1      33.215  39.755  23.550  1.00  0.00     0.174 HD
ENDBRANCH   1  24
TORSDOF 3
ENDMDL
MODEL 4
REMARK VINA RESULT: -6.375747985      1.536      1.898
REMARK  3 active torsions:
REMARK  status: ('A' for Active; 'I' for Inactive)
REMARK    1  A    between atoms: N1_1  and  C1_4 
REMARK    2  A    between atoms: C4_11  and  N4_12 
REMARK    3  A    between atoms: N6_20  and  N7_21 
ROOT
HETATM    1  C1  UNL     1      34.940  40.668  24.238  1.00  0.00     0.678 A 
HETATM    2  N2  UNL     1      36.143  40.108  24.348  1.00  0.00    -0.175 N 
ATOM      3  H2  UNL     1      36.483  39.343  23.766  1.00  0.00     0.186 HD
HETATM    4  C2  UNL     1      36.857  40.703  25.350  1.00  0.00     0.149 A 
HETATM    5  C3  UNL     1      36.019  41.684  25.869  1.00  0.00     0.138 A 
HETATM    6  N3  UNL     1      34.872  41.631  25.172  1.00  0.00    -0.184 N 
ATOM      7  H3  UNL     1      34.066  42.235  25.329  1.00  0.00     0.184 HD
HETATM    8  C4  UNL     1      36.413  42.456  26.869  1.00  0.00     0.153 A 
HETATM    9  N6  UNL     1      37.718  42.237  27.380  1.00  0.00    -0.263 N 
HETATM   10  C9  UNL     1      38.609  41.225  26.858  1.00  0.00     0.273 A 
HETATM   11  N8  UNL     1      38.027  40.478  25.780  1.00  0.00    -0.356 N 
ATOM     12  H8  UNL     1      38.577  39.739  25.343  1.00  0.00     0.162 HD
ENDROOT
BRANCH   8  13
HETATM   13  N4  UNL     1      35.577  43.461  27.414  1.00  0.00    -0.361 N 
HETATM   14  C5  UNL     1      34.644  43.200  28.508  1.00  0.00     0.152 C 
HETATM   15  C6  UNL     1      33.731  44.372  28.651  1.00  0.00     0.252 C 
HETATM   16  N5  UNL     1      34.386  45.629  28.819  1.00  0.00    -0.072 N 
HETATM   17  C7  UNL     1      35.672  45.717  28.167  1.00  0.00     0.252 C 
ATOM     18  H52 UNL     1      33.780  46.391  28.516  1.00  0.00     0.277 HD
ATOM     19  H51 UNL     1      34.471  45.858  29.809  1.00  0.00     0.277 HD
HETATM   20  C8  UNL     1      35.594  44.835  26.916  1.00  0.00     0.152 C 
ENDBRANCH   8  13
BRANCH   9  21
HETATM   21  N7  UNL     1      38.217  43.019  28.449  1.00  0.00    -0.340 N 
ATOM     22  H72 UNL     1      37.589  43.734  28.816  1.00  0.00     0.177 HD
ATOM     23  H71 UNL     1      39.155  42.861  28.817  1.00  0.00     0.177 HD
ENDBRANCH   9  21
BRANCH   1  24
HETATM   24  N1  UNL     1      33.992  40.365  23.400  1.00  0.00    -0.234 N 
ATOM     25  H12 UNL     1      33.786  40.866  22.535  1.00  0.00     0.174 HD
ATOM     26  H11 UNL     1      33.318  39.603  23.466  1.00  0.00     0.174 HD
ENDBRANCH   1  24
TORSDOF 3
ENDMDL
MODEL 5
REMARK VINA RESULT: -6.200992857      1.721      3.112
REMARK  3 active torsions:
REMARK  status: ('A' for Active; 'I' for Inactive)
REMARK    1  A    between atoms: N1_1  and  C1_4 
REMARK    2  A    between atoms: C4_11  and  N4_12 
REMARK    3  A    between atoms: N6_20  and  N7_21 
ROOT
HETATM    1  C1  UNL     1      37.639  40.430  24.667  1.00  0.00     0.678 A 
HETATM    2  N2  UNL     1      36.767  39.444  24.867  1.00  0.00    -0.175 N 
ATOM      3  H2  UNL     1      36.837  38.513  24.456  1.00  0.00     0.186 HD
HETATM    4  C2  UNL     1      35.764  39.854  25.701  1.00  0.00     0.149 A 
HETATM    5  C3  UNL     1      36.064  41.175  26.017  1.00  0.00     0.138 A 
HETATM    6  N3  UNL     1      37.202  41.485  25.374  1.00  0.00    -0.184 N 
ATOM      7  H3  UNL     1      37.667  42.391  25.415  1.00  0.00     0.184 HD
HETATM    8  C4  UNL     1      35.281  41.878  26.819  1.00  0.00     0.153 A 
HETATM    9  N6  UNL     1      34.132  41.226  27.335  1.00  0.00    -0.263 N 
HETATM   10  C9  UNL     1      33.797  39.854  27.023  1.00  0.00     0.273 A 
HETATM   11  N8  UNL     1      34.749  39.239  26.142  1.00  0.00    -0.356 N 
ATOM     12  H8  UNL     1      34.602  38.270  25.860  1.00  0.00     0.162 HD
ENDROOT
BRANCH   8  13
HETATM   13  N4  UNL     1      35.565  43.224  27.155  1.00  0.00    -0.361 N 
HETATM   14  C5  UNL     1      35.111  44.350  26.342  1.00  0.00     0.152 C 
HETATM   15  C6  UNL     1      35.805  45.588  26.804  1.00  0.00     0.252 C 
HETATM   16  N5  UNL     1      35.672  45.868  28.198  1.00  0.00    -0.072 N 
HETATM   17  C7  UNL     1      35.537  44.694  29.026  1.00  0.00     0.252 C 
ATOM     18  H52 UNL     1      36.447  46.446  28.522  1.00  0.00     0.277 HD
ATOM     19  H51 UNL     1      34.896  46.511  28.360  1.00  0.00     0.277 HD
HETATM   20  C8  UNL     1      36.337  43.578  28.344  1.00  0.00     0.152 C 
ENDBRANCH   8  13
BRANCH   9  21
HETATM   21  N7  UNL     1      33.241  41.905  28.200  1.00  0.00    -0.340 N 
ATOM     22  H72 UNL     1      33.613  42.173  29.111  1.00  0.00     0.177 HD
ATOM     23  H71 UNL     1      32.284  42.106  27.910  1.00  0.00     0.177 HD
ENDBRANCH   9  21
BRANCH   1  24
HETATM   24  N1  UNL     1      38.715  40.408  23.936  1.00  0.00    -0.234 N 
ATOM     25  H12 UNL     1      38.966  39.669  23.278  1.00  0.00     0.174 HD
ATOM     26  H11 UNL     1      39.461  41.101  23.900  1.00  0.00     0.174 HD
ENDBRANCH   1  24
TORSDOF 3
ENDMDL
