MODEL 1
REMARK VINA RESULT: -6.335371873      0.000      0.000
REMARK  4 active torsions:
REMARK  status: ('A' for Active; 'I' for Inactive)
REMARK       I    between atoms: C3_3  and  N1_5 
REMARK    1  A    between atoms: N1_5  and  C4_7 
REMARK    2  A    between atoms: C6_12  and  N2_13 
REMARK    3  A    between atoms: C7_17  and  N3_18 
REMARK    4  A    between atoms: C7_17  and  O4_22 
ROOT
HETATM    1  C1  UNL     1      40.609  45.715  27.420  1.00  0.00     0.108 C 
HETATM    2  C2  UNL     1      39.738  44.857  27.350  1.00  0.00    -0.088 C 
HETATM    3  C3  UNL     1      38.725  43.858  27.287  1.00  0.00     0.284 C 
HETATM    4  O1  UNL     1      37.988  43.668  28.276  1.00  0.00    -0.259 OA
HETATM    5  N1  UNL     1      38.538  43.079  26.127  1.00  0.00    -0.341 N 
ATOM      6  H1  UNL     1      39.153  43.254  25.332  1.00  0.00     0.164 HD
ENDROOT
BRANCH   5   7
HETATM    7  C4  UNL     1      37.538  42.053  25.990  1.00  0.00     0.165 C 
HETATM    8  C5  UNL     1      37.072  41.882  24.551  1.00  0.00     0.173 C 
HETATM    9  S1  UNL     1      36.164  40.333  24.705  1.00  0.00     0.180 S 
HETATM   10  O2  UNL     1      36.579  39.366  23.659  1.00  0.00    -0.226 OA
HETATM   11  O3  UNL     1      34.698  40.567  24.771  1.00  0.00    -0.226 OA
HETATM   12  C6  UNL     1      36.773  39.835  26.323  1.00  0.00     0.368 C 
HETATM   13  C7  UNL     1      38.050  40.688  26.376  1.00  0.00     0.285 C 
BRANCH  12  14
HETATM   14  N2  UNL     1      37.187  38.465  26.324  1.00  0.00    -0.057 N 
ATOM     15  H23 UNL     1      36.419  37.842  26.075  1.00  0.00     0.276 HD
ATOM     16  H22 UNL     1      37.813  38.263  25.545  1.00  0.00     0.276 HD
ATOM     17  H21 UNL     1      37.605  38.205  27.218  1.00  0.00     0.276 HD
ENDBRANCH  12  14
BRANCH  13  18
HETATM   18  N3  UNL     1      38.564  40.614  27.688  1.00  0.00    -0.042 N 
ATOM     19  H33 UNL     1      39.566  40.806  27.689  1.00  0.00     0.278 HD
ATOM     20  H32 UNL     1      38.234  41.402  28.245  1.00  0.00     0.278 HD
ATOM     21  H31 UNL     1      38.370  39.733  28.164  1.00  0.00     0.278 HD
ENDBRANCH  13  18
BRANCH  13  22
HETATM   22  O4  UNL     1      38.881  40.206  25.389  1.00  0.00    -0.361 OA
ATOM     23  H4  UNL     1      38.595  39.341  25.123  1.00  0.00     0.212 HD
ENDBRANCH  13  22
ENDBRANCH   5   7
TORSDOF 4
ENDMDL
MODEL 2
REMARK VINA RESULT: -6.206438233      1.123      1.232
REMARK  4 active torsions:
REMARK  status: ('A' for Active; 'I' for Inactive)
REMARK       I    between atoms: C3_3  and  N1_5 
REMARK    1  A    between atoms: N1_5  and  C4_7 
REMARK    2  A    between atoms: C6_12  and  N2_13 
REMARK    3  A    between atoms: C7_17  and  N3_18 
REMARK    4  A    between atoms: C7_17  and  O4_22 
ROOT
HETATM    1  C1  UNL     1      40.226  46.084  26.705  1.00  0.00     0.108 C 
HETATM    2  C2  UNL     1      39.567  45.080  26.949  1.00  0.00    -0.088 C 
HETATM    3  C3  UNL     1      38.814  43.908  27.243  1.00  0.00     0.284 C 
HETATM    4  O1  UNL     1      38.972  43.337  28.342  1.00  0.00    -0.259 OA
HETATM    5  N1  UNL     1      37.893  43.378  26.317  1.00  0.00    -0.341 N 
ATOM      6  H1  UNL     1      37.782  43.863  25.425  1.00  0.00     0.164 HD
ENDROOT
BRANCH   5   7
HETATM    7  C4  UNL     1      37.098  42.200  26.544  1.00  0.00     0.165 C 
HETATM    8  C5  UNL     1      35.783  42.227  25.780  1.00  0.00     0.173 C 
HETATM    9  S1  UNL     1      35.270  40.513  25.990  1.00  0.00     0.180 S 
HETATM   10  O2  UNL     1      34.889  39.908  24.690  1.00  0.00    -0.226 OA
HETATM   11  O3  UNL     1      34.236  40.382  27.049  1.00  0.00    -0.226 OA
HETATM   12  C6  UNL     1      36.832  39.845  26.580  1.00  0.00     0.368 C 
HETATM   13  C7  UNL     1      37.777  40.941  26.064  1.00  0.00     0.285 C 
BRANCH  12  14
HETATM   14  N2  UNL     1      37.176  38.639  25.891  1.00  0.00    -0.057 N 
ATOM     15  H23 UNL     1      36.348  38.091  25.659  1.00  0.00     0.276 HD
ATOM     16  H22 UNL     1      37.508  38.830  24.946  1.00  0.00     0.276 HD
ATOM     17  H21 UNL     1      37.853  38.089  26.421  1.00  0.00     0.276 HD
ENDBRANCH  12  14
BRANCH  13  18
HETATM   18  N3  UNL     1      39.049  40.718  26.631  1.00  0.00    -0.042 N 
ATOM     19  H33 UNL     1      39.308  39.734  26.549  1.00  0.00     0.278 HD
ATOM     20  H32 UNL     1      39.776  41.138  26.052  1.00  0.00     0.278 HD
ATOM     21  H31 UNL     1      39.136  41.030  27.598  1.00  0.00     0.278 HD
ENDBRANCH  13  18
BRANCH  13  22
HETATM   22  O4  UNL     1      37.726  40.881  24.688  1.00  0.00    -0.361 OA
ATOM     23  H4  UNL     1      36.975  41.369  24.373  1.00  0.00     0.212 HD
ENDBRANCH  13  22
ENDBRANCH   5   7
TORSDOF 4
ENDMDL
MODEL 3
REMARK VINA RESULT: -6.165255044      3.516      4.442
REMARK  4 active torsions:
REMARK  status: ('A' for Active; 'I' for Inactive)
REMARK       I    between atoms: C3_3  and  N1_5 
REMARK    1  A    between atoms: N1_5  and  C4_7 
REMARK    2  A    between atoms: C6_12  and  N2_13 
REMARK    3  A    between atoms: C7_17  and  N3_18 
REMARK    4  A    between atoms: C7_17  and  O4_22 
ROOT
HETATM    1  C1  UNL     1      32.193  43.069  30.287  1.00  0.00     0.108 C 
HETATM    2  C2  UNL     1      32.850  43.004  29.255  1.00  0.00    -0.088 C 
HETATM    3  C3  UNL     1      33.602  42.938  28.048  1.00  0.00     0.284 C 
HETATM    4  O1  UNL     1      33.474  43.842  27.196  1.00  0.00    -0.259 OA
HETATM    5  N1  UNL     1      34.487  41.871  27.794  1.00  0.00    -0.341 N 
ATOM      6  H1  UNL     1      34.574  41.144  28.506  1.00  0.00     0.164 HD
ENDROOT
BRANCH   5   7
HETATM    7  C4  UNL     1      35.278  41.738  26.599  1.00  0.00     0.165 C 
HETATM    8  C5  UNL     1      36.720  42.178  26.802  1.00  0.00     0.173 C 
HETATM    9  S1  UNL     1      37.455  41.533  25.289  1.00  0.00     0.180 S 
HETATM   10  O2  UNL     1      38.678  40.747  25.583  1.00  0.00    -0.226 OA
HETATM   11  O3  UNL     1      37.648  42.606  24.279  1.00  0.00    -0.226 OA
HETATM   12  C6  UNL     1      36.104  40.459  24.782  1.00  0.00     0.368 C 
HETATM   13  C7  UNL     1      35.392  40.307  26.136  1.00  0.00     0.285 C 
BRANCH  12  14
HETATM   14  N2  UNL     1      36.580  39.161  24.413  1.00  0.00    -0.057 N 
ATOM     15  H23 UNL     1      37.594  39.097  24.500  1.00  0.00     0.276 HD
ATOM     16  H22 UNL     1      36.318  38.457  25.103  1.00  0.00     0.276 HD
ATOM     17  H21 UNL     1      36.267  38.903  23.477  1.00  0.00     0.276 HD
ENDBRANCH  12  14
BRANCH  13  18
HETATM   18  N3  UNL     1      34.154  39.674  25.904  1.00  0.00    -0.042 N 
ATOM     19  H33 UNL     1      34.289  38.678  25.727  1.00  0.00     0.278 HD
ATOM     20  H32 UNL     1      33.611  39.625  26.766  1.00  0.00     0.278 HD
ATOM     21  H31 UNL     1      33.601  40.096  25.157  1.00  0.00     0.278 HD
ENDBRANCH  13  18
BRANCH  13  22
HETATM   22  O4  UNL     1      36.261  39.620  26.956  1.00  0.00    -0.361 OA
ATOM     23  H4  UNL     1      37.142  39.670  26.604  1.00  0.00     0.212 HD
ENDBRANCH  13  22
ENDBRANCH   5   7
TORSDOF 4
ENDMDL
MODEL 4
REMARK VINA RESULT: -6.048799482      4.203      5.590
REMARK  4 active torsions:
REMARK  status: ('A' for Active; 'I' for Inactive)
REMARK       I    between atoms: C3_3  and  N1_5 
REMARK    1  A    between atoms: N1_5  and  C4_7 
REMARK    2  A    between atoms: C6_12  and  N2_13 
REMARK    3  A    between atoms: C7_17  and  N3_18 
REMARK    4  A    between atoms: C7_17  and  O4_22 
ROOT
HETATM    1  C1  UNL     1      38.199  41.513  24.031  1.00  0.00     0.108 C 
HETATM    2  C2  UNL     1      37.582  41.654  25.079  1.00  0.00    -0.088 C 
HETATM    3  C3  UNL     1      36.863  41.801  26.300  1.00  0.00     0.284 C 
HETATM    4  O1  UNL     1      36.918  40.894  27.156  1.00  0.00    -0.259 OA
HETATM    5  N1  UNL     1      36.091  42.951  26.560  1.00  0.00    -0.341 N 
ATOM      6  H1  UNL     1      36.063  43.678  25.845  1.00  0.00     0.164 HD
ENDROOT
BRANCH   5   7
HETATM    7  C4  UNL     1      35.340  43.169  27.769  1.00  0.00     0.165 C 
HETATM    8  C5  UNL     1      35.259  44.640  28.148  1.00  0.00     0.173 C 
HETATM    9  S1  UNL     1      33.984  44.560  29.419  1.00  0.00     0.180 S 
HETATM   10  O2  UNL     1      32.925  45.569  29.174  1.00  0.00    -0.226 OA
HETATM   11  O3  UNL     1      34.573  44.613  30.782  1.00  0.00    -0.226 OA
HETATM   12  C6  UNL     1      33.384  42.899  29.080  1.00  0.00     0.368 C 
HETATM   13  C7  UNL     1      33.899  42.742  27.641  1.00  0.00     0.285 C 
BRANCH  12  14
HETATM   14  N2  UNL     1      31.955  42.864  29.017  1.00  0.00    -0.057 N 
ATOM     15  H23 UNL     1      31.630  42.318  28.219  1.00  0.00     0.276 HD
ATOM     16  H22 UNL     1      31.562  42.295  29.767  1.00  0.00     0.276 HD
ATOM     17  H21 UNL     1      31.560  43.804  29.015  1.00  0.00     0.276 HD
ENDBRANCH  12  14
BRANCH  13  18
HETATM   18  N3  UNL     1      33.727  41.394  27.265  1.00  0.00    -0.042 N 
ATOM     19  H33 UNL     1      32.937  40.982  27.763  1.00  0.00     0.278 HD
ATOM     20  H32 UNL     1      33.380  41.332  26.307  1.00  0.00     0.278 HD
ATOM     21  H31 UNL     1      34.560  40.817  27.380  1.00  0.00     0.278 HD
ENDBRANCH  13  18
BRANCH  13  22
HETATM   22  O4  UNL     1      33.208  43.659  26.879  1.00  0.00    -0.361 OA
ATOM     23  H4  UNL     1      32.804  43.222  26.139  1.00  0.00     0.212 HD
ENDBRANCH  13  22
ENDBRANCH   5   7
TORSDOF 4
ENDMDL
MODEL 5
REMARK VINA RESULT: -5.927139161      1.907      2.048
REMARK  4 active torsions:
REMARK  status: ('A' for Active; 'I' for Inactive)
REMARK       I    between atoms: C3_3  and  N1_5 
REMARK    1  A    between atoms: N1_5  and  C4_7 
REMARK    2  A    between atoms: C6_12  and  N2_13 
REMARK    3  A    between atoms: C7_17  and  N3_18 
REMARK    4  A    between atoms: C7_17  and  O4_22 
ROOT
HETATM    1  C1  UNL     1      39.542  44.765  28.674  1.00  0.00     0.108 C 
HETATM    2  C2  UNL     1      38.989  43.762  28.240  1.00  0.00    -0.088 C 
HETATM    3  C3  UNL     1      38.359  42.587  27.740  1.00  0.00     0.284 C 
HETATM    4  O1  UNL     1      38.686  41.473  28.200  1.00  0.00    -0.259 OA
HETATM    5  N1  UNL     1      37.373  42.656  26.735  1.00  0.00    -0.341 N 
ATOM      6  H1  UNL     1      37.124  43.578  26.376  1.00  0.00     0.164 HD
ENDROOT
BRANCH   5   7
HETATM    7  C4  UNL     1      36.695  41.513  26.182  1.00  0.00     0.165 C 
HETATM    8  C5  UNL     1      35.267  41.830  25.762  1.00  0.00     0.173 C 
HETATM    9  S1  UNL     1      34.892  40.347  24.809  1.00  0.00     0.180 S 
HETATM   10  O2  UNL     1      34.325  40.695  23.484  1.00  0.00    -0.226 OA
HETATM   11  O3  UNL     1      34.066  39.393  25.593  1.00  0.00    -0.226 OA
HETATM   12  C6  UNL     1      36.567  39.712  24.648  1.00  0.00     0.368 C 
HETATM   13  C7  UNL     1      37.347  41.007  24.920  1.00  0.00     0.285 C 
BRANCH  12  14
HETATM   14  N2  UNL     1      36.851  39.329  23.299  1.00  0.00    -0.057 N 
ATOM     15  H23 UNL     1      36.058  39.511  22.683  1.00  0.00     0.276 HD
ATOM     16  H22 UNL     1      37.531  39.955  22.868  1.00  0.00     0.276 HD
ATOM     17  H21 UNL     1      37.152  38.356  23.244  1.00  0.00     0.276 HD
ENDBRANCH  12  14
BRANCH  13  18
HETATM   18  N3  UNL     1      38.708  40.669  25.067  1.00  0.00    -0.042 N 
ATOM     19  H33 UNL     1      39.294  41.296  24.515  1.00  0.00     0.278 HD
ATOM     20  H32 UNL     1      39.035  40.906  26.004  1.00  0.00     0.278 HD
ATOM     21  H31 UNL     1      38.923  39.696  24.850  1.00  0.00     0.278 HD
ENDBRANCH  13  18
BRANCH  13  22
HETATM   22  O4  UNL     1      37.062  41.859  23.875  1.00  0.00    -0.361 OA
ATOM     23  H4  UNL     1      37.379  42.731  24.076  1.00  0.00     0.212 HD
ENDBRANCH  13  22
ENDBRANCH   5   7
TORSDOF 4
ENDMDL
