MODEL 1
REMARK VINA RESULT: -7.237034982      0.000      0.000
REMARK  2 active torsions:
REMARK  status: ('A' for Active; 'I' for Inactive)
REMARK    1  A    between atoms: N1_1  and  N2_4 
REMARK       I    between atoms: N2_4  and  C1_6 
REMARK       I    between atoms: C1_6  and  N3_8 
REMARK    2  A    between atoms: C3_15  and  S1_16 
ROOT
HETATM    1  N2  UNL     1      35.966  38.890  26.343  1.00  0.00    -0.258 N 
ATOM      2  H2  UNL     1      35.749  38.189  27.052  1.00  0.00     0.191 HD
HETATM    3  C1  UNL     1      35.130  40.021  26.158  1.00  0.00     0.352 C 
HETATM    4  O1  UNL     1      35.384  40.903  25.281  1.00  0.00    -0.245 OA
HETATM    5  N3  UNL     1      33.982  40.215  26.941  1.00  0.00    -0.137 N 
ATOM      6  H3  UNL     1      33.243  39.512  26.887  1.00  0.00     0.189 HD
HETATM    7  C2  UNL     1      33.799  41.223  27.724  1.00  0.00     0.715 A 
HETATM    8  N4  UNL     1      34.739  42.279  27.903  1.00  0.00    -0.128 N 
ATOM      9  H4  UNL     1      35.618  42.253  27.387  1.00  0.00     0.205 HD
HETATM   10  N5  UNL     1      34.486  43.351  28.770  1.00  0.00    -0.258 N 
ATOM     11  H5  UNL     1      35.197  44.077  28.856  1.00  0.00     0.190 HD
HETATM   12  C3  UNL     1      33.405  43.473  29.464  1.00  0.00     0.255 A 
HETATM   13  N6  UNL     1      32.430  42.448  29.326  1.00  0.00    -0.258 N 
ATOM     14  H6  UNL     1      31.567  42.522  29.866  1.00  0.00     0.190 HD
HETATM   15  N7  UNL     1      32.598  41.335  28.480  1.00  0.00    -0.128 N 
ATOM     16  H7  UNL     1      31.872  40.622  28.410  1.00  0.00     0.205 HD
ENDROOT
BRANCH   1  17
HETATM   17  N1  UNL     1      37.091  38.763  25.531  1.00  0.00    -0.341 N 
ATOM     18  H12 UNL     1      37.458  37.837  25.311  1.00  0.00     0.177 HD
ATOM     19  H11 UNL     1      37.524  39.613  25.170  1.00  0.00     0.177 HD
ENDBRANCH   1  17
BRANCH  12  20
HETATM   20  S1  UNL     1      33.153  44.850  30.535  1.00  0.00     0.175 S 
HETATM   21  O2  UNL     1      32.776  46.073  29.781  1.00  0.00    -0.589 OA
HETATM   22  O3  UNL     1      34.409  45.010  31.333  1.00  0.00    -0.589 OA
HETATM   23  O4  UNL     1      31.894  44.518  31.621  1.00  0.00    -0.589 OA
ENDBRANCH  12  20
TORSDOF 2
ENDMDL
MODEL 2
REMARK VINA RESULT: -7.228561237      0.086      1.154
REMARK  2 active torsions:
REMARK  status: ('A' for Active; 'I' for Inactive)
REMARK    1  A    between atoms: N1_1  and  N2_4 
REMARK       I    between atoms: N2_4  and  C1_6 
REMARK       I    between atoms: C1_6  and  N3_8 
REMARK    2  A    between atoms: C3_15  and  S1_16 
ROOT
HETATM    1  N2  UNL     1      35.955  38.890  26.331  1.00  0.00    -0.258 N 
ATOM      2  H2  UNL     1      35.732  38.180  27.028  1.00  0.00     0.191 HD
HETATM    3  C1  UNL     1      35.121  40.022  26.151  1.00  0.00     0.352 C 
HETATM    4  O1  UNL     1      35.383  40.915  25.288  1.00  0.00    -0.245 OA
HETATM    5  N3  UNL     1      33.963  40.205  26.924  1.00  0.00    -0.137 N 
ATOM      6  H3  UNL     1      33.226  39.502  26.853  1.00  0.00     0.189 HD
HETATM    7  C2  UNL     1      33.771  41.203  27.717  1.00  0.00     0.715 A 
HETATM    8  N4  UNL     1      34.708  42.257  27.920  1.00  0.00    -0.128 N 
ATOM      9  H4  UNL     1      35.592  42.239  27.413  1.00  0.00     0.205 HD
HETATM   10  N5  UNL     1      34.444  43.318  28.797  1.00  0.00    -0.258 N 
ATOM     11  H5  UNL     1      35.154  44.044  28.900  1.00  0.00     0.190 HD
HETATM   12  C3  UNL     1      33.356  43.430  29.481  1.00  0.00     0.255 A 
HETATM   13  N6  UNL     1      32.383  42.406  29.320  1.00  0.00    -0.258 N 
ATOM     14  H6  UNL     1      31.515  42.473  29.851  1.00  0.00     0.190 HD
HETATM   15  N7  UNL     1      32.562  41.304  28.462  1.00  0.00    -0.128 N 
ATOM     16  H7  UNL     1      31.838  40.591  28.375  1.00  0.00     0.205 HD
ENDROOT
BRANCH   1  17
HETATM   17  N1  UNL     1      37.089  38.774  25.529  1.00  0.00    -0.341 N 
ATOM     18  H12 UNL     1      37.342  37.869  25.132  1.00  0.00     0.177 HD
ATOM     19  H11 UNL     1      37.646  39.611  25.357  1.00  0.00     0.177 HD
ENDBRANCH   1  17
BRANCH  12  20
HETATM   20  S1  UNL     1      33.091  44.793  30.567  1.00  0.00     0.175 S 
HETATM   21  O2  UNL     1      32.052  44.493  31.586  1.00  0.00    -0.589 OA
HETATM   22  O3  UNL     1      32.751  45.969  29.706  1.00  0.00    -0.589 OA
HETATM   23  O4  UNL     1      34.521  45.161  31.398  1.00  0.00    -0.589 OA
ENDBRANCH  12  20
TORSDOF 2
ENDMDL
MODEL 3
REMARK VINA RESULT: -7.029645751      1.853      2.632
REMARK  2 active torsions:
REMARK  status: ('A' for Active; 'I' for Inactive)
REMARK    1  A    between atoms: N1_1  and  N2_4 
REMARK       I    between atoms: N2_4  and  C1_6 
REMARK       I    between atoms: C1_6  and  N3_8 
REMARK    2  A    between atoms: C3_15  and  S1_16 
ROOT
HETATM    1  N2  UNL     1      37.265  40.057  23.900  1.00  0.00    -0.258 N 
ATOM      2  H2  UNL     1      37.845  40.861  23.656  1.00  0.00     0.191 HD
HETATM    3  C1  UNL     1      36.816  39.860  25.230  1.00  0.00     0.352 C 
HETATM    4  O1  UNL     1      36.095  38.866  25.552  1.00  0.00    -0.245 OA
HETATM    5  N3  UNL     1      37.152  40.760  26.254  1.00  0.00    -0.137 N 
ATOM      6  H3  UNL     1      38.139  40.880  26.479  1.00  0.00     0.189 HD
HETATM    7  C2  UNL     1      36.292  41.445  26.927  1.00  0.00     0.715 A 
HETATM    8  N4  UNL     1      34.883  41.384  26.725  1.00  0.00    -0.128 N 
ATOM      9  H4  UNL     1      34.511  40.763  26.006  1.00  0.00     0.205 HD
HETATM   10  N5  UNL     1      33.994  42.154  27.489  1.00  0.00    -0.258 N 
ATOM     11  H5  UNL     1      32.996  42.066  27.298  1.00  0.00     0.190 HD
HETATM   12  C3  UNL     1      34.366  42.965  28.420  1.00  0.00     0.255 A 
HETATM   13  N6  UNL     1      35.763  43.069  28.667  1.00  0.00    -0.258 N 
ATOM     14  H6  UNL     1      36.081  43.705  29.398  1.00  0.00     0.190 HD
HETATM   15  N7  UNL     1      36.727  42.335  27.950  1.00  0.00    -0.128 N 
ATOM     16  H7  UNL     1      37.720  42.438  28.159  1.00  0.00     0.205 HD
ENDROOT
BRANCH   1  17
HETATM   17  N1  UNL     1      36.893  39.124  22.934  1.00  0.00    -0.341 N 
ATOM     18  H12 UNL     1      36.823  39.403  21.956  1.00  0.00     0.177 HD
ATOM     19  H11 UNL     1      36.698  38.169  23.237  1.00  0.00     0.177 HD
ENDBRANCH   1  17
BRANCH  12  20
HETATM   20  S1  UNL     1      33.193  43.903  29.343  1.00  0.00     0.175 S 
HETATM   21  O2  UNL     1      31.864  43.240  29.381  1.00  0.00    -0.589 OA
HETATM   22  O3  UNL     1      33.156  45.268  28.730  1.00  0.00    -0.589 OA
HETATM   23  O4  UNL     1      33.718  44.075  30.945  1.00  0.00    -0.589 OA
ENDBRANCH  12  20
TORSDOF 2
ENDMDL
MODEL 4
REMARK VINA RESULT: -7.029391562      1.863      2.738
REMARK  2 active torsions:
REMARK  status: ('A' for Active; 'I' for Inactive)
REMARK    1  A    between atoms: N1_1  and  N2_4 
REMARK       I    between atoms: N2_4  and  C1_6 
REMARK       I    between atoms: C1_6  and  N3_8 
REMARK    2  A    between atoms: C3_15  and  S1_16 
ROOT
HETATM    1  N2  UNL     1      37.277  40.107  23.935  1.00  0.00    -0.258 N 
ATOM      2  H2  UNL     1      37.848  40.916  23.690  1.00  0.00     0.191 HD
HETATM    3  C1  UNL     1      36.838  39.903  25.268  1.00  0.00     0.352 C 
HETATM    4  O1  UNL     1      36.127  38.903  25.592  1.00  0.00    -0.245 OA
HETATM    5  N3  UNL     1      37.171  40.804  26.291  1.00  0.00    -0.137 N 
ATOM      6  H3  UNL     1      38.159  40.933  26.511  1.00  0.00     0.189 HD
HETATM    7  C2  UNL     1      36.309  41.480  26.972  1.00  0.00     0.715 A 
HETATM    8  N4  UNL     1      34.900  41.407  26.778  1.00  0.00    -0.128 N 
ATOM      9  H4  UNL     1      34.529  40.785  26.060  1.00  0.00     0.205 HD
HETATM   10  N5  UNL     1      34.009  42.167  27.549  1.00  0.00    -0.258 N 
ATOM     11  H5  UNL     1      33.011  42.072  27.363  1.00  0.00     0.190 HD
HETATM   12  C3  UNL     1      34.380  42.981  28.479  1.00  0.00     0.255 A 
HETATM   13  N6  UNL     1      35.777  43.096  28.718  1.00  0.00    -0.258 N 
ATOM     14  H6  UNL     1      36.093  43.734  29.448  1.00  0.00     0.190 HD
HETATM   15  N7  UNL     1      36.743  42.372  27.993  1.00  0.00    -0.128 N 
ATOM     16  H7  UNL     1      37.736  42.484  28.197  1.00  0.00     0.205 HD
ENDROOT
BRANCH   1  17
HETATM   17  N1  UNL     1      36.907  39.172  22.970  1.00  0.00    -0.341 N 
ATOM     18  H12 UNL     1      36.264  38.418  23.212  1.00  0.00     0.177 HD
ATOM     19  H11 UNL     1      37.296  39.268  22.032  1.00  0.00     0.177 HD
ENDBRANCH   1  17
BRANCH  12  20
HETATM   20  S1  UNL     1      33.204  43.906  29.410  1.00  0.00     0.175 S 
HETATM   21  O2  UNL     1      33.584  43.997  30.844  1.00  0.00    -0.589 OA
HETATM   22  O3  UNL     1      31.874  43.257  29.190  1.00  0.00    -0.589 OA
HETATM   23  O4  UNL     1      33.107  45.490  28.814  1.00  0.00    -0.589 OA
ENDBRANCH  12  20
TORSDOF 2
ENDMDL
MODEL 5
REMARK VINA RESULT: -6.993497889      1.855      2.495
REMARK  2 active torsions:
REMARK  status: ('A' for Active; 'I' for Inactive)
REMARK    1  A    between atoms: N1_1  and  N2_4 
REMARK       I    between atoms: N2_4  and  C1_6 
REMARK       I    between atoms: C1_6  and  N3_8 
REMARK    2  A    between atoms: C3_15  and  S1_16 
ROOT
HETATM    1  N2  UNL     1      37.264  40.018  23.893  1.00  0.00    -0.258 N 
ATOM      2  H2  UNL     1      37.878  40.798  23.659  1.00  0.00     0.191 HD
HETATM    3  C1  UNL     1      36.796  39.831  25.219  1.00  0.00     0.352 C 
HETATM    4  O1  UNL     1      36.033  38.866  25.529  1.00  0.00    -0.245 OA
HETATM    5  N3  UNL     1      37.159  40.711  26.251  1.00  0.00    -0.137 N 
ATOM      6  H3  UNL     1      38.149  40.790  26.485  1.00  0.00     0.189 HD
HETATM    7  C2  UNL     1      36.322  41.427  26.921  1.00  0.00     0.715 A 
HETATM    8  N4  UNL     1      34.913  41.423  26.707  1.00  0.00    -0.128 N 
ATOM      9  H4  UNL     1      34.523  40.823  25.982  1.00  0.00     0.205 HD
HETATM   10  N5  UNL     1      34.050  42.224  27.469  1.00  0.00    -0.258 N 
ATOM     11  H5  UNL     1      33.051  42.178  27.268  1.00  0.00     0.190 HD
HETATM   12  C3  UNL     1      34.446  43.015  28.407  1.00  0.00     0.255 A 
HETATM   13  N6  UNL     1      35.844  43.061  28.666  1.00  0.00    -0.258 N 
ATOM     14  H6  UNL     1      36.181  43.679  29.404  1.00  0.00     0.190 HD
HETATM   15  N7  UNL     1      36.784  42.293  27.953  1.00  0.00    -0.128 N 
ATOM     16  H7  UNL     1      37.778  42.354  28.171  1.00  0.00     0.205 HD
ENDROOT
BRANCH   1  17
HETATM   17  N1  UNL     1      36.863  39.105  22.920  1.00  0.00    -0.341 N 
ATOM     18  H12 UNL     1      36.118  38.438  23.123  1.00  0.00     0.177 HD
ATOM     19  H11 UNL     1      37.331  39.129  22.014  1.00  0.00     0.177 HD
ENDBRANCH   1  17
BRANCH  12  20
HETATM   20  S1  UNL     1      33.305  43.994  29.326  1.00  0.00     0.175 S 
HETATM   21  O2  UNL     1      33.097  45.328  28.705  1.00  0.00    -0.589 OA
HETATM   22  O3  UNL     1      33.830  44.068  30.725  1.00  0.00    -0.589 OA
HETATM   23  O4  UNL     1      31.795  43.225  29.385  1.00  0.00    -0.589 OA
ENDBRANCH  12  20
TORSDOF 2
ENDMDL
