MODEL 1
REMARK VINA RESULT: -6.712616901      0.000      0.000
REMARK  5 active torsions:
REMARK  status: ('A' for Active; 'I' for Inactive)
REMARK    1  A    between atoms: N1_2  and  N2_3 
REMARK    2  A    between atoms: N1_2  and  C2_6 
REMARK    3  A    between atoms: C2_6  and  O1_7 
REMARK       I    between atoms: N3_10  and  C4_11 
REMARK    4  A    between atoms: C4_11  and  C5_13 
REMARK    5  A    between atoms: C5_13  and  N4_14 
ROOT
HETATM    1  C5  UNL     1      33.542  42.884  28.589  1.00  0.00     0.380 C 
HETATM    2  C6  UNL     1      33.493  43.589  29.898  1.00  0.00     0.102 C 
HETATM    3  N5  UNL     1      33.472  44.143  30.910  1.00  0.00    -0.195 NA
ENDROOT
BRANCH   1   4
HETATM    4  C4  UNL     1      34.956  42.905  28.168  1.00  0.00     0.264 C 
HETATM    5  N3  UNL     1      35.670  41.962  27.447  1.00  0.00    -0.342 N 
HETATM    6  C3  UNL     1      35.162  40.727  26.948  1.00  0.00     0.206 C 
HETATM    7  C7  UNL     1      37.088  42.226  27.146  1.00  0.00     0.145 C 
HETATM    8  C2  UNL     1      36.149  39.858  26.242  1.00  0.00     0.223 C 
HETATM    9  N6  UNL     1      37.463  39.842  26.785  1.00  0.00    -0.375 N 
HETATM   10  C8  UNL     1      37.812  40.979  27.584  1.00  0.00     0.138 C 
ATOM     11  H6  UNL     1      38.113  39.075  26.617  1.00  0.00     0.157 HD
HETATM   12  O2  UNL     1      35.584  43.968  28.542  1.00  0.00    -0.270 OA
BRANCH   8  13
HETATM   13  N1  UNL     1      36.245  40.275  24.859  1.00  0.00    -0.188 NA
HETATM   14  C1  UNL     1      34.965  40.639  24.301  1.00  0.00     0.141 C 
BRANCH  13  15
HETATM   15  N2  UNL     1      36.783  39.200  24.151  1.00  0.00    -0.360 NA
ATOM     16  H22 UNL     1      37.090  39.566  23.250  1.00  0.00     0.171 HD
ATOM     17  H21 UNL     1      37.546  38.781  24.683  1.00  0.00     0.171 HD
ENDBRANCH  13  15
ENDBRANCH   8  13
BRANCH   8  18
HETATM   18  O1  UNL     1      35.656  38.543  26.253  1.00  0.00    -0.356 OA
ATOM     19  H1  UNL     1      34.708  38.593  26.210  1.00  0.00     0.214 HD
ENDBRANCH   8  18
ENDBRANCH   1   4
BRANCH   1  20
HETATM   20  N4  UNL     1      32.639  43.499  27.682  1.00  0.00    -0.054 N 
ATOM     21  H43 UNL     1      32.482  44.472  27.945  1.00  0.00     0.276 HD
ATOM     22  H42 UNL     1      33.086  43.631  26.774  1.00  0.00     0.276 HD
ATOM     23  H41 UNL     1      31.749  43.015  27.569  1.00  0.00     0.276 HD
ENDBRANCH   1  20
TORSDOF 5
ENDMDL
MODEL 2
REMARK VINA RESULT: -6.152476904      2.877      3.585
REMARK  5 active torsions:
REMARK  status: ('A' for Active; 'I' for Inactive)
REMARK    1  A    between atoms: N1_2  and  N2_3 
REMARK    2  A    between atoms: N1_2  and  C2_6 
REMARK    3  A    between atoms: C2_6  and  O1_7 
REMARK       I    between atoms: N3_10  and  C4_11 
REMARK    4  A    between atoms: C4_11  and  C5_13 
REMARK    5  A    between atoms: C5_13  and  N4_14 
ROOT
HETATM    1  C5  UNL     1      38.093  43.170  28.103  1.00  0.00     0.380 C 
HETATM    2  C6  UNL     1      39.302  43.955  28.466  1.00  0.00     0.102 C 
HETATM    3  N5  UNL     1      40.242  44.572  28.730  1.00  0.00    -0.195 NA
ENDROOT
BRANCH   1   4
HETATM    4  C4  UNL     1      38.058  43.134  26.628  1.00  0.00     0.264 C 
HETATM    5  N3  UNL     1      37.571  42.148  25.785  1.00  0.00    -0.342 N 
HETATM    6  C3  UNL     1      36.983  40.915  26.191  1.00  0.00     0.206 C 
HETATM    7  C7  UNL     1      37.648  42.360  24.329  1.00  0.00     0.145 C 
HETATM    8  C2  UNL     1      36.580  39.994  25.087  1.00  0.00     0.223 C 
HETATM    9  N6  UNL     1      37.449  39.956  23.962  1.00  0.00    -0.375 N 
HETATM   10  C8  UNL     1      38.287  41.106  23.792  1.00  0.00     0.138 C 
ATOM     11  H6  UNL     1      37.474  39.164  23.320  1.00  0.00     0.157 HD
HETATM   12  O2  UNL     1      38.561  44.188  26.080  1.00  0.00    -0.270 OA
BRANCH   8  13
HETATM   13  N1  UNL     1      35.262  40.366  24.616  1.00  0.00    -0.188 NA
HETATM   14  C1  UNL     1      34.218  39.986  25.537  1.00  0.00     0.141 C 
BRANCH  13  15
HETATM   15  N2  UNL     1      35.075  39.720  23.393  1.00  0.00    -0.360 NA
ATOM     16  H22 UNL     1      35.987  39.685  22.938  1.00  0.00     0.171 HD
ATOM     17  H21 UNL     1      34.678  38.794  23.547  1.00  0.00     0.171 HD
ENDBRANCH  13  15
ENDBRANCH   8  13
BRANCH   8  18
HETATM   18  O1  UNL     1      36.489  38.696  25.614  1.00  0.00    -0.356 OA
ATOM     19  H1  UNL     1      37.224  38.198  25.277  1.00  0.00     0.214 HD
ENDBRANCH   8  18
ENDBRANCH   1   4
BRANCH   1  20
HETATM   20  N4  UNL     1      36.948  43.745  28.713  1.00  0.00    -0.054 N 
ATOM     21  H43 UNL     1      36.761  44.666  28.316  1.00  0.00     0.276 HD
ATOM     22  H42 UNL     1      36.105  43.252  28.420  1.00  0.00     0.276 HD
ATOM     23  H41 UNL     1      36.987  43.801  29.731  1.00  0.00     0.276 HD
ENDBRANCH   1  20
TORSDOF 5
ENDMDL
MODEL 3
REMARK VINA RESULT: -6.122215448      1.870      2.264
REMARK  5 active torsions:
REMARK  status: ('A' for Active; 'I' for Inactive)
REMARK    1  A    between atoms: N1_2  and  N2_3 
REMARK    2  A    between atoms: N1_2  and  C2_6 
REMARK    3  A    between atoms: C2_6  and  O1_7 
REMARK       I    between atoms: N3_10  and  C4_11 
REMARK    4  A    between atoms: C4_11  and  C5_13 
REMARK    5  A    between atoms: C5_13  and  N4_14 
ROOT
HETATM    1  C5  UNL     1      33.811  43.034  28.910  1.00  0.00     0.380 C 
HETATM    2  C6  UNL     1      33.295  44.274  29.548  1.00  0.00     0.102 C 
HETATM    3  N5  UNL     1      32.900  45.247  30.027  1.00  0.00    -0.195 NA
ENDROOT
BRANCH   1   4
HETATM    4  C4  UNL     1      34.675  43.476  27.799  1.00  0.00     0.264 C 
HETATM    5  N3  UNL     1      35.883  42.954  27.366  1.00  0.00    -0.342 N 
HETATM    6  C3  UNL     1      36.567  41.840  27.934  1.00  0.00     0.206 C 
HETATM    7  C7  UNL     1      36.553  43.582  26.213  1.00  0.00     0.145 C 
HETATM    8  C2  UNL     1      37.883  41.503  27.315  1.00  0.00     0.223 C 
HETATM    9  N6  UNL     1      38.679  42.608  26.908  1.00  0.00    -0.375 N 
HETATM   10  C8  UNL     1      37.965  43.829  26.676  1.00  0.00     0.138 C 
ATOM     11  H6  UNL     1      39.689  42.537  26.788  1.00  0.00     0.157 HD
HETATM   12  O2  UNL     1      34.206  44.495  27.162  1.00  0.00    -0.270 OA
BRANCH   8  13
HETATM   13  N1  UNL     1      37.662  40.664  26.156  1.00  0.00    -0.188 NA
HETATM   14  C1  UNL     1      36.790  39.549  26.438  1.00  0.00     0.141 C 
BRANCH  13  15
HETATM   15  N2  UNL     1      38.914  40.198  25.752  1.00  0.00    -0.360 NA
ATOM     16  H22 UNL     1      38.746  39.476  25.052  1.00  0.00     0.171 HD
ATOM     17  H21 UNL     1      39.472  40.971  25.392  1.00  0.00     0.171 HD
ENDBRANCH  13  15
ENDBRANCH   8  13
BRANCH   8  18
HETATM   18  O1  UNL     1      38.620  40.752  28.246  1.00  0.00    -0.356 OA
ATOM     19  H1  UNL     1      38.509  41.161  29.095  1.00  0.00     0.214 HD
ENDBRANCH   8  18
ENDBRANCH   1   4
BRANCH   1  20
HETATM   20  N4  UNL     1      32.723  42.205  28.528  1.00  0.00    -0.054 N 
ATOM     21  H43 UNL     1      32.418  42.437  27.583  1.00  0.00     0.276 HD
ATOM     22  H42 UNL     1      33.043  41.248  28.381  1.00  0.00     0.276 HD
ATOM     23  H41 UNL     1      31.930  42.217  29.168  1.00  0.00     0.276 HD
ENDBRANCH   1  20
TORSDOF 5
ENDMDL
MODEL 4
REMARK VINA RESULT: -6.107954794      1.793      5.335
REMARK  5 active torsions:
REMARK  status: ('A' for Active; 'I' for Inactive)
REMARK    1  A    between atoms: N1_2  and  N2_3 
REMARK    2  A    between atoms: N1_2  and  C2_6 
REMARK    3  A    between atoms: C2_6  and  O1_7 
REMARK       I    between atoms: N3_10  and  C4_11 
REMARK    4  A    between atoms: C4_11  and  C5_13 
REMARK    5  A    between atoms: C5_13  and  N4_14 
ROOT
HETATM    1  C5  UNL     1      35.714  39.682  26.722  1.00  0.00     0.380 C 
HETATM    2  C6  UNL     1      35.204  40.014  25.365  1.00  0.00     0.102 C 
HETATM    3  N5  UNL     1      34.818  40.289  24.312  1.00  0.00    -0.195 NA
ENDROOT
BRANCH   1   4
HETATM    4  C4  UNL     1      36.196  40.951  27.298  1.00  0.00     0.264 C 
HETATM    5  N3  UNL     1      35.477  42.080  27.659  1.00  0.00    -0.342 N 
HETATM    6  C3  UNL     1      34.068  42.251  27.536  1.00  0.00     0.206 C 
HETATM    7  C7  UNL     1      36.204  43.230  28.227  1.00  0.00     0.145 C 
HETATM    8  C2  UNL     1      33.538  43.585  27.949  1.00  0.00     0.223 C 
HETATM    9  N6  UNL     1      34.354  44.704  27.628  1.00  0.00    -0.375 N 
HETATM   10  C8  UNL     1      35.742  44.414  27.418  1.00  0.00     0.138 C 
ATOM     11  H6  UNL     1      33.978  45.648  27.552  1.00  0.00     0.157 HD
HETATM   12  O2  UNL     1      37.473  40.977  27.479  1.00  0.00    -0.270 OA
BRANCH   8  13
HETATM   13  N1  UNL     1      33.325  43.588  29.382  1.00  0.00    -0.188 NA
HETATM   14  C1  UNL     1      32.308  42.649  29.792  1.00  0.00     0.141 C 
BRANCH  13  15
HETATM   15  N2  UNL     1      32.943  44.884  29.728  1.00  0.00    -0.360 NA
ATOM     16  H22 UNL     1      31.926  44.882  29.794  1.00  0.00     0.171 HD
ATOM     17  H21 UNL     1      33.391  45.156  30.603  1.00  0.00     0.171 HD
ENDBRANCH  13  15
ENDBRANCH   8  13
BRANCH   8  18
HETATM   18  O1  UNL     1      32.287  43.764  27.336  1.00  0.00    -0.356 OA
ATOM     19  H1  UNL     1      31.621  43.537  27.973  1.00  0.00     0.214 HD
ENDBRANCH   8  18
ENDBRANCH   1   4
BRANCH   1  20
HETATM   20  N4  UNL     1      36.693  38.659  26.627  1.00  0.00    -0.054 N 
ATOM     21  H43 UNL     1      37.199  38.735  25.744  1.00  0.00     0.276 HD
ATOM     22  H42 UNL     1      37.454  38.836  27.283  1.00  0.00     0.276 HD
ATOM     23  H41 UNL     1      36.337  37.711  26.749  1.00  0.00     0.276 HD
ENDBRANCH   1  20
TORSDOF 5
ENDMDL
MODEL 5
REMARK VINA RESULT: -6.102552375      1.049      1.076
REMARK  5 active torsions:
REMARK  status: ('A' for Active; 'I' for Inactive)
REMARK    1  A    between atoms: N1_2  and  N2_3 
REMARK    2  A    between atoms: N1_2  and  C2_6 
REMARK    3  A    between atoms: C2_6  and  O1_7 
REMARK       I    between atoms: N3_10  and  C4_11 
REMARK    4  A    between atoms: C4_11  and  C5_13 
REMARK    5  A    between atoms: C5_13  and  N4_14 
ROOT
HETATM    1  C5  UNL     1      33.551  42.877  27.996  1.00  0.00     0.380 C 
HETATM    2  C6  UNL     1      33.150  43.163  29.399  1.00  0.00     0.102 C 
HETATM    3  N5  UNL     1      32.855  43.393  30.491  1.00  0.00    -0.195 NA
ENDROOT
BRANCH   1   4
HETATM    4  C4  UNL     1      35.011  43.086  27.940  1.00  0.00     0.264 C 
HETATM    5  N3  UNL     1      36.003  42.231  27.487  1.00  0.00    -0.342 N 
HETATM    6  C3  UNL     1      35.805  40.919  26.967  1.00  0.00     0.206 C 
HETATM    7  C7  UNL     1      37.404  42.687  27.531  1.00  0.00     0.145 C 
HETATM    8  C2  UNL     1      37.046  40.177  26.593  1.00  0.00     0.223 C 
HETATM    9  N6  UNL     1      38.167  40.371  27.445  1.00  0.00    -0.375 N 
HETATM   10  C8  UNL     1      38.148  41.574  28.223  1.00  0.00     0.138 C 
ATOM     11  H6  UNL     1      38.933  39.700  27.498  1.00  0.00     0.157 HD
HETATM   12  O2  UNL     1      35.378  44.241  28.382  1.00  0.00    -0.270 OA
BRANCH   8  13
HETATM   13  N1  UNL     1      37.437  40.555  25.250  1.00  0.00    -0.188 NA
HETATM   14  C1  UNL     1      36.588  39.970  24.241  1.00  0.00     0.141 C 
BRANCH  13  15
HETATM   15  N2  UNL     1      38.751  40.117  25.077  1.00  0.00    -0.360 NA
ATOM     16  H22 UNL     1      38.735  39.434  24.320  1.00  0.00     0.171 HD
ATOM     17  H21 UNL     1      39.358  40.911  24.875  1.00  0.00     0.171 HD
ENDBRANCH  13  15
ENDBRANCH   8  13
BRANCH   8  18
HETATM   18  O1  UNL     1      36.742  38.806  26.574  1.00  0.00    -0.356 OA
ATOM     19  H1  UNL     1      36.399  38.577  27.430  1.00  0.00     0.214 HD
ENDBRANCH   8  18
ENDBRANCH   1   4
BRANCH   1  20
HETATM   20  N4  UNL     1      32.797  43.688  27.108  1.00  0.00    -0.054 N 
ATOM     21  H43 UNL     1      33.258  43.740  26.200  1.00  0.00     0.276 HD
ATOM     22  H42 UNL     1      31.934  43.213  26.842  1.00  0.00     0.276 HD
ATOM     23  H41 UNL     1      32.591  44.625  27.453  1.00  0.00     0.276 HD
ENDBRANCH   1  20
TORSDOF 5
ENDMDL
