MODEL 1
REMARK VINA RESULT: -6.845502944      0.000      0.000
REMARK  6 active torsions:
REMARK  status: ('A' for Active; 'I' for Inactive)
REMARK    1  A    between atoms: N1_1  and  C1_5 
REMARK    2  A    between atoms: C1_5  and  N2_6 
REMARK    3  A    between atoms: C1_5  and  C2_10 
REMARK       I    between atoms: C2_10  and  N3_12 
REMARK    4  A    between atoms: N3_12  and  C3_14 
REMARK    5  A    between atoms: C4_19  and  S1_20 
REMARK    6  A    between atoms: S1_20  and  N6_21 
ROOT
HETATM    1  C3  UNL     1      34.779  41.989  26.924  1.00  0.00     0.701 A 
HETATM    2  N4  UNL     1      33.660  41.293  27.179  1.00  0.00    -0.130 N 
ATOM      3  H4  UNL     1      33.353  40.460  26.677  1.00  0.00     0.205 HD
HETATM    4  N5  UNL     1      33.009  41.872  28.203  1.00  0.00    -0.260 N 
ATOM      5  H5  UNL     1      32.129  41.551  28.605  1.00  0.00     0.190 HD
HETATM    6  C4  UNL     1      33.711  42.941  28.609  1.00  0.00     0.253 A 
HETATM    7  N7  UNL     1      34.795  42.994  27.809  1.00  0.00    -0.162 N 
ATOM      8  H7  UNL     1      35.527  43.703  27.870  1.00  0.00     0.186 HD
ENDROOT
BRANCH   1   9
HETATM    9  N3  UNL     1      35.635  41.712  26.010  1.00  0.00    -0.155 N 
HETATM   10  C2  UNL     1      35.704  40.531  25.278  1.00  0.00     0.294 C 
HETATM   11  O1  UNL     1      34.681  39.889  24.889  1.00  0.00    -0.268 OA
ATOM     12  H3  UNL     1      36.332  42.426  25.799  1.00  0.00     0.187 HD
BRANCH  10  13
HETATM   13  C1  UNL     1      37.020  39.957  24.913  1.00  0.00     0.469 C 
BRANCH  13  14
HETATM   14  N1  UNL     1      37.265  38.800  25.712  1.00  0.00    -0.042 N 
ATOM     15  H13 UNL     1      38.210  38.436  25.593  1.00  0.00     0.277 HD
ATOM     16  H12 UNL     1      37.321  39.018  26.707  1.00  0.00     0.277 HD
ATOM     17  H11 UNL     1      36.549  38.102  25.505  1.00  0.00     0.277 HD
ENDBRANCH  13  14
BRANCH  13  18
HETATM   18  N2  UNL     1      37.021  39.563  23.503  1.00  0.00    -0.042 N 
ATOM     19  H23 UNL     1      37.964  39.457  23.128  1.00  0.00     0.277 HD
ATOM     20  H22 UNL     1      36.706  38.602  23.366  1.00  0.00     0.277 HD
ATOM     21  H21 UNL     1      36.465  40.235  22.975  1.00  0.00     0.277 HD
ENDBRANCH  13  18
ENDBRANCH  10  13
ENDBRANCH   1   9
BRANCH   6  22
HETATM   22  S1  UNL     1      33.306  44.042  29.908  1.00  0.00     0.290 S 
HETATM   23  O2  UNL     1      32.878  45.348  29.310  1.00  0.00    -0.198 OA
HETATM   24  O3  UNL     1      32.158  43.525  30.719  1.00  0.00    -0.198 OA
BRANCH  22  25
HETATM   25  N6  UNL     1      34.685  44.365  30.900  1.00  0.00    -0.322 N 
ATOM     26  H62 UNL     1      35.036  43.720  31.607  1.00  0.00     0.169 HD
ATOM     27  H61 UNL     1      35.089  45.276  30.680  1.00  0.00     0.169 HD
ENDBRANCH  22  25
ENDBRANCH   6  22
TORSDOF 6
ENDMDL
MODEL 2
REMARK VINA RESULT: -6.728812927      0.955      1.136
REMARK  6 active torsions:
REMARK  status: ('A' for Active; 'I' for Inactive)
REMARK    1  A    between atoms: N1_1  and  C1_5 
REMARK    2  A    between atoms: C1_5  and  N2_6 
REMARK    3  A    between atoms: C1_5  and  C2_10 
REMARK       I    between atoms: C2_10  and  N3_12 
REMARK    4  A    between atoms: N3_12  and  C3_14 
REMARK    5  A    between atoms: C4_19  and  S1_20 
REMARK    6  A    between atoms: S1_20  and  N6_21 
ROOT
HETATM    1  C3  UNL     1      34.748  41.966  26.901  1.00  0.00     0.701 A 
HETATM    2  N4  UNL     1      33.640  41.260  27.180  1.00  0.00    -0.130 N 
ATOM      3  H4  UNL     1      33.339  40.415  26.695  1.00  0.00     0.205 HD
HETATM    4  N5  UNL     1      32.993  41.847  28.200  1.00  0.00    -0.260 N 
ATOM      5  H5  UNL     1      32.121  41.522  28.617  1.00  0.00     0.190 HD
HETATM    6  C4  UNL     1      33.684  42.933  28.581  1.00  0.00     0.253 A 
HETATM    7  N7  UNL     1      34.760  42.987  27.769  1.00  0.00    -0.162 N 
ATOM      8  H7  UNL     1      35.482  43.706  27.810  1.00  0.00     0.186 HD
ENDROOT
BRANCH   1   9
HETATM    9  N3  UNL     1      35.597  41.685  25.982  1.00  0.00    -0.155 N 
HETATM   10  C2  UNL     1      35.692  40.483  25.289  1.00  0.00     0.294 C 
HETATM   11  O1  UNL     1      34.684  39.798  24.938  1.00  0.00    -0.268 OA
ATOM     12  H3  UNL     1      36.269  42.413  25.737  1.00  0.00     0.187 HD
BRANCH  10  13
HETATM   13  C1  UNL     1      37.019  39.938  24.921  1.00  0.00     0.469 C 
BRANCH  13  14
HETATM   14  N1  UNL     1      37.285  38.779  25.711  1.00  0.00    -0.042 N 
ATOM     15  H13 UNL     1      36.475  38.163  25.785  1.00  0.00     0.277 HD
ATOM     16  H12 UNL     1      37.917  38.127  25.247  1.00  0.00     0.277 HD
ATOM     17  H11 UNL     1      37.633  39.077  26.623  1.00  0.00     0.277 HD
ENDBRANCH  13  14
BRANCH  13  18
HETATM   18  N2  UNL     1      37.030  39.555  23.508  1.00  0.00    -0.042 N 
ATOM     19  H23 UNL     1      36.890  38.554  23.374  1.00  0.00     0.277 HD
ATOM     20  H22 UNL     1      36.202  39.882  23.009  1.00  0.00     0.277 HD
ATOM     21  H21 UNL     1      37.896  39.888  23.086  1.00  0.00     0.277 HD
ENDBRANCH  13  18
ENDBRANCH  10  13
ENDBRANCH   1   9
BRANCH   6  22
HETATM   22  S1  UNL     1      33.279  44.051  29.866  1.00  0.00     0.290 S 
HETATM   23  O2  UNL     1      34.505  44.288  30.695  1.00  0.00    -0.198 OA
HETATM   24  O3  UNL     1      32.849  45.375  29.316  1.00  0.00    -0.198 OA
BRANCH  22  25
HETATM   25  N6  UNL     1      32.078  43.382  30.915  1.00  0.00    -0.322 N 
ATOM     26  H62 UNL     1      31.136  43.134  30.610  1.00  0.00     0.169 HD
ATOM     27  H61 UNL     1      32.439  43.273  31.862  1.00  0.00     0.169 HD
ENDBRANCH  22  25
ENDBRANCH   6  22
TORSDOF 6
ENDMDL
MODEL 3
REMARK VINA RESULT: -6.703569722      1.114      1.285
REMARK  6 active torsions:
REMARK  status: ('A' for Active; 'I' for Inactive)
REMARK    1  A    between atoms: N1_1  and  C1_5 
REMARK    2  A    between atoms: C1_5  and  N2_6 
REMARK    3  A    between atoms: C1_5  and  C2_10 
REMARK       I    between atoms: C2_10  and  N3_12 
REMARK    4  A    between atoms: N3_12  and  C3_14 
REMARK    5  A    between atoms: C4_19  and  S1_20 
REMARK    6  A    between atoms: S1_20  and  N6_21 
ROOT
HETATM    1  C3  UNL     1      34.452  42.104  27.612  1.00  0.00     0.701 A 
HETATM    2  N4  UNL     1      33.224  41.583  27.771  1.00  0.00    -0.130 N 
ATOM      3  H4  UNL     1      32.826  40.825  27.217  1.00  0.00     0.205 HD
HETATM    4  N5  UNL     1      32.606  42.223  28.778  1.00  0.00    -0.260 N 
ATOM      5  H5  UNL     1      31.662  42.032  29.113  1.00  0.00     0.190 HD
HETATM    6  C4  UNL     1      33.435  43.156  29.269  1.00  0.00     0.253 A 
HETATM    7  N7  UNL     1      34.565  43.065  28.538  1.00  0.00    -0.162 N 
ATOM      8  H7  UNL     1      35.391  43.649  28.671  1.00  0.00     0.186 HD
ENDROOT
BRANCH   1   9
HETATM    9  N3  UNL     1      35.312  41.726  26.739  1.00  0.00    -0.155 N 
HETATM   10  C2  UNL     1      35.725  40.418  26.502  1.00  0.00     0.294 C 
HETATM   11  O1  UNL     1      34.945  39.419  26.558  1.00  0.00    -0.268 OA
ATOM     12  H3  UNL     1      35.735  42.454  26.163  1.00  0.00     0.187 HD
BRANCH  10  13
HETATM   13  C1  UNL     1      37.139  40.133  26.165  1.00  0.00     0.469 C 
BRANCH  13  14
HETATM   14  N1  UNL     1      37.971  40.542  27.251  1.00  0.00    -0.042 N 
ATOM     15  H13 UNL     1      37.461  41.081  27.952  1.00  0.00     0.277 HD
ATOM     16  H12 UNL     1      38.247  39.761  27.846  1.00  0.00     0.277 HD
ATOM     17  H11 UNL     1      38.773  41.049  26.875  1.00  0.00     0.277 HD
ENDBRANCH  13  14
BRANCH  13  18
HETATM   18  N2  UNL     1      37.322  38.697  25.948  1.00  0.00    -0.042 N 
ATOM     19  H23 UNL     1      38.156  38.336  26.411  1.00  0.00     0.277 HD
ATOM     20  H22 UNL     1      36.630  38.135  26.445  1.00  0.00     0.277 HD
ATOM     21  H21 UNL     1      37.323  38.516  24.945  1.00  0.00     0.277 HD
ENDBRANCH  13  18
ENDBRANCH  10  13
ENDBRANCH   1   9
BRANCH   6  22
HETATM   22  S1  UNL     1      33.122  44.266  30.586  1.00  0.00     0.290 S 
HETATM   23  O2  UNL     1      32.827  45.618  30.011  1.00  0.00    -0.198 OA
HETATM   24  O3  UNL     1      31.920  43.845  31.374  1.00  0.00    -0.198 OA
BRANCH  22  25
HETATM   25  N6  UNL     1      34.513  44.436  31.599  1.00  0.00    -0.322 N 
ATOM     26  H62 UNL     1      35.163  45.220  31.538  1.00  0.00     0.169 HD
ATOM     27  H61 UNL     1      34.589  43.656  32.251  1.00  0.00     0.169 HD
ENDBRANCH  22  25
ENDBRANCH   6  22
TORSDOF 6
ENDMDL
MODEL 4
REMARK VINA RESULT: -6.532627607      2.485      6.155
REMARK  6 active torsions:
REMARK  status: ('A' for Active; 'I' for Inactive)
REMARK    1  A    between atoms: N1_1  and  C1_5 
REMARK    2  A    between atoms: C1_5  and  N2_6 
REMARK    3  A    between atoms: C1_5  and  C2_10 
REMARK       I    between atoms: C2_10  and  N3_12 
REMARK    4  A    between atoms: N3_12  and  C3_14 
REMARK    5  A    between atoms: C4_19  and  S1_20 
REMARK    6  A    between atoms: S1_20  and  N6_21 
ROOT
HETATM    1  C3  UNL     1      33.771  41.608  27.577  1.00  0.00     0.701 A 
HETATM    2  N4  UNL     1      33.269  40.369  27.448  1.00  0.00    -0.130 N 
ATOM      3  H4  UNL     1      32.388  40.043  27.845  1.00  0.00     0.205 HD
HETATM    4  N5  UNL     1      34.116  39.629  26.713  1.00  0.00    -0.260 N 
ATOM      5  H5  UNL     1      33.984  38.650  26.461  1.00  0.00     0.190 HD
HETATM    6  C4  UNL     1      35.164  40.391  26.367  1.00  0.00     0.253 A 
HETATM    7  N7  UNL     1      34.931  41.605  26.908  1.00  0.00    -0.162 N 
ATOM      8  H7  UNL     1      35.553  42.408  26.820  1.00  0.00     0.186 HD
ENDROOT
BRANCH   1   9
HETATM    9  N3  UNL     1      33.217  42.572  28.217  1.00  0.00    -0.155 N 
HETATM   10  C2  UNL     1      33.827  43.386  29.166  1.00  0.00     0.294 C 
HETATM   11  O1  UNL     1      35.029  43.780  29.081  1.00  0.00    -0.268 OA
ATOM     12  H3  UNL     1      32.236  42.759  28.012  1.00  0.00     0.187 HD
BRANCH  10  13
HETATM   13  C1  UNL     1      33.068  43.840  30.355  1.00  0.00     0.469 C 
BRANCH  13  14
HETATM   14  N1  UNL     1      32.247  42.770  30.824  1.00  0.00    -0.042 N 
ATOM     15  H13 UNL     1      32.745  42.146  31.460  1.00  0.00     0.277 HD
ATOM     16  H12 UNL     1      31.526  43.087  31.472  1.00  0.00     0.277 HD
ATOM     17  H11 UNL     1      31.859  42.278  30.019  1.00  0.00     0.277 HD
ENDBRANCH  13  14
BRANCH  13  18
HETATM   18  N2  UNL     1      33.993  44.224  31.423  1.00  0.00    -0.042 N 
ATOM     19  H23 UNL     1      34.273  45.203  31.363  1.00  0.00     0.277 HD
ATOM     20  H22 UNL     1      33.541  44.262  32.337  1.00  0.00     0.277 HD
ATOM     21  H21 UNL     1      34.791  43.589  31.409  1.00  0.00     0.277 HD
ENDBRANCH  13  18
ENDBRANCH  10  13
ENDBRANCH   1   9
BRANCH   6  22
HETATM   22  S1  UNL     1      36.551  39.915  25.409  1.00  0.00     0.290 S 
HETATM   23  O2  UNL     1      36.075  39.531  24.040  1.00  0.00    -0.198 OA
HETATM   24  O3  UNL     1      37.511  41.052  25.245  1.00  0.00    -0.198 OA
BRANCH  22  25
HETATM   25  N6  UNL     1      37.325  38.526  26.087  1.00  0.00    -0.322 N 
ATOM     26  H62 UNL     1      38.333  38.374  26.065  1.00  0.00     0.169 HD
ATOM     27  H61 UNL     1      36.642  37.892  26.503  1.00  0.00     0.169 HD
ENDBRANCH  22  25
ENDBRANCH   6  22
TORSDOF 6
ENDMDL
MODEL 5
REMARK VINA RESULT: -6.484226158      2.289      6.380
REMARK  6 active torsions:
REMARK  status: ('A' for Active; 'I' for Inactive)
REMARK    1  A    between atoms: N1_1  and  C1_5 
REMARK    2  A    between atoms: C1_5  and  N2_6 
REMARK    3  A    between atoms: C1_5  and  C2_10 
REMARK       I    between atoms: C2_10  and  N3_12 
REMARK    4  A    between atoms: N3_12  and  C3_14 
REMARK    5  A    between atoms: C4_19  and  S1_20 
REMARK    6  A    between atoms: S1_20  and  N6_21 
ROOT
HETATM    1  C3  UNL     1      33.676  42.487  27.960  1.00  0.00     0.701 A 
HETATM    2  N4  UNL     1      33.768  43.343  26.929  1.00  0.00    -0.130 N 
ATOM      3  H4  UNL     1      33.390  44.290  26.911  1.00  0.00     0.205 HD
HETATM    4  N5  UNL     1      34.438  42.750  25.927  1.00  0.00    -0.260 N 
ATOM      5  H5  UNL     1      34.652  43.172  25.023  1.00  0.00     0.190 HD
HETATM    6  C4  UNL     1      34.779  41.511  26.311  1.00  0.00     0.253 A 
HETATM    7  N7  UNL     1      34.302  41.370  27.565  1.00  0.00    -0.162 N 
ATOM      8  H7  UNL     1      34.402  40.529  28.133  1.00  0.00     0.186 HD
ENDROOT
BRANCH   1   9
HETATM    9  N3  UNL     1      33.100  42.730  29.079  1.00  0.00    -0.155 N 
HETATM   10  C2  UNL     1      33.083  43.950  29.748  1.00  0.00     0.294 C 
HETATM   11  O1  UNL     1      33.001  45.069  29.158  1.00  0.00    -0.268 OA
ATOM     12  H3  UNL     1      32.606  41.955  29.522  1.00  0.00     0.187 HD
BRANCH  10  13
HETATM   13  C1  UNL     1      33.163  43.989  31.227  1.00  0.00     0.469 C 
BRANCH  13  14
HETATM   14  N1  UNL     1      34.490  44.342  31.615  1.00  0.00    -0.042 N 
ATOM     15  H13 UNL     1      35.199  43.903  31.027  1.00  0.00     0.277 HD
ATOM     16  H12 UNL     1      34.713  45.314  31.403  1.00  0.00     0.277 HD
ATOM     17  H11 UNL     1      34.612  44.120  32.604  1.00  0.00     0.277 HD
ENDBRANCH  13  14
BRANCH  13  18
HETATM   18  N2  UNL     1      32.237  44.994  31.753  1.00  0.00    -0.042 N 
ATOM     19  H23 UNL     1      32.667  45.586  32.463  1.00  0.00     0.277 HD
ATOM     20  H22 UNL     1      32.024  45.722  31.071  1.00  0.00     0.277 HD
ATOM     21  H21 UNL     1      31.400  44.521  32.093  1.00  0.00     0.277 HD
ENDBRANCH  13  18
ENDBRANCH  10  13
ENDBRANCH   1   9
BRANCH   6  22
HETATM   22  S1  UNL     1      35.663  40.319  25.382  1.00  0.00     0.290 S 
HETATM   23  O2  UNL     1      34.865  39.981  24.159  1.00  0.00    -0.198 OA
HETATM   24  O3  UNL     1      36.981  40.860  24.920  1.00  0.00    -0.198 OA
BRANCH  22  25
HETATM   25  N6  UNL     1      35.861  38.855  26.280  1.00  0.00    -0.322 N 
ATOM     26  H62 UNL     1      35.333  38.634  27.125  1.00  0.00     0.169 HD
ATOM     27  H61 UNL     1      36.568  38.256  25.854  1.00  0.00     0.169 HD
ENDBRANCH  22  25
ENDBRANCH   6  22
TORSDOF 6
ENDMDL
