MODEL 1
REMARK VINA RESULT: -8.762950273      0.000      0.000
REMARK  12 active torsions:
REMARK  status: ('A' for Active; 'I' for Inactive)
REMARK    1  A    between atoms: C3_3  and  C4_4 
REMARK       I    between atoms: C4_4  and  N1_6 
REMARK    2  A    between atoms: N1_6  and  C5_8 
REMARK    3  A    between atoms: C5_8  and  C6_9 
REMARK    4  A    between atoms: C5_8  and  C24_38 
REMARK       I    between atoms: C6_9  and  N2_11 
REMARK    5  A    between atoms: N2_11  and  C7_13 
REMARK    6  A    between atoms: C7_13  and  C8_14 
REMARK    7  A    between atoms: C7_13  and  C12_22 
REMARK    8  A    between atoms: C8_14  and  N3_15 
REMARK       I    between atoms: C12_22  and  N5_24 
REMARK    9  A    between atoms: N5_24  and  C13_26 
REMARK   10  A    between atoms: C13_26  and  C14_27 
REMARK   11  A    between atoms: C16_29  and  C17_30 
REMARK   12  A    between atoms: C24_38  and  C26_40 
ROOT
HETATM    1  C1  UNL     1      14.588 -14.470  13.772  1.00  0.00     0.112 C 
HETATM    2  C2  UNL     1      15.231 -13.758  14.893  1.00  0.00    -0.101 C 
HETATM    3  C3  UNL     1      15.805 -13.170  15.808  1.00  0.00    -0.006 C 
ENDROOT
BRANCH   3   4
HETATM    4  C4  UNL     1      16.536 -12.472  16.864  1.00  0.00     0.300 C 
HETATM    5  O1  UNL     1      16.403 -11.234  16.901  1.00  0.00    -0.258 OA
HETATM    6  N1  UNL     1      17.312 -13.180  17.756  1.00  0.00    -0.315 N 
ATOM      7  H1  UNL     1      17.312 -14.183  17.569  1.00  0.00     0.169 HD
BRANCH   6   8
HETATM    8  C5  UNL     1      18.104 -12.833  18.865  1.00  0.00     0.085 C 
BRANCH   8   9
HETATM    9  C6  UNL     1      17.211 -12.843  20.110  1.00  0.00     0.269 C 
HETATM   10  O2  UNL     1      17.500 -11.931  20.921  1.00  0.00    -0.266 OA
HETATM   11  N2  UNL     1      16.200 -13.801  20.214  1.00  0.00    -0.316 N 
ATOM     12  H2  UNL     1      16.205 -14.409  19.395  1.00  0.00     0.169 HD
BRANCH  11  13
HETATM   13  C7  UNL     1      15.178 -14.186  21.099  1.00  0.00     0.127 C 
BRANCH  13  14
HETATM   14  C8  UNL     1      14.537 -13.264  22.029  1.00  0.00     0.241 C 
BRANCH  14  15
HETATM   15  N3  UNL     1      13.419 -12.476  21.849  1.00  0.00    -0.001 N 
HETATM   16  C9  UNL     1      12.240 -12.533  22.641  1.00  0.00     0.283 C 
HETATM   17  C10 UNL     1      13.736 -11.070  21.649  1.00  0.00     0.477 C 
HETATM   18  N4  UNL     1      12.789 -11.002  20.539  1.00  0.00    -0.026 N 
HETATM   19  C11 UNL     1      12.994 -12.417  20.376  1.00  0.00     0.477 C 
ATOM     20  H42 UNL     1      11.855 -10.614  20.662  1.00  0.00     0.281 HD
ATOM     21  H41 UNL     1      12.928 -10.354  19.763  1.00  0.00     0.281 HD
ENDBRANCH  14  15
ENDBRANCH  13  14
BRANCH  13  22
HETATM   22  C12 UNL     1      15.329 -15.583  21.695  1.00  0.00     0.269 C 
HETATM   23  O3  UNL     1      14.521 -16.437  21.404  1.00  0.00    -0.266 OA
HETATM   24  N5  UNL     1      16.392 -15.824  22.552  1.00  0.00    -0.353 N 
ATOM     25  H5  UNL     1      17.019 -15.045  22.749  1.00  0.00     0.162 HD
BRANCH  24  26
HETATM   26  C13 UNL     1      16.682 -17.069  23.179  1.00  0.00     0.155 C 
BRANCH  26  27
HETATM   27  C14 UNL     1      17.628 -16.951  24.328  1.00  0.00     0.139 C 
HETATM   28  C15 UNL     1      18.058 -15.518  24.640  1.00  0.00     0.040 C 
HETATM   29  C16 UNL     1      18.681 -15.735  25.993  1.00  0.00     0.016 C 
HETATM   30  C23 UNL     1      18.205 -17.058  26.402  1.00  0.00     0.173 C 
HETATM   31  O4  UNL     1      17.078 -17.320  25.561  1.00  0.00    -0.384 OA
BRANCH  29  32
HETATM   32  C17 UNL     1      20.043 -15.285  26.117  1.00  0.00    -0.008 C 
HETATM   33  C18 UNL     1      21.105 -16.346  25.759  1.00  0.00     0.005 C 
HETATM   34  C19 UNL     1      21.640 -16.056  24.338  1.00  0.00     0.000 C 
HETATM   35  C20 UNL     1      22.512 -14.820  24.354  1.00  0.00     0.000 C 
HETATM   36  C21 UNL     1      21.993 -13.914  25.468  1.00  0.00     0.000 C 
HETATM   37  C22 UNL     1      20.458 -13.983  25.488  1.00  0.00     0.005 C 
ENDBRANCH  29  32
ENDBRANCH  26  27
ENDBRANCH  24  26
ENDBRANCH  13  22
ENDBRANCH  11  13
ENDBRANCH   8   9
BRANCH   8  38
HETATM   38  C24 UNL     1      19.492 -13.170  19.055  1.00  0.00     0.037 C 
HETATM   39  C25 UNL     1      20.135 -13.412  17.680  1.00  0.00     0.016 C 
BRANCH  38  40
HETATM   40  C26 UNL     1      19.863 -14.315  19.967  1.00  0.00     0.006 C 
HETATM   41  C27 UNL     1      20.485 -13.947  21.261  1.00  0.00     0.006 C 
ENDBRANCH  38  40
ENDBRANCH   8  38
ENDBRANCH   6   8
ENDBRANCH   3   4
TORSDOF 12
ENDMDL
MODEL 2
REMARK VINA RESULT: -8.743397247      1.836      3.870
REMARK  12 active torsions:
REMARK  status: ('A' for Active; 'I' for Inactive)
REMARK    1  A    between atoms: C3_3  and  C4_4 
REMARK       I    between atoms: C4_4  and  N1_6 
REMARK    2  A    between atoms: N1_6  and  C5_8 
REMARK    3  A    between atoms: C5_8  and  C6_9 
REMARK    4  A    between atoms: C5_8  and  C24_38 
REMARK       I    between atoms: C6_9  and  N2_11 
REMARK    5  A    between atoms: N2_11  and  C7_13 
REMARK    6  A    between atoms: C7_13  and  C8_14 
REMARK    7  A    between atoms: C7_13  and  C12_22 
REMARK    8  A    between atoms: C8_14  and  N3_15 
REMARK       I    between atoms: C12_22  and  N5_24 
REMARK    9  A    between atoms: N5_24  and  C13_26 
REMARK   10  A    between atoms: C13_26  and  C14_27 
REMARK   11  A    between atoms: C16_29  and  C17_30 
REMARK   12  A    between atoms: C24_38  and  C26_40 
ROOT
HETATM    1  C1  UNL     1      20.877 -12.720  20.162  1.00  0.00     0.112 C 
HETATM    2  C2  UNL     1      19.518 -13.032  19.681  1.00  0.00    -0.101 C 
HETATM    3  C3  UNL     1      18.399 -13.289  19.239  1.00  0.00    -0.006 C 
ENDROOT
BRANCH   3   4
HETATM    4  C4  UNL     1      17.092 -13.598  18.662  1.00  0.00     0.300 C 
HETATM    5  O1  UNL     1      16.693 -14.770  18.799  1.00  0.00    -0.258 OA
HETATM    6  N1  UNL     1      16.369 -12.618  18.018  1.00  0.00    -0.315 N 
ATOM      7  H1  UNL     1      16.854 -11.722  17.993  1.00  0.00     0.169 HD
BRANCH   6   8
HETATM    8  C5  UNL     1      15.112 -12.574  17.388  1.00  0.00     0.085 C 
BRANCH   8   9
HETATM    9  C6  UNL     1      14.038 -12.455  18.473  1.00  0.00     0.269 C 
HETATM   10  O2  UNL     1      13.398 -11.378  18.407  1.00  0.00    -0.266 OA
HETATM   11  N2  UNL     1      13.865 -13.507  19.376  1.00  0.00    -0.316 N 
ATOM     12  H2  UNL     1      14.531 -14.254  19.179  1.00  0.00     0.169 HD
BRANCH  11  13
HETATM   13  C7  UNL     1      13.056 -13.853  20.472  1.00  0.00     0.127 C 
BRANCH  13  14
HETATM   14  C8  UNL     1      12.206 -12.896  21.172  1.00  0.00     0.241 C 
BRANCH  14  15
HETATM   15  N3  UNL     1      12.563 -11.842  21.988  1.00  0.00    -0.001 N 
HETATM   16  C9  UNL     1      13.839 -11.218  22.008  1.00  0.00     0.283 C 
HETATM   17  C10 UNL     1      11.565 -10.784  22.026  1.00  0.00     0.477 C 
HETATM   18  N4  UNL     1      11.686 -10.705  23.479  1.00  0.00    -0.026 N 
HETATM   19  C11 UNL     1      12.129 -12.073  23.441  1.00  0.00     0.477 C 
ATOM     20  H42 UNL     1      12.246  -9.980  23.926  1.00  0.00     0.281 HD
ATOM     21  H41 UNL     1      10.899 -10.419  24.062  1.00  0.00     0.281 HD
ENDBRANCH  14  15
ENDBRANCH  13  14
BRANCH  13  22
HETATM   22  C12 UNL     1      13.660 -14.881  21.424  1.00  0.00     0.269 C 
HETATM   23  O3  UNL     1      12.923 -15.535  22.128  1.00  0.00    -0.266 OA
HETATM   24  N5  UNL     1      15.039 -15.028  21.449  1.00  0.00    -0.353 N 
ATOM     25  H5  UNL     1      15.583 -14.429  20.830  1.00  0.00     0.162 HD
BRANCH  24  26
HETATM   26  C13 UNL     1      15.758 -15.947  22.266  1.00  0.00     0.155 C 
BRANCH  26  27
HETATM   27  C14 UNL     1      17.053 -15.404  22.773  1.00  0.00     0.139 C 
HETATM   28  C15 UNL     1      17.577 -16.105  24.025  1.00  0.00     0.040 C 
HETATM   29  C16 UNL     1      18.986 -15.571  24.036  1.00  0.00     0.016 C 
HETATM   30  C23 UNL     1      19.171 -15.014  22.696  1.00  0.00     0.173 C 
HETATM   31  O4  UNL     1      18.133 -15.602  21.906  1.00  0.00    -0.384 OA
BRANCH  29  32
HETATM   32  C17 UNL     1      19.378 -14.911  25.254  1.00  0.00    -0.008 C 
HETATM   33  C18 UNL     1      19.461 -15.833  26.488  1.00  0.00     0.005 C 
HETATM   34  C19 UNL     1      20.945 -16.174  26.756  1.00  0.00     0.000 C 
HETATM   35  C20 UNL     1      21.666 -14.961  27.299  1.00  0.00     0.000 C 
HETATM   36  C21 UNL     1      20.977 -13.728  26.719  1.00  0.00     0.000 C 
HETATM   37  C22 UNL     1      20.589 -14.017  25.261  1.00  0.00     0.005 C 
ENDBRANCH  29  32
ENDBRANCH  26  27
ENDBRANCH  24  26
ENDBRANCH  13  22
ENDBRANCH  11  13
ENDBRANCH   8   9
BRANCH   8  38
HETATM   38  C24 UNL     1      14.823 -11.967  16.113  1.00  0.00     0.037 C 
HETATM   39  C25 UNL     1      14.422 -13.068  15.119  1.00  0.00     0.016 C 
BRANCH  38  40
HETATM   40  C26 UNL     1      15.857 -11.082  15.458  1.00  0.00     0.006 C 
HETATM   41  C27 UNL     1      16.267 -11.459  14.086  1.00  0.00     0.006 C 
ENDBRANCH  38  40
ENDBRANCH   8  38
ENDBRANCH   6   8
ENDBRANCH   3   4
TORSDOF 12
ENDMDL
MODEL 3
REMARK VINA RESULT: -8.739322005      1.029      1.361
REMARK  12 active torsions:
REMARK  status: ('A' for Active; 'I' for Inactive)
REMARK    1  A    between atoms: C3_3  and  C4_4 
REMARK       I    between atoms: C4_4  and  N1_6 
REMARK    2  A    between atoms: N1_6  and  C5_8 
REMARK    3  A    between atoms: C5_8  and  C6_9 
REMARK    4  A    between atoms: C5_8  and  C24_38 
REMARK       I    between atoms: C6_9  and  N2_11 
REMARK    5  A    between atoms: N2_11  and  C7_13 
REMARK    6  A    between atoms: C7_13  and  C8_14 
REMARK    7  A    between atoms: C7_13  and  C12_22 
REMARK    8  A    between atoms: C8_14  and  N3_15 
REMARK       I    between atoms: C12_22  and  N5_24 
REMARK    9  A    between atoms: N5_24  and  C13_26 
REMARK   10  A    between atoms: C13_26  and  C14_27 
REMARK   11  A    between atoms: C16_29  and  C17_30 
REMARK   12  A    between atoms: C24_38  and  C26_40 
ROOT
HETATM    1  C1  UNL     1      13.714 -13.559  13.679  1.00  0.00     0.112 C 
HETATM    2  C2  UNL     1      14.608 -13.025  14.724  1.00  0.00    -0.101 C 
HETATM    3  C3  UNL     1      15.371 -12.619  15.598  1.00  0.00    -0.006 C 
ENDROOT
BRANCH   3   4
HETATM    4  C4  UNL     1      16.304 -12.186  16.638  1.00  0.00     0.300 C 
HETATM    5  O1  UNL     1      16.445 -10.956  16.775  1.00  0.00    -0.258 OA
HETATM    6  N1  UNL     1      16.965 -13.118  17.408  1.00  0.00    -0.315 N 
ATOM      7  H1  UNL     1      16.735 -14.078  17.150  1.00  0.00     0.169 HD
BRANCH   6   8
HETATM    8  C5  UNL     1      17.885 -13.046  18.470  1.00  0.00     0.085 C 
BRANCH   8   9
HETATM    9  C6  UNL     1      17.095 -12.925  19.777  1.00  0.00     0.269 C 
HETATM   10  O2  UNL     1      17.537 -12.023  20.528  1.00  0.00    -0.266 OA
HETATM   11  N2  UNL     1      16.005 -13.769  19.993  1.00  0.00    -0.316 N 
ATOM     12  H2  UNL     1      15.884 -14.399  19.200  1.00  0.00     0.169 HD
BRANCH  11  13
HETATM   13  C7  UNL     1      15.021 -14.019  20.967  1.00  0.00     0.127 C 
BRANCH  13  14
HETATM   14  C8  UNL     1      14.465 -12.980  21.825  1.00  0.00     0.241 C 
BRANCH  14  15
HETATM   15  N3  UNL     1      13.271 -12.296  21.710  1.00  0.00    -0.001 N 
HETATM   16  C9  UNL     1      12.027 -12.725  22.246  1.00  0.00     0.283 C 
HETATM   17  C10 UNL     1      13.396 -10.875  21.992  1.00  0.00     0.477 C 
HETATM   18  N4  UNL     1      12.592 -10.558  20.815  1.00  0.00    -0.026 N 
HETATM   19  C11 UNL     1      13.024 -11.819  20.273  1.00  0.00     0.477 C 
ATOM     20  H42 UNL     1      11.601 -10.328  20.895  1.00  0.00     0.281 HD
ATOM     21  H41 UNL     1      12.725  -9.687  20.301  1.00  0.00     0.281 HD
ENDBRANCH  14  15
ENDBRANCH  13  14
BRANCH  13  22
HETATM   22  C12 UNL     1      15.159 -15.350  21.700  1.00  0.00     0.269 C 
HETATM   23  O3  UNL     1      14.248 -16.146  21.650  1.00  0.00    -0.266 OA
HETATM   24  N5  UNL     1      16.329 -15.600  22.402  1.00  0.00    -0.353 N 
ATOM     25  H5  UNL     1      17.040 -14.869  22.399  1.00  0.00     0.162 HD
BRANCH  24  26
HETATM   26  C13 UNL     1      16.621 -16.791  23.125  1.00  0.00     0.155 C 
BRANCH  26  27
HETATM   27  C14 UNL     1      18.028 -16.858  23.619  1.00  0.00     0.139 C 
HETATM   28  C15 UNL     1      18.155 -16.905  25.141  1.00  0.00     0.040 C 
HETATM   29  C16 UNL     1      19.602 -17.309  25.256  1.00  0.00     0.016 C 
HETATM   30  C23 UNL     1      19.952 -17.782  23.916  1.00  0.00     0.173 C 
HETATM   31  O4  UNL     1      18.698 -18.038  23.277  1.00  0.00    -0.384 OA
BRANCH  29  32
HETATM   32  C17 UNL     1      20.419 -16.427  26.048  1.00  0.00    -0.008 C 
HETATM   33  C18 UNL     1      21.595 -15.782  25.285  1.00  0.00     0.005 C 
HETATM   34  C19 UNL     1      21.216 -14.328  24.922  1.00  0.00     0.000 C 
HETATM   35  C20 UNL     1      21.218 -13.466  26.164  1.00  0.00     0.000 C 
HETATM   36  C21 UNL     1      20.851 -14.366  27.341  1.00  0.00     0.000 C 
HETATM   37  C22 UNL     1      19.770 -15.360  26.886  1.00  0.00     0.005 C 
ENDBRANCH  29  32
ENDBRANCH  26  27
ENDBRANCH  24  26
ENDBRANCH  13  22
ENDBRANCH  11  13
ENDBRANCH   8   9
BRANCH   8  38
HETATM   38  C24 UNL     1      19.159 -13.717  18.536  1.00  0.00     0.037 C 
HETATM   39  C25 UNL     1      19.084 -14.818  19.606  1.00  0.00     0.016 C 
BRANCH  38  40
HETATM   40  C26 UNL     1      20.414 -12.909  18.765  1.00  0.00     0.006 C 
HETATM   41  C27 UNL     1      20.880 -12.805  20.167  1.00  0.00     0.006 C 
ENDBRANCH  38  40
ENDBRANCH   8  38
ENDBRANCH   6   8
ENDBRANCH   3   4
TORSDOF 12
ENDMDL
MODEL 4
REMARK VINA RESULT: -8.480308771      2.106      5.538
REMARK  12 active torsions:
REMARK  status: ('A' for Active; 'I' for Inactive)
REMARK    1  A    between atoms: C3_3  and  C4_4 
REMARK       I    between atoms: C4_4  and  N1_6 
REMARK    2  A    between atoms: N1_6  and  C5_8 
REMARK    3  A    between atoms: C5_8  and  C6_9 
REMARK    4  A    between atoms: C5_8  and  C24_38 
REMARK       I    between atoms: C6_9  and  N2_11 
REMARK    5  A    between atoms: N2_11  and  C7_13 
REMARK    6  A    between atoms: C7_13  and  C8_14 
REMARK    7  A    between atoms: C7_13  and  C12_22 
REMARK    8  A    between atoms: C8_14  and  N3_15 
REMARK       I    between atoms: C12_22  and  N5_24 
REMARK    9  A    between atoms: N5_24  and  C13_26 
REMARK   10  A    between atoms: C13_26  and  C14_27 
REMARK   11  A    between atoms: C16_29  and  C17_30 
REMARK   12  A    between atoms: C24_38  and  C26_40 
ROOT
HETATM    1  C1  UNL     1      11.845  -9.305  24.654  1.00  0.00     0.112 C 
HETATM    2  C2  UNL     1      12.415 -10.101  23.550  1.00  0.00    -0.101 C 
HETATM    3  C3  UNL     1      12.857 -10.752  22.605  1.00  0.00    -0.006 C 
ENDROOT
BRANCH   3   4
HETATM    4  C4  UNL     1      13.343 -11.504  21.449  1.00  0.00     0.300 C 
HETATM    5  O1  UNL     1      12.989 -11.085  20.330  1.00  0.00    -0.258 OA
HETATM    6  N1  UNL     1      14.152 -12.605  21.628  1.00  0.00    -0.315 N 
ATOM      7  H1  UNL     1      14.331 -12.808  22.611  1.00  0.00     0.169 HD
BRANCH   6   8
HETATM    8  C5  UNL     1      14.788 -13.512  20.761  1.00  0.00     0.085 C 
BRANCH   8   9
HETATM    9  C6  UNL     1      15.975 -12.796  20.108  1.00  0.00     0.269 C 
HETATM   10  O2  UNL     1      16.522 -11.967  20.874  1.00  0.00    -0.266 OA
HETATM   11  N2  UNL     1      16.332 -13.128  18.800  1.00  0.00    -0.316 N 
ATOM     12  H2  UNL     1      15.703 -13.842  18.433  1.00  0.00     0.169 HD
BRANCH  11  13
HETATM   13  C7  UNL     1      17.291 -12.781  17.832  1.00  0.00     0.127 C 
BRANCH  13  14
HETATM   14  C8  UNL     1      17.046 -12.865  16.397  1.00  0.00     0.241 C 
BRANCH  14  15
HETATM   15  N3  UNL     1      15.989 -12.372  15.660  1.00  0.00    -0.001 N 
HETATM   16  C9  UNL     1      14.639 -12.801  15.774  1.00  0.00     0.283 C 
HETATM   17  C10 UNL     1      15.975 -10.919  15.581  1.00  0.00     0.477 C 
HETATM   18  N4  UNL     1      15.702 -10.987  14.148  1.00  0.00    -0.026 N 
HETATM   19  C11 UNL     1      16.329 -12.282  14.167  1.00  0.00     0.477 C 
ATOM     20  H42 UNL     1      14.759 -10.861  13.781  1.00  0.00     0.281 HD
ATOM     21  H41 UNL     1      16.019 -10.254  13.513  1.00  0.00     0.281 HD
ENDBRANCH  14  15
ENDBRANCH  13  14
BRANCH  13  22
HETATM   22  C12 UNL     1      18.730 -13.146  18.186  1.00  0.00     0.269 C 
HETATM   23  O3  UNL     1      19.455 -13.585  17.321  1.00  0.00    -0.266 OA
HETATM   24  N5  UNL     1      19.156 -12.962  19.493  1.00  0.00    -0.353 N 
ATOM     25  H5  UNL     1      18.475 -12.597  20.159  1.00  0.00     0.162 HD
BRANCH  24  26
HETATM   26  C13 UNL     1      20.464 -13.239  19.984  1.00  0.00     0.155 C 
BRANCH  26  27
HETATM   27  C14 UNL     1      20.469 -14.002  21.267  1.00  0.00     0.139 C 
HETATM   28  C15 UNL     1      19.309 -13.663  22.201  1.00  0.00     0.040 C 
HETATM   29  C16 UNL     1      19.427 -14.809  23.170  1.00  0.00     0.016 C 
HETATM   30  C23 UNL     1      20.298 -15.769  22.489  1.00  0.00     0.173 C 
HETATM   31  O4  UNL     1      20.270 -15.379  21.113  1.00  0.00    -0.384 OA
BRANCH  29  32
HETATM   32  C17 UNL     1      19.559 -14.428  24.552  1.00  0.00    -0.008 C 
HETATM   33  C18 UNL     1      18.970 -15.439  25.557  1.00  0.00     0.005 C 
HETATM   34  C19 UNL     1      20.124 -16.265  26.169  1.00  0.00     0.000 C 
HETATM   35  C20 UNL     1      20.930 -15.407  27.119  1.00  0.00     0.000 C 
HETATM   36  C21 UNL     1      20.843 -13.969  26.613  1.00  0.00     0.000 C 
HETATM   37  C22 UNL     1      20.896 -13.979  25.078  1.00  0.00     0.005 C 
ENDBRANCH  29  32
ENDBRANCH  26  27
ENDBRANCH  24  26
ENDBRANCH  13  22
ENDBRANCH  11  13
ENDBRANCH   8   9
BRANCH   8  38
HETATM   38  C24 UNL     1      14.914 -14.933  20.964  1.00  0.00     0.037 C 
HETATM   39  C25 UNL     1      13.659 -15.443  21.690  1.00  0.00     0.016 C 
BRANCH  38  40
HETATM   40  C26 UNL     1      16.133 -15.480  21.669  1.00  0.00     0.006 C 
HETATM   41  C27 UNL     1      16.959 -16.440  20.901  1.00  0.00     0.006 C 
ENDBRANCH  38  40
ENDBRANCH   8  38
ENDBRANCH   6   8
ENDBRANCH   3   4
TORSDOF 12
ENDMDL
MODEL 5
REMARK VINA RESULT: -8.395374308      1.968      5.902
REMARK  12 active torsions:
REMARK  status: ('A' for Active; 'I' for Inactive)
REMARK    1  A    between atoms: C3_3  and  C4_4 
REMARK       I    between atoms: C4_4  and  N1_6 
REMARK    2  A    between atoms: N1_6  and  C5_8 
REMARK    3  A    between atoms: C5_8  and  C6_9 
REMARK    4  A    between atoms: C5_8  and  C24_38 
REMARK       I    between atoms: C6_9  and  N2_11 
REMARK    5  A    between atoms: N2_11  and  C7_13 
REMARK    6  A    between atoms: C7_13  and  C8_14 
REMARK    7  A    between atoms: C7_13  and  C12_22 
REMARK    8  A    between atoms: C8_14  and  N3_15 
REMARK       I    between atoms: C12_22  and  N5_24 
REMARK    9  A    between atoms: N5_24  and  C13_26 
REMARK   10  A    between atoms: C13_26  and  C14_27 
REMARK   11  A    between atoms: C16_29  and  C17_30 
REMARK   12  A    between atoms: C24_38  and  C26_40 
ROOT
HETATM    1  C1  UNL     1      17.057 -18.419  21.827  1.00  0.00     0.112 C 
HETATM    2  C2  UNL     1      16.452 -17.078  21.718  1.00  0.00    -0.101 C 
HETATM    3  C3  UNL     1      15.984 -15.944  21.643  1.00  0.00    -0.006 C 
ENDROOT
BRANCH   3   4
HETATM    4  C4  UNL     1      15.479 -14.573  21.565  1.00  0.00     0.300 C 
HETATM    5  O1  UNL     1      15.654 -13.863  22.574  1.00  0.00    -0.258 OA
HETATM    6  N1  UNL     1      14.856 -14.128  20.420  1.00  0.00    -0.315 N 
ATOM      7  H1  UNL     1      14.792 -14.848  19.700  1.00  0.00     0.169 HD
BRANCH   6   8
HETATM    8  C5  UNL     1      14.290 -12.904  20.018  1.00  0.00     0.085 C 
BRANCH   8   9
HETATM    9  C6  UNL     1      14.800 -12.582  18.610  1.00  0.00     0.269 C 
HETATM   10  O2  UNL     1      13.930 -12.030  17.894  1.00  0.00    -0.266 OA
HETATM   11  N2  UNL     1      16.119 -12.896  18.277  1.00  0.00    -0.316 N 
ATOM     12  H2  UNL     1      16.587 -13.336  19.069  1.00  0.00     0.169 HD
BRANCH  11  13
HETATM   13  C7  UNL     1      17.000 -12.793  17.187  1.00  0.00     0.127 C 
BRANCH  13  14
HETATM   14  C8  UNL     1      16.676 -13.272  15.848  1.00  0.00     0.241 C 
BRANCH  14  15
HETATM   15  N3  UNL     1      15.796 -12.751  14.921  1.00  0.00    -0.001 N 
HETATM   16  C9  UNL     1      14.461 -13.193  14.720  1.00  0.00     0.283 C 
HETATM   17  C10 UNL     1      15.775 -11.296  14.908  1.00  0.00     0.477 C 
HETATM   18  N4  UNL     1      15.822 -11.297  13.448  1.00  0.00    -0.026 N 
HETATM   19  C11 UNL     1      16.451 -12.587  13.544  1.00  0.00     0.477 C 
ATOM     20  H42 UNL     1      14.979 -11.159  12.890  1.00  0.00     0.281 HD
ATOM     21  H41 UNL     1      16.256 -10.533  12.931  1.00  0.00     0.281 HD
ENDBRANCH  14  15
ENDBRANCH  13  14
BRANCH  13  22
HETATM   22  C12 UNL     1      18.474 -13.000  17.523  1.00  0.00     0.269 C 
HETATM   23  O3  UNL     1      19.281 -13.061  16.621  1.00  0.00    -0.266 OA
HETATM   24  N5  UNL     1      18.838 -13.111  18.857  1.00  0.00    -0.353 N 
ATOM     25  H5  UNL     1      18.092 -13.057  19.550  1.00  0.00     0.162 HD
BRANCH  24  26
HETATM   26  C13 UNL     1      20.166 -13.292  19.339  1.00  0.00     0.155 C 
BRANCH  26  27
HETATM   27  C14 UNL     1      20.231 -14.025  20.638  1.00  0.00     0.139 C 
HETATM   28  C15 UNL     1      19.040 -13.773  21.560  1.00  0.00     0.040 C 
HETATM   29  C16 UNL     1      19.256 -14.884  22.554  1.00  0.00     0.016 C 
HETATM   30  C23 UNL     1      20.213 -15.775  21.896  1.00  0.00     0.173 C 
HETATM   31  O4  UNL     1      20.158 -15.418  20.512  1.00  0.00    -0.384 OA
BRANCH  29  32
HETATM   32  C17 UNL     1      19.345 -14.465  23.928  1.00  0.00    -0.008 C 
HETATM   33  C18 UNL     1      18.292 -15.097  24.862  1.00  0.00     0.005 C 
HETATM   34  C19 UNL     1      18.959 -16.238  25.665  1.00  0.00     0.000 C 
HETATM   35  C20 UNL     1      19.902 -15.664  26.698  1.00  0.00     0.000 C 
HETATM   36  C21 UNL     1      20.432 -14.344  26.143  1.00  0.00     0.000 C 
HETATM   37  C22 UNL     1      20.673 -14.502  24.634  1.00  0.00     0.005 C 
ENDBRANCH  29  32
ENDBRANCH  26  27
ENDBRANCH  24  26
ENDBRANCH  13  22
ENDBRANCH  11  13
ENDBRANCH   8   9
BRANCH   8  38
HETATM   38  C24 UNL     1      12.975 -12.425  20.362  1.00  0.00     0.037 C 
HETATM   39  C25 UNL     1      13.115 -11.093  21.117  1.00  0.00     0.016 C 
BRANCH  38  40
HETATM   40  C26 UNL     1      12.035 -13.319  21.137  1.00  0.00     0.006 C 
HETATM   41  C27 UNL     1      11.374 -12.711  22.315  1.00  0.00     0.006 C 
ENDBRANCH  38  40
ENDBRANCH   8  38
ENDBRANCH   6   8
ENDBRANCH   3   4
TORSDOF 12
ENDMDL
