MODEL 1
REMARK VINA RESULT: -8.805401359      0.000      0.000
REMARK  10 active torsions:
REMARK  status: ('A' for Active; 'I' for Inactive)
REMARK       I    between atoms: N1_2  and  C2_4 
REMARK    1  A    between atoms: C2_4  and  C3_6 
REMARK    2  A    between atoms: C3_6  and  C4_7 
REMARK    3  A    between atoms: C4_7  and  N2_8 
REMARK       I    between atoms: N2_8  and  C5_10 
REMARK    4  A    between atoms: C5_10  and  C6_12 
REMARK    5  A    between atoms: N3_16  and  C11_18 
REMARK    6  A    between atoms: C11_18  and  C12_19 
REMARK    7  A    between atoms: C13_20  and  C14_21 
REMARK    8  A    between atoms: C14_21  and  C15_22 
REMARK       I    between atoms: C15_22  and  N4_24 
REMARK    9  A    between atoms: N4_24  and  C16_26 
REMARK   10  A    between atoms: C23_33  and  C24_34 
REMARK       I    between atoms: C24_34  and  N5_36 
ROOT
HETATM    1  C12 UNL     1      17.166 -13.111  20.722  1.00  0.00     0.021 C 
HETATM    2  C13 UNL     1      18.454 -13.049  20.777  1.00  0.00    -0.016 C 
ENDROOT
BRANCH   2   3
HETATM    3  C14 UNL     1      19.301 -14.302  20.716  1.00  0.00     0.130 C 
BRANCH   3   4
HETATM    4  C15 UNL     1      20.043 -14.469  21.993  1.00  0.00     0.221 C 
HETATM    5  O3  UNL     1      21.240 -14.104  22.032  1.00  0.00    -0.273 OA
HETATM    6  N4  UNL     1      19.441 -15.024  23.146  1.00  0.00    -0.352 N 
ATOM      7  H4  UNL     1      18.466 -15.313  23.068  1.00  0.00     0.163 HD
BRANCH   6   8
HETATM    8  C16 UNL     1      20.085 -15.215  24.420  1.00  0.00     0.035 C 
HETATM    9  C17 UNL     1      20.523 -13.838  24.940  1.00  0.00     0.035 C 
HETATM   10  C18 UNL     1      21.207 -13.974  26.260  1.00  0.00    -0.011 C 
HETATM   11  C19 UNL     1      20.291 -14.594  27.297  1.00  0.00     0.009 C 
HETATM   12  C26 UNL     1      22.427 -14.845  26.112  1.00  0.00     0.024 C 
HETATM   13  C20 UNL     1      19.818 -15.915  26.769  1.00  0.00    -0.011 C 
HETATM   14  C21 UNL     1      19.137 -15.790  25.429  1.00  0.00     0.035 C 
HETATM   15  C22 UNL     1      21.019 -16.832  26.609  1.00  0.00     0.024 C 
HETATM   16  C23 UNL     1      21.985 -16.208  25.631  1.00  0.00     0.044 C 
HETATM   17  C27 UNL     1      21.330 -16.072  24.287  1.00  0.00     0.050 C 
BRANCH  16  18
HETATM   18  C24 UNL     1      23.211 -17.046  25.529  1.00  0.00     0.226 C 
HETATM   19  O4  UNL     1      23.165 -18.282  25.782  1.00  0.00    -0.273 OA
HETATM   20  N5  UNL     1      24.447 -16.461  25.145  1.00  0.00    -0.365 N 
HETATM   21  C25 UNL     1      25.646 -17.280  25.042  1.00  0.00     0.149 C 
ATOM     22  H5  UNL     1      24.496 -15.463  24.940  1.00  0.00     0.161 HD
ENDBRANCH  16  18
ENDBRANCH   6   8
ENDBRANCH   3   4
ENDBRANCH   2   3
BRANCH   1  23
HETATM   23  C11 UNL     1      16.088 -12.129  20.753  1.00  0.00     0.203 C 
BRANCH  23  24
HETATM   24  N3  UNL     1      14.800 -12.600  21.082  1.00  0.00    -0.038 N 
HETATM   25  C6  UNL     1      13.917 -13.038  20.090  1.00  0.00     0.286 C 
HETATM   26  C7  UNL     1      12.567 -12.524  20.508  1.00  0.00     0.045 C 
HETATM   27  C8  UNL     1      12.905 -11.168  21.081  1.00  0.00     0.031 C 
HETATM   28  C9  UNL     1      14.144 -11.566  21.895  1.00  0.00     0.243 C 
HETATM   29  C10 UNL     1      14.972 -13.765  22.002  1.00  0.00     0.279 C 
BRANCH  25  30
HETATM   30  C5  UNL     1      14.203 -12.767  18.651  1.00  0.00     0.253 C 
HETATM   31  N2  UNL     1      14.909 -13.695  17.867  1.00  0.00    -0.339 N 
ATOM     32  H2  UNL     1      15.168 -14.517  18.414  1.00  0.00     0.167 HD
HETATM   33  O2  UNL     1      13.810 -11.711  18.162  1.00  0.00    -0.271 OA
BRANCH  31  34
HETATM   34  C4  UNL     1      15.354 -13.806  16.554  1.00  0.00     0.073 C 
BRANCH  34  35
HETATM   35  C3  UNL     1      16.781 -13.962  16.206  1.00  0.00     0.147 C 
BRANCH  35  36
HETATM   36  C2  UNL     1      17.798 -13.132  16.830  1.00  0.00     0.222 C 
HETATM   37  N1  UNL     1      19.153 -13.522  16.813  1.00  0.00    -0.365 N 
HETATM   38  C1  UNL     1      20.151 -12.693  17.438  1.00  0.00     0.149 C 
ATOM     39  H1  UNL     1      19.426 -14.392  16.358  1.00  0.00     0.161 HD
HETATM   40  O1  UNL     1      17.493 -12.056  17.394  1.00  0.00    -0.273 OA
ENDBRANCH  35  36
ENDBRANCH  34  35
ENDBRANCH  31  34
ENDBRANCH  25  30
ENDBRANCH  23  24
ENDBRANCH   1  23
TORSDOF 10
ENDMDL
MODEL 2
REMARK VINA RESULT: -8.746959896      2.355      4.310
REMARK  10 active torsions:
REMARK  status: ('A' for Active; 'I' for Inactive)
REMARK       I    between atoms: N1_2  and  C2_4 
REMARK    1  A    between atoms: C2_4  and  C3_6 
REMARK    2  A    between atoms: C3_6  and  C4_7 
REMARK    3  A    between atoms: C4_7  and  N2_8 
REMARK       I    between atoms: N2_8  and  C5_10 
REMARK    4  A    between atoms: C5_10  and  C6_12 
REMARK    5  A    between atoms: N3_16  and  C11_18 
REMARK    6  A    between atoms: C11_18  and  C12_19 
REMARK    7  A    between atoms: C13_20  and  C14_21 
REMARK    8  A    between atoms: C14_21  and  C15_22 
REMARK       I    between atoms: C15_22  and  N4_24 
REMARK    9  A    between atoms: N4_24  and  C16_26 
REMARK   10  A    between atoms: C23_33  and  C24_34 
REMARK       I    between atoms: C24_34  and  N5_36 
ROOT
HETATM    1  C12 UNL     1      16.795 -16.805  21.216  1.00  0.00     0.021 C 
HETATM    2  C13 UNL     1      16.701 -17.137  22.459  1.00  0.00    -0.016 C 
ENDROOT
BRANCH   2   3
HETATM    3  C14 UNL     1      17.459 -18.325  23.012  1.00  0.00     0.130 C 
BRANCH   3   4
HETATM    4  C15 UNL     1      18.556 -17.853  23.897  1.00  0.00     0.221 C 
HETATM    5  O3  UNL     1      19.224 -18.711  24.518  1.00  0.00    -0.273 OA
HETATM    6  N4  UNL     1      18.859 -16.481  24.053  1.00  0.00    -0.352 N 
ATOM      7  H4  UNL     1      18.287 -15.815  23.534  1.00  0.00     0.163 HD
BRANCH   6   8
HETATM    8  C16 UNL     1      19.905 -15.941  24.884  1.00  0.00     0.035 C 
HETATM    9  C17 UNL     1      19.875 -14.412  24.749  1.00  0.00     0.035 C 
HETATM   10  C18 UNL     1      20.946 -13.794  25.585  1.00  0.00    -0.011 C 
HETATM   11  C19 UNL     1      20.772 -14.137  27.052  1.00  0.00     0.009 C 
HETATM   12  C26 UNL     1      22.293 -14.291  25.130  1.00  0.00     0.024 C 
HETATM   13  C20 UNL     1      20.748 -15.630  27.180  1.00  0.00    -0.011 C 
HETATM   14  C21 UNL     1      19.676 -16.265  26.329  1.00  0.00     0.035 C 
HETATM   15  C22 UNL     1      22.094 -16.178  26.736  1.00  0.00     0.024 C 
HETATM   16  C23 UNL     1      22.329 -15.793  25.296  1.00  0.00     0.044 C 
HETATM   17  C27 UNL     1      21.273 -16.413  24.427  1.00  0.00     0.050 C 
BRANCH  16  18
HETATM   18  C24 UNL     1      23.682 -16.241  24.868  1.00  0.00     0.226 C 
HETATM   19  O4  UNL     1      24.181 -15.826  23.784  1.00  0.00    -0.273 OA
HETATM   20  N5  UNL     1      24.428 -17.139  25.677  1.00  0.00    -0.365 N 
HETATM   21  C25 UNL     1      25.752 -17.575  25.260  1.00  0.00     0.149 C 
ATOM     22  H5  UNL     1      24.034 -17.480  26.553  1.00  0.00     0.161 HD
ENDBRANCH  16  18
ENDBRANCH   6   8
ENDBRANCH   3   4
ENDBRANCH   2   3
BRANCH   1  23
HETATM   23  C11 UNL     1      16.219 -15.752  20.387  1.00  0.00     0.203 C 
BRANCH  23  24
HETATM   24  N3  UNL     1      17.052 -14.662  20.062  1.00  0.00    -0.038 N 
HETATM   25  C6  UNL     1      16.976 -13.459  20.772  1.00  0.00     0.286 C 
HETATM   26  C7  UNL     1      17.119 -12.379  19.735  1.00  0.00     0.045 C 
HETATM   27  C8  UNL     1      16.353 -12.954  18.567  1.00  0.00     0.031 C 
HETATM   28  C9  UNL     1      16.889 -14.391  18.627  1.00  0.00     0.243 C 
HETATM   29  C10 UNL     1      18.466 -15.120  20.211  1.00  0.00     0.279 C 
BRANCH  25  30
HETATM   30  C5  UNL     1      15.837 -13.201  21.700  1.00  0.00     0.253 C 
HETATM   31  N2  UNL     1      14.851 -12.250  21.387  1.00  0.00    -0.339 N 
ATOM     32  H2  UNL     1      15.040 -11.808  20.487  1.00  0.00     0.167 HD
HETATM   33  O2  UNL     1      15.777 -13.837  22.750  1.00  0.00    -0.271 OA
BRANCH  31  34
HETATM   34  C4  UNL     1      13.689 -11.744  21.962  1.00  0.00     0.073 C 
BRANCH  34  35
HETATM   35  C3  UNL     1      12.543 -12.601  22.330  1.00  0.00     0.147 C 
BRANCH  35  36
HETATM   36  C2  UNL     1      12.361 -13.908  21.721  1.00  0.00     0.222 C 
HETATM   37  N1  UNL     1      12.776 -15.076  22.391  1.00  0.00    -0.365 N 
HETATM   38  C1  UNL     1      12.592 -16.366  21.777  1.00  0.00     0.149 C 
ATOM     39  H1  UNL     1      13.207 -15.009  23.312  1.00  0.00     0.161 HD
HETATM   40  O1  UNL     1      11.831 -14.023  20.591  1.00  0.00    -0.273 OA
ENDBRANCH  35  36
ENDBRANCH  34  35
ENDBRANCH  31  34
ENDBRANCH  25  30
ENDBRANCH  23  24
ENDBRANCH   1  23
TORSDOF 10
ENDMDL
MODEL 3
REMARK VINA RESULT: -8.620828832      2.427      4.695
REMARK  10 active torsions:
REMARK  status: ('A' for Active; 'I' for Inactive)
REMARK       I    between atoms: N1_2  and  C2_4 
REMARK    1  A    between atoms: C2_4  and  C3_6 
REMARK    2  A    between atoms: C3_6  and  C4_7 
REMARK    3  A    between atoms: C4_7  and  N2_8 
REMARK       I    between atoms: N2_8  and  C5_10 
REMARK    4  A    between atoms: C5_10  and  C6_12 
REMARK    5  A    between atoms: N3_16  and  C11_18 
REMARK    6  A    between atoms: C11_18  and  C12_19 
REMARK    7  A    between atoms: C13_20  and  C14_21 
REMARK    8  A    between atoms: C14_21  and  C15_22 
REMARK       I    between atoms: C15_22  and  N4_24 
REMARK    9  A    between atoms: N4_24  and  C16_26 
REMARK   10  A    between atoms: C23_33  and  C24_34 
REMARK       I    between atoms: C24_34  and  N5_36 
ROOT
HETATM    1  C12 UNL     1      16.799 -15.825  21.696  1.00  0.00     0.021 C 
HETATM    2  C13 UNL     1      16.574 -16.622  22.684  1.00  0.00    -0.016 C 
ENDROOT
BRANCH   2   3
HETATM    3  C14 UNL     1      17.438 -17.843  22.920  1.00  0.00     0.130 C 
BRANCH   3   4
HETATM    4  C15 UNL     1      18.575 -17.489  23.810  1.00  0.00     0.221 C 
HETATM    5  O3  UNL     1      19.255 -18.421  24.297  1.00  0.00    -0.273 OA
HETATM    6  N4  UNL     1      18.901 -16.148  24.117  1.00  0.00    -0.352 N 
ATOM      7  H4  UNL     1      18.318 -15.420  23.704  1.00  0.00     0.163 HD
BRANCH   6   8
HETATM    8  C16 UNL     1      19.985 -15.720  24.963  1.00  0.00     0.035 C 
HETATM    9  C17 UNL     1      19.984 -14.185  24.995  1.00  0.00     0.035 C 
HETATM   10  C18 UNL     1      21.096 -13.681  25.853  1.00  0.00    -0.011 C 
HETATM   11  C19 UNL     1      20.963 -14.176  27.280  1.00  0.00     0.009 C 
HETATM   12  C26 UNL     1      22.416 -14.151  25.302  1.00  0.00     0.024 C 
HETATM   13  C20 UNL     1      20.909 -15.674  27.249  1.00  0.00    -0.011 C 
HETATM   14  C21 UNL     1      19.797 -16.193  26.373  1.00  0.00     0.035 C 
HETATM   15  C22 UNL     1      22.228 -16.195  26.702  1.00  0.00     0.024 C 
HETATM   16  C23 UNL     1      22.424 -15.662  25.304  1.00  0.00     0.044 C 
HETATM   17  C27 UNL     1      21.327 -16.166  24.411  1.00  0.00     0.050 C 
BRANCH  16  18
HETATM   18  C24 UNL     1      23.752 -16.086  24.784  1.00  0.00     0.226 C 
HETATM   19  O4  UNL     1      24.217 -15.578  23.726  1.00  0.00    -0.273 OA
HETATM   20  N5  UNL     1      24.512 -17.067  25.475  1.00  0.00    -0.365 N 
HETATM   21  C25 UNL     1      25.812 -17.480  24.968  1.00  0.00     0.149 C 
ATOM     22  H5  UNL     1      24.145 -17.485  26.330  1.00  0.00     0.161 HD
ENDBRANCH  16  18
ENDBRANCH   6   8
ENDBRANCH   3   4
ENDBRANCH   2   3
BRANCH   1  23
HETATM   23  C11 UNL     1      16.179 -14.601  21.200  1.00  0.00     0.203 C 
BRANCH  23  24
HETATM   24  N3  UNL     1      16.930 -13.820  20.299  1.00  0.00    -0.038 N 
HETATM   25  C6  UNL     1      16.442 -12.598  19.824  1.00  0.00     0.286 C 
HETATM   26  C7  UNL     1      16.831 -12.556  18.371  1.00  0.00     0.045 C 
HETATM   27  C8  UNL     1      16.640 -13.993  17.948  1.00  0.00     0.031 C 
HETATM   28  C9  UNL     1      17.288 -14.676  19.160  1.00  0.00     0.243 C 
HETATM   29  C10 UNL     1      18.229 -13.496  20.963  1.00  0.00     0.279 C 
BRANCH  25  30
HETATM   30  C5  UNL     1      15.015 -12.220  20.036  1.00  0.00     0.253 C 
HETATM   31  N2  UNL     1      14.631 -11.435  21.136  1.00  0.00    -0.339 N 
ATOM     32  H2  UNL     1      15.437 -11.191  21.713  1.00  0.00     0.167 HD
HETATM   33  O2  UNL     1      14.176 -12.612  19.228  1.00  0.00    -0.271 OA
BRANCH  31  34
HETATM   34  C4  UNL     1      13.460 -10.897  21.659  1.00  0.00     0.073 C 
BRANCH  34  35
HETATM   35  C3  UNL     1      12.705 -11.542  22.753  1.00  0.00     0.147 C 
BRANCH  35  36
HETATM   36  C2  UNL     1      11.954 -10.749  23.712  1.00  0.00     0.222 C 
HETATM   37  N1  UNL     1      12.433  -9.492  24.136  1.00  0.00    -0.365 N 
HETATM   38  C1  UNL     1      11.682  -8.716  25.088  1.00  0.00     0.149 C 
ATOM     39  H1  UNL     1      13.313  -9.132  23.767  1.00  0.00     0.161 HD
HETATM   40  O1  UNL     1      10.868 -11.164  24.180  1.00  0.00    -0.273 OA
ENDBRANCH  35  36
ENDBRANCH  34  35
ENDBRANCH  31  34
ENDBRANCH  25  30
ENDBRANCH  23  24
ENDBRANCH   1  23
TORSDOF 10
ENDMDL
MODEL 4
REMARK VINA RESULT: -8.599446985      2.240      3.448
REMARK  10 active torsions:
REMARK  status: ('A' for Active; 'I' for Inactive)
REMARK       I    between atoms: N1_2  and  C2_4 
REMARK    1  A    between atoms: C2_4  and  C3_6 
REMARK    2  A    between atoms: C3_6  and  C4_7 
REMARK    3  A    between atoms: C4_7  and  N2_8 
REMARK       I    between atoms: N2_8  and  C5_10 
REMARK    4  A    between atoms: C5_10  and  C6_12 
REMARK    5  A    between atoms: N3_16  and  C11_18 
REMARK    6  A    between atoms: C11_18  and  C12_19 
REMARK    7  A    between atoms: C13_20  and  C14_21 
REMARK    8  A    between atoms: C14_21  and  C15_22 
REMARK       I    between atoms: C15_22  and  N4_24 
REMARK    9  A    between atoms: N4_24  and  C16_26 
REMARK   10  A    between atoms: C23_33  and  C24_34 
REMARK       I    between atoms: C24_34  and  N5_36 
ROOT
HETATM    1  C12 UNL     1      16.924 -15.227  21.200  1.00  0.00     0.021 C 
HETATM    2  C13 UNL     1      16.507 -15.528  22.383  1.00  0.00    -0.016 C 
ENDROOT
BRANCH   2   3
HETATM    3  C14 UNL     1      16.796 -16.882  22.995  1.00  0.00     0.130 C 
BRANCH   3   4
HETATM    4  C15 UNL     1      18.027 -16.805  23.825  1.00  0.00     0.221 C 
HETATM    5  O3  UNL     1      18.560 -17.877  24.191  1.00  0.00    -0.273 OA
HETATM    6  N4  UNL     1      18.601 -15.571  24.207  1.00  0.00    -0.352 N 
ATOM      7  H4  UNL     1      18.132 -14.722  23.892  1.00  0.00     0.163 HD
BRANCH   6   8
HETATM    8  C16 UNL     1      19.791 -15.408  25.002  1.00  0.00     0.035 C 
HETATM    9  C17 UNL     1      20.139 -13.913  25.033  1.00  0.00     0.035 C 
HETATM   10  C18 UNL     1      21.373 -13.683  25.840  1.00  0.00    -0.011 C 
HETATM   11  C19 UNL     1      21.195 -14.149  27.271  1.00  0.00     0.009 C 
HETATM   12  C26 UNL     1      22.527 -14.434  25.228  1.00  0.00     0.024 C 
HETATM   13  C20 UNL     1      20.802 -15.595  27.243  1.00  0.00    -0.011 C 
HETATM   14  C21 UNL     1      19.563 -15.841  26.419  1.00  0.00     0.035 C 
HETATM   15  C22 UNL     1      21.943 -16.397  26.637  1.00  0.00     0.024 C 
HETATM   16  C23 UNL     1      22.191 -15.908  25.231  1.00  0.00     0.044 C 
HETATM   17  C27 UNL     1      20.970 -16.140  24.389  1.00  0.00     0.050 C 
BRANCH  16  18
HETATM   18  C24 UNL     1      23.365 -16.616  24.650  1.00  0.00     0.226 C 
HETATM   19  O4  UNL     1      23.200 -17.560  23.827  1.00  0.00    -0.273 OA
HETATM   20  N5  UNL     1      24.683 -16.237  25.017  1.00  0.00    -0.365 N 
HETATM   21  C25 UNL     1      25.831 -16.927  24.448  1.00  0.00     0.149 C 
ATOM     22  H5  UNL     1      24.827 -15.476  25.681  1.00  0.00     0.161 HD
ENDBRANCH  16  18
ENDBRANCH   6   8
ENDBRANCH   3   4
ENDBRANCH   2   3
BRANCH   1  23
HETATM   23  C11 UNL     1      16.822 -14.052  20.342  1.00  0.00     0.203 C 
BRANCH  23  24
HETATM   24  N3  UNL     1      18.022 -13.383  20.024  1.00  0.00    -0.038 N 
HETATM   25  C6  UNL     1      18.177 -12.722  18.801  1.00  0.00     0.286 C 
HETATM   26  C7  UNL     1      19.589 -13.015  18.371  1.00  0.00     0.045 C 
HETATM   27  C8  UNL     1      19.767 -14.447  18.815  1.00  0.00     0.031 C 
HETATM   28  C9  UNL     1      19.124 -14.338  20.204  1.00  0.00     0.243 C 
HETATM   29  C10 UNL     1      18.241 -12.338  21.070  1.00  0.00     0.279 C 
BRANCH  25  30
HETATM   30  C5  UNL     1      17.196 -12.935  17.698  1.00  0.00     0.253 C 
HETATM   31  N2  UNL     1      16.028 -12.158  17.610  1.00  0.00    -0.339 N 
ATOM     32  H2  UNL     1      15.978 -11.482  18.372  1.00  0.00     0.167 HD
HETATM   33  O2  UNL     1      17.428 -13.807  16.864  1.00  0.00    -0.271 OA
BRANCH  31  34
HETATM   34  C4  UNL     1      14.921 -12.056  16.774  1.00  0.00     0.073 C 
BRANCH  34  35
HETATM   35  C3  UNL     1      14.881 -11.143  15.612  1.00  0.00     0.147 C 
BRANCH  35  36
HETATM   36  C2  UNL     1      15.932 -11.164  14.609  1.00  0.00     0.222 C 
HETATM   37  N1  UNL     1      15.653 -11.558  13.285  1.00  0.00    -0.365 N 
HETATM   38  C1  UNL     1      16.703 -11.577  12.299  1.00  0.00     0.149 C 
ATOM     39  H1  UNL     1      14.706 -11.829  13.023  1.00  0.00     0.161 HD
HETATM   40  O1  UNL     1      17.105 -10.833  14.900  1.00  0.00    -0.273 OA
ENDBRANCH  35  36
ENDBRANCH  34  35
ENDBRANCH  31  34
ENDBRANCH  25  30
ENDBRANCH  23  24
ENDBRANCH   1  23
TORSDOF 10
ENDMDL
MODEL 5
REMARK VINA RESULT: -8.525240050      1.740      2.263
REMARK  10 active torsions:
REMARK  status: ('A' for Active; 'I' for Inactive)
REMARK       I    between atoms: N1_2  and  C2_4 
REMARK    1  A    between atoms: C2_4  and  C3_6 
REMARK    2  A    between atoms: C3_6  and  C4_7 
REMARK    3  A    between atoms: C4_7  and  N2_8 
REMARK       I    between atoms: N2_8  and  C5_10 
REMARK    4  A    between atoms: C5_10  and  C6_12 
REMARK    5  A    between atoms: N3_16  and  C11_18 
REMARK    6  A    between atoms: C11_18  and  C12_19 
REMARK    7  A    between atoms: C13_20  and  C14_21 
REMARK    8  A    between atoms: C14_21  and  C15_22 
REMARK       I    between atoms: C15_22  and  N4_24 
REMARK    9  A    between atoms: N4_24  and  C16_26 
REMARK   10  A    between atoms: C23_33  and  C24_34 
REMARK       I    between atoms: C24_34  and  N5_36 
ROOT
HETATM    1  C12 UNL     1      17.775 -12.822  20.516  1.00  0.00     0.021 C 
HETATM    2  C13 UNL     1      18.966 -12.557  20.934  1.00  0.00    -0.016 C 
ENDROOT
BRANCH   2   3
HETATM    3  C14 UNL     1      20.118 -13.502  20.669  1.00  0.00     0.130 C 
BRANCH   3   4
HETATM    4  C15 UNL     1      20.250 -14.462  21.795  1.00  0.00     0.221 C 
HETATM    5  O3  UNL     1      20.368 -15.679  21.522  1.00  0.00    -0.273 OA
HETATM    6  N4  UNL     1      20.245 -14.044  23.145  1.00  0.00    -0.352 N 
ATOM      7  H4  UNL     1      20.141 -13.045  23.323  1.00  0.00     0.163 HD
BRANCH   6   8
HETATM    8  C16 UNL     1      20.373 -14.906  24.292  1.00  0.00     0.035 C 
HETATM    9  C17 UNL     1      20.371 -14.025  25.549  1.00  0.00     0.035 C 
HETATM   10  C18 UNL     1      20.510 -14.866  26.774  1.00  0.00    -0.011 C 
HETATM   11  C19 UNL     1      19.369 -15.857  26.899  1.00  0.00     0.009 C 
HETATM   12  C26 UNL     1      21.807 -15.629  26.722  1.00  0.00     0.024 C 
HETATM   13  C20 UNL     1      19.333 -16.683  25.649  1.00  0.00    -0.011 C 
HETATM   14  C21 UNL     1      19.207 -15.842  24.404  1.00  0.00     0.035 C 
HETATM   15  C22 UNL     1      20.625 -17.479  25.556  1.00  0.00     0.024 C 
HETATM   16  C23 UNL     1      21.788 -16.519  25.500  1.00  0.00     0.044 C 
HETATM   17  C27 UNL     1      21.685 -15.668  24.268  1.00  0.00     0.050 C 
BRANCH  16  18
HETATM   18  C24 UNL     1      23.069 -17.278  25.502  1.00  0.00     0.226 C 
HETATM   19  O4  UNL     1      23.078 -18.517  25.743  1.00  0.00    -0.273 OA
HETATM   20  N5  UNL     1      24.294 -16.614  25.230  1.00  0.00    -0.365 N 
HETATM   21  C25 UNL     1      25.546 -17.355  25.228  1.00  0.00     0.149 C 
ATOM     22  H5  UNL     1      24.298 -15.613  25.035  1.00  0.00     0.161 HD
ENDBRANCH  16  18
ENDBRANCH   6   8
ENDBRANCH   3   4
ENDBRANCH   2   3
BRANCH   1  23
HETATM   23  C11 UNL     1      16.483 -12.149  20.598  1.00  0.00     0.203 C 
BRANCH  23  24
HETATM   24  N3  UNL     1      15.336 -12.967  20.668  1.00  0.00    -0.038 N 
HETATM   25  C6  UNL     1      14.505 -13.140  19.556  1.00  0.00     0.286 C 
HETATM   26  C7  UNL     1      13.104 -13.128  20.106  1.00  0.00     0.045 C 
HETATM   27  C8  UNL     1      13.196 -12.080  21.190  1.00  0.00     0.031 C 
HETATM   28  C9  UNL     1      14.533 -12.508  21.810  1.00  0.00     0.243 C 
HETATM   29  C10 UNL     1      15.790 -14.341  21.041  1.00  0.00     0.279 C 
BRANCH  25  30
HETATM   30  C5  UNL     1      14.649 -12.259  18.361  1.00  0.00     0.253 C 
HETATM   31  N2  UNL     1      15.829 -12.265  17.598  1.00  0.00    -0.339 N 
ATOM     32  H2  UNL     1      16.509 -12.924  17.977  1.00  0.00     0.167 HD
HETATM   33  O2  UNL     1      13.713 -11.523  18.056  1.00  0.00    -0.271 OA
BRANCH  31  34
HETATM   34  C4  UNL     1      16.327 -11.622  16.469  1.00  0.00     0.073 C 
BRANCH  34  35
HETATM   35  C3  UNL     1      15.455 -10.963  15.475  1.00  0.00     0.147 C 
BRANCH  35  36
HETATM   36  C2  UNL     1      14.693 -11.744  14.515  1.00  0.00     0.222 C 
HETATM   37  N1  UNL     1      14.774 -11.464  13.136  1.00  0.00    -0.365 N 
HETATM   38  C1  UNL     1      14.014 -12.243  12.193  1.00  0.00     0.149 C 
ATOM     39  H1  UNL     1      15.373 -10.708  12.805  1.00  0.00     0.161 HD
HETATM   40  O1  UNL     1      13.952 -12.682  14.892  1.00  0.00    -0.273 OA
ENDBRANCH  35  36
ENDBRANCH  34  35
ENDBRANCH  31  34
ENDBRANCH  25  30
ENDBRANCH  23  24
ENDBRANCH   1  23
TORSDOF 10
ENDMDL
