MODEL 1
REMARK VINA RESULT: -7.822627125      0.000      0.000
REMARK  10 active torsions:
REMARK  status: ('A' for Active; 'I' for Inactive)
REMARK    1  A    between atoms: C3_3  and  N1_4 
REMARK       I    between atoms: N1_4  and  C4_5 
REMARK    2  A    between atoms: N1_4  and  C8_12 
REMARK       I    between atoms: C4_5  and  N2_7 
REMARK    3  A    between atoms: N2_7  and  C5_9 
REMARK    4  A    between atoms: N3_17  and  C13_18 
REMARK    5  A    between atoms: C13_18  and  C14_19 
REMARK    6  A    between atoms: C14_19  and  N4_22 
REMARK       I    between atoms: N4_22  and  C17_24 
REMARK    7  A    between atoms: C17_24  and  C18_26 
REMARK    8  A    between atoms: C18_26  and  N5_28 
REMARK       I    between atoms: N5_28  and  C20_30 
REMARK    9  A    between atoms: C20_30  and  C21_32 
REMARK   10  A    between atoms: C21_32  and  N6_34 
REMARK       I    between atoms: N6_34  and  C23_36 
ROOT
HETATM    1  C1  UNL     1      20.483 -13.388  20.895  1.00  0.00     0.014 C 
HETATM    2  C2  UNL     1      20.312 -14.500  21.358  1.00  0.00    -0.098 C 
HETATM    3  C3  UNL     1      20.130 -15.849  21.919  1.00  0.00     0.221 C 
ENDROOT
BRANCH   3   4
HETATM    4  N1  UNL     1      18.902 -15.853  22.699  1.00  0.00    -0.317 N 
HETATM    5  C4  UNL     1      18.984 -15.411  24.046  1.00  0.00     0.319 C 
HETATM    6  O1  UNL     1      17.872 -15.450  24.698  1.00  0.00    -0.247 OA
HETATM    7  N2  UNL     1      20.153 -14.955  24.685  1.00  0.00    -0.339 N 
ATOM      8  H2  UNL     1      21.033 -14.923  24.169  1.00  0.00     0.164 HD
BRANCH   7   9
HETATM    9  C5  UNL     1      20.116 -14.533  26.059  1.00  0.00     0.078 C 
HETATM   10  C6  UNL     1      21.224 -13.493  26.259  1.00  0.00     0.032 C 
HETATM   11  C7  UNL     1      20.398 -15.690  26.974  1.00  0.00     0.032 C 
ENDBRANCH   7   9
BRANCH   4  12
HETATM   12  C8  UNL     1      17.640 -16.289  22.126  1.00  0.00     0.116 C 
HETATM   13  C9  UNL     1      17.852 -17.240  20.942  1.00  0.00     0.033 C 
HETATM   14  C10 UNL     1      16.514 -17.497  20.321  1.00  0.00     0.015 C 
HETATM   15  C11 UNL     1      15.558 -17.814  21.460  1.00  0.00     0.034 C 
HETATM   16  C25 UNL     1      15.858 -16.212  19.792  1.00  0.00     0.242 C 
HETATM   17  C12 UNL     1      15.033 -16.489  21.863  1.00  0.00     0.238 C 
HETATM   18  N3  UNL     1      15.636 -15.474  20.976  1.00  0.00    -0.062 N 
HETATM   19  C26 UNL     1      16.917 -15.091  21.542  1.00  0.00     0.263 C 
BRANCH  18  20
HETATM   20  C13 UNL     1      14.683 -14.424  20.954  1.00  0.00     0.267 C 
BRANCH  20  21
HETATM   21  C14 UNL     1      14.912 -13.208  20.198  1.00  0.00     0.050 C 
HETATM   22  C15 UNL     1      15.547 -12.054  20.917  1.00  0.00     0.039 C 
HETATM   23  C16 UNL     1      13.503 -12.678  19.826  1.00  0.00     0.039 C 
BRANCH  21  24
HETATM   24  N4  UNL     1      15.594 -13.397  18.940  1.00  0.00    -0.349 N 
HETATM   25  C17 UNL     1      16.884 -12.938  18.629  1.00  0.00     0.240 C 
HETATM   26  O2  UNL     1      17.526 -12.304  19.504  1.00  0.00    -0.271 OA
ATOM     27  H4  UNL     1      15.096 -13.910  18.214  1.00  0.00     0.163 HD
BRANCH  25  28
HETATM   28  C18 UNL     1      17.524 -13.167  17.308  1.00  0.00     0.172 C 
HETATM   29  C19 UNL     1      19.015 -13.020  17.357  1.00  0.00     0.042 C 
BRANCH  28  30
HETATM   30  N5  UNL     1      16.982 -12.253  16.320  1.00  0.00    -0.346 N 
HETATM   31  C20 UNL     1      15.858 -12.553  15.525  1.00  0.00     0.240 C 
HETATM   32  O3  UNL     1      15.266 -13.654  15.642  1.00  0.00    -0.271 OA
ATOM     33  H5  UNL     1      17.437 -11.349  16.195  1.00  0.00     0.163 HD
BRANCH  31  34
HETATM   34  C21 UNL     1      15.342 -11.595  14.534  1.00  0.00     0.172 C 
HETATM   35  C22 UNL     1      14.794 -10.369  15.256  1.00  0.00     0.042 C 
BRANCH  34  36
HETATM   36  N6  UNL     1      16.312 -11.220  13.548  1.00  0.00    -0.349 N 
HETATM   37  C23 UNL     1      16.385 -11.875  12.295  1.00  0.00     0.214 C 
HETATM   38  C24 UNL     1      17.410 -11.459  11.287  1.00  0.00     0.117 C 
HETATM   39  O4  UNL     1      15.610 -12.819  11.976  1.00  0.00    -0.274 OA
ATOM     40  H6  UNL     1      16.964 -10.463  13.754  1.00  0.00     0.163 HD
ENDBRANCH  34  36
ENDBRANCH  31  34
ENDBRANCH  28  30
ENDBRANCH  25  28
ENDBRANCH  21  24
ENDBRANCH  20  21
ENDBRANCH  18  20
ENDBRANCH   4  12
ENDBRANCH   3   4
TORSDOF 10
ENDMDL
MODEL 2
REMARK VINA RESULT: -7.688562596      2.780      5.567
REMARK  10 active torsions:
REMARK  status: ('A' for Active; 'I' for Inactive)
REMARK    1  A    between atoms: C3_3  and  N1_4 
REMARK       I    between atoms: N1_4  and  C4_5 
REMARK    2  A    between atoms: N1_4  and  C8_12 
REMARK       I    between atoms: C4_5  and  N2_7 
REMARK    3  A    between atoms: N2_7  and  C5_9 
REMARK    4  A    between atoms: N3_17  and  C13_18 
REMARK    5  A    between atoms: C13_18  and  C14_19 
REMARK    6  A    between atoms: C14_19  and  N4_22 
REMARK       I    between atoms: N4_22  and  C17_24 
REMARK    7  A    between atoms: C17_24  and  C18_26 
REMARK    8  A    between atoms: C18_26  and  N5_28 
REMARK       I    between atoms: N5_28  and  C20_30 
REMARK    9  A    between atoms: C20_30  and  C21_32 
REMARK   10  A    between atoms: C21_32  and  N6_34 
REMARK       I    between atoms: N6_34  and  C23_36 
ROOT
HETATM    1  C1  UNL     1      20.857 -14.233  27.274  1.00  0.00     0.014 C 
HETATM    2  C2  UNL     1      21.474 -14.274  26.226  1.00  0.00    -0.098 C 
HETATM    3  C3  UNL     1      22.240 -14.309  24.969  1.00  0.00     0.221 C 
ENDROOT
BRANCH   3   4
HETATM    4  N1  UNL     1      21.928 -15.553  24.283  1.00  0.00    -0.317 N 
HETATM    5  C4  UNL     1      22.628 -16.717  24.697  1.00  0.00     0.319 C 
HETATM    6  O1  UNL     1      22.327 -17.791  24.047  1.00  0.00    -0.247 OA
HETATM    7  N2  UNL     1      23.589 -16.770  25.726  1.00  0.00    -0.339 N 
ATOM      8  H2  UNL     1      23.826 -15.922  26.240  1.00  0.00     0.164 HD
BRANCH   7   9
HETATM    9  C5  UNL     1      24.237 -18.010  26.056  1.00  0.00     0.078 C 
HETATM   10  C6  UNL     1      23.863 -18.364  27.499  1.00  0.00     0.032 C 
HETATM   11  C7  UNL     1      25.731 -17.858  25.990  1.00  0.00     0.032 C 
ENDBRANCH   7   9
BRANCH   4  12
HETATM   12  C8  UNL     1      20.939 -15.608  23.220  1.00  0.00     0.116 C 
HETATM   13  C9  UNL     1      20.325 -14.231  22.944  1.00  0.00     0.033 C 
HETATM   14  C10 UNL     1      19.211 -14.420  21.961  1.00  0.00     0.015 C 
HETATM   15  C11 UNL     1      19.753 -15.306  20.853  1.00  0.00     0.034 C 
HETATM   16  C25 UNL     1      18.105 -15.339  22.501  1.00  0.00     0.242 C 
HETATM   17  C12 UNL     1      19.468 -16.681  21.326  1.00  0.00     0.238 C 
HETATM   18  N3  UNL     1      18.770 -16.579  22.623  1.00  0.00    -0.062 N 
HETATM   19  C26 UNL     1      19.777 -16.475  23.664  1.00  0.00     0.263 C 
BRANCH  18  20
HETATM   20  C13 UNL     1      17.995 -17.764  22.693  1.00  0.00     0.267 C 
BRANCH  20  21
HETATM   21  C14 UNL     1      16.920 -17.911  23.654  1.00  0.00     0.050 C 
HETATM   22  C15 UNL     1      17.260 -17.745  25.106  1.00  0.00     0.039 C 
HETATM   23  C16 UNL     1      16.467 -19.390  23.550  1.00  0.00     0.039 C 
BRANCH  21  24
HETATM   24  N4  UNL     1      15.741 -17.128  23.367  1.00  0.00    -0.349 N 
HETATM   25  C17 UNL     1      15.048 -17.105  22.146  1.00  0.00     0.240 C 
HETATM   26  O2  UNL     1      15.469 -17.819  21.201  1.00  0.00    -0.271 OA
ATOM     27  H4  UNL     1      15.378 -16.541  24.118  1.00  0.00     0.163 HD
BRANCH  25  28
HETATM   28  C18 UNL     1      13.839 -16.270  21.921  1.00  0.00     0.172 C 
HETATM   29  C19 UNL     1      12.643 -17.084  21.528  1.00  0.00     0.042 C 
BRANCH  28  30
HETATM   30  N5  UNL     1      14.100 -15.271  20.901  1.00  0.00    -0.346 N 
HETATM   31  C20 UNL     1      14.595 -13.984  21.189  1.00  0.00     0.240 C 
HETATM   32  O3  UNL     1      14.836 -13.640  22.372  1.00  0.00    -0.271 OA
ATOM     33  H5  UNL     1      13.916 -15.513  19.927  1.00  0.00     0.163 HD
BRANCH  31  34
HETATM   34  C21 UNL     1      14.845 -13.002  20.122  1.00  0.00     0.172 C 
HETATM   35  C22 UNL     1      16.029 -12.124  20.511  1.00  0.00     0.042 C 
BRANCH  34  36
HETATM   36  N6  UNL     1      15.051 -13.601  18.836  1.00  0.00    -0.349 N 
HETATM   37  C23 UNL     1      14.673 -12.940  17.643  1.00  0.00     0.214 C 
HETATM   38  C24 UNL     1      14.902 -13.593  16.316  1.00  0.00     0.117 C 
HETATM   39  O4  UNL     1      14.137 -11.797  17.640  1.00  0.00    -0.274 OA
ATOM     40  H6  UNL     1      15.480 -14.525  18.780  1.00  0.00     0.163 HD
ENDBRANCH  34  36
ENDBRANCH  31  34
ENDBRANCH  28  30
ENDBRANCH  25  28
ENDBRANCH  21  24
ENDBRANCH  20  21
ENDBRANCH  18  20
ENDBRANCH   4  12
ENDBRANCH   3   4
TORSDOF 10
ENDMDL
MODEL 3
REMARK VINA RESULT: -7.686395298      3.668      6.465
REMARK  10 active torsions:
REMARK  status: ('A' for Active; 'I' for Inactive)
REMARK    1  A    between atoms: C3_3  and  N1_4 
REMARK       I    between atoms: N1_4  and  C4_5 
REMARK    2  A    between atoms: N1_4  and  C8_12 
REMARK       I    between atoms: C4_5  and  N2_7 
REMARK    3  A    between atoms: N2_7  and  C5_9 
REMARK    4  A    between atoms: N3_17  and  C13_18 
REMARK    5  A    between atoms: C13_18  and  C14_19 
REMARK    6  A    between atoms: C14_19  and  N4_22 
REMARK       I    between atoms: N4_22  and  C17_24 
REMARK    7  A    between atoms: C17_24  and  C18_26 
REMARK    8  A    between atoms: C18_26  and  N5_28 
REMARK       I    between atoms: N5_28  and  C20_30 
REMARK    9  A    between atoms: C20_30  and  C21_32 
REMARK   10  A    between atoms: C21_32  and  N6_34 
REMARK       I    between atoms: N6_34  and  C23_36 
ROOT
HETATM    1  C1  UNL     1      21.661 -19.380  21.211  1.00  0.00     0.014 C 
HETATM    2  C2  UNL     1      21.690 -19.263  22.422  1.00  0.00    -0.098 C 
HETATM    3  C3  UNL     1      21.734 -19.145  23.889  1.00  0.00     0.221 C 
ENDROOT
BRANCH   3   4
HETATM    4  N1  UNL     1      21.981 -17.751  24.224  1.00  0.00    -0.317 N 
HETATM    5  C4  UNL     1      23.335 -17.332  24.310  1.00  0.00     0.319 C 
HETATM    6  O1  UNL     1      23.500 -16.092  24.624  1.00  0.00    -0.247 OA
HETATM    7  N2  UNL     1      24.458 -18.151  24.083  1.00  0.00    -0.339 N 
ATOM      8  H2  UNL     1      24.328 -19.131  23.833  1.00  0.00     0.164 HD
BRANCH   7   9
HETATM    9  C5  UNL     1      25.788 -17.615  24.201  1.00  0.00     0.078 C 
HETATM   10  C6  UNL     1      26.283 -17.277  22.791  1.00  0.00     0.032 C 
HETATM   11  C7  UNL     1      26.719 -18.639  24.786  1.00  0.00     0.032 C 
ENDBRANCH   7   9
BRANCH   4  12
HETATM   12  C8  UNL     1      20.889 -16.821  24.459  1.00  0.00     0.116 C 
HETATM   13  C9  UNL     1      19.613 -17.544  24.905  1.00  0.00     0.033 C 
HETATM   14  C10 UNL     1      18.513 -16.530  24.958  1.00  0.00     0.015 C 
HETATM   15  C11 UNL     1      19.066 -15.324  25.699  1.00  0.00     0.034 C 
HETATM   16  C25 UNL     1      18.245 -15.884  23.589  1.00  0.00     0.242 C 
HETATM   17  C12 UNL     1      19.673 -14.498  24.630  1.00  0.00     0.238 C 
HETATM   18  N3  UNL     1      19.447 -15.185  23.342  1.00  0.00    -0.062 N 
HETATM   19  C26 UNL     1      20.522 -16.142  23.153  1.00  0.00     0.263 C 
BRANCH  18  20
HETATM   20  C13 UNL     1      19.441 -14.137  22.387  1.00  0.00     0.267 C 
BRANCH  20  21
HETATM   21  C14 UNL     1      19.435 -14.408  20.963  1.00  0.00     0.050 C 
HETATM   22  C15 UNL     1      19.978 -15.730  20.508  1.00  0.00     0.039 C 
HETATM   23  C16 UNL     1      20.408 -13.376  20.338  1.00  0.00     0.039 C 
BRANCH  21  24
HETATM   24  N4  UNL     1      18.167 -14.184  20.310  1.00  0.00    -0.349 N 
HETATM   25  C17 UNL     1      17.463 -12.970  20.280  1.00  0.00     0.240 C 
HETATM   26  O2  UNL     1      17.956 -11.972  20.865  1.00  0.00    -0.271 OA
ATOM     27  H4  UNL     1      17.746 -14.977  19.827  1.00  0.00     0.163 HD
BRANCH  25  28
HETATM   28  C18 UNL     1      16.157 -12.812  19.588  1.00  0.00     0.172 C 
HETATM   29  C19 UNL     1      16.310 -12.366  18.165  1.00  0.00     0.042 C 
BRANCH  28  30
HETATM   30  N5  UNL     1      15.320 -11.866  20.303  1.00  0.00    -0.346 N 
HETATM   31  C20 UNL     1      14.343 -12.254  21.242  1.00  0.00     0.240 C 
HETATM   32  O3  UNL     1      14.153 -13.467  21.504  1.00  0.00    -0.271 OA
ATOM     33  H5  UNL     1      15.444 -10.871  20.116  1.00  0.00     0.163 HD
BRANCH  31  34
HETATM   34  C21 UNL     1      13.517 -11.260  21.944  1.00  0.00     0.172 C 
HETATM   35  C22 UNL     1      12.829 -10.362  20.922  1.00  0.00     0.042 C 
BRANCH  34  36
HETATM   36  N6  UNL     1      12.561 -11.845  22.837  1.00  0.00    -0.349 N 
HETATM   37  C23 UNL     1      11.916 -11.078  23.837  1.00  0.00     0.214 C 
HETATM   38  C24 UNL     1      10.922 -11.720  24.754  1.00  0.00     0.117 C 
HETATM   39  O4  UNL     1      12.142  -9.846  24.000  1.00  0.00    -0.274 OA
ATOM     40  H6  UNL     1      12.340 -12.838  22.751  1.00  0.00     0.163 HD
ENDBRANCH  34  36
ENDBRANCH  31  34
ENDBRANCH  28  30
ENDBRANCH  25  28
ENDBRANCH  21  24
ENDBRANCH  20  21
ENDBRANCH  18  20
ENDBRANCH   4  12
ENDBRANCH   3   4
TORSDOF 10
ENDMDL
MODEL 4
REMARK VINA RESULT: -7.610662324      3.212      5.957
REMARK  10 active torsions:
REMARK  status: ('A' for Active; 'I' for Inactive)
REMARK    1  A    between atoms: C3_3  and  N1_4 
REMARK       I    between atoms: N1_4  and  C4_5 
REMARK    2  A    between atoms: N1_4  and  C8_12 
REMARK       I    between atoms: C4_5  and  N2_7 
REMARK    3  A    between atoms: N2_7  and  C5_9 
REMARK    4  A    between atoms: N3_17  and  C13_18 
REMARK    5  A    between atoms: C13_18  and  C14_19 
REMARK    6  A    between atoms: C14_19  and  N4_22 
REMARK       I    between atoms: N4_22  and  C17_24 
REMARK    7  A    between atoms: C17_24  and  C18_26 
REMARK    8  A    between atoms: C18_26  and  N5_28 
REMARK       I    between atoms: N5_28  and  C20_30 
REMARK    9  A    between atoms: C20_30  and  C21_32 
REMARK   10  A    between atoms: C21_32  and  N6_34 
REMARK       I    between atoms: N6_34  and  C23_36 
ROOT
HETATM    1  C1  UNL     1      21.439 -20.160  25.008  1.00  0.00     0.014 C 
HETATM    2  C2  UNL     1      22.122 -19.348  25.604  1.00  0.00    -0.098 C 
HETATM    3  C3  UNL     1      22.962 -18.386  26.336  1.00  0.00     0.221 C 
ENDROOT
BRANCH   3   4
HETATM    4  N1  UNL     1      23.090 -17.186  25.522  1.00  0.00    -0.317 N 
HETATM    5  C4  UNL     1      24.171 -17.137  24.602  1.00  0.00     0.319 C 
HETATM    6  O1  UNL     1      24.250 -16.046  23.917  1.00  0.00    -0.247 OA
HETATM    7  N2  UNL     1      25.119 -18.159  24.402  1.00  0.00    -0.339 N 
ATOM      8  H2  UNL     1      25.057 -19.021  24.942  1.00  0.00     0.164 HD
BRANCH   7   9
HETATM    9  C5  UNL     1      26.176 -17.995  23.439  1.00  0.00     0.078 C 
HETATM   10  C6  UNL     1      25.739 -18.684  22.143  1.00  0.00     0.032 C 
HETATM   11  C7  UNL     1      27.433 -18.663  23.918  1.00  0.00     0.032 C 
ENDBRANCH   7   9
BRANCH   4  12
HETATM   12  C8  UNL     1      22.152 -16.084  25.642  1.00  0.00     0.116 C 
HETATM   13  C9  UNL     1      21.288 -16.206  26.902  1.00  0.00     0.033 C 
HETATM   14  C10 UNL     1      20.252 -15.127  26.848  1.00  0.00     0.015 C 
HETATM   15  C11 UNL     1      20.977 -13.843  26.480  1.00  0.00     0.034 C 
HETATM   16  C25 UNL     1      19.334 -15.258  25.623  1.00  0.00     0.242 C 
HETATM   17  C12 UNL     1      20.955 -13.834  25.000  1.00  0.00     0.238 C 
HETATM   18  N3  UNL     1      20.225 -15.036  24.550  1.00  0.00    -0.062 N 
HETATM   19  C26 UNL     1      21.172 -16.135  24.486  1.00  0.00     0.263 C 
BRANCH  18  20
HETATM   20  C13 UNL     1      19.693 -14.666  23.288  1.00  0.00     0.267 C 
BRANCH  20  21
HETATM   21  C14 UNL     1      18.988 -15.619  22.454  1.00  0.00     0.050 C 
HETATM   22  C15 UNL     1      18.557 -16.909  23.087  1.00  0.00     0.039 C 
HETATM   23  C16 UNL     1      20.007 -16.063  21.374  1.00  0.00     0.039 C 
BRANCH  21  24
HETATM   24  N4  UNL     1      17.870 -15.071  21.722  1.00  0.00    -0.349 N 
HETATM   25  C17 UNL     1      16.720 -14.498  22.289  1.00  0.00     0.240 C 
HETATM   26  O2  UNL     1      16.628 -14.442  23.541  1.00  0.00    -0.271 OA
ATOM     27  H4  UNL     1      17.920 -15.103  20.705  1.00  0.00     0.163 HD
BRANCH  25  28
HETATM   28  C18 UNL     1      15.604 -13.954  21.471  1.00  0.00     0.172 C 
HETATM   29  C19 UNL     1      14.359 -14.783  21.574  1.00  0.00     0.042 C 
BRANCH  28  30
HETATM   30  N5  UNL     1      16.002 -13.852  20.080  1.00  0.00    -0.346 N 
HETATM   31  C20 UNL     1      16.366 -12.636  19.468  1.00  0.00     0.240 C 
HETATM   32  O3  UNL     1      16.358 -11.563  20.120  1.00  0.00    -0.271 OA
ATOM     33  H5  UNL     1      16.020 -14.703  19.517  1.00  0.00     0.163 HD
BRANCH  31  34
HETATM   34  C21 UNL     1      16.764 -12.579  18.052  1.00  0.00     0.172 C 
HETATM   35  C22 UNL     1      17.127 -13.980  17.573  1.00  0.00     0.042 C 
BRANCH  34  36
HETATM   36  N6  UNL     1      15.769 -11.989  17.206  1.00  0.00    -0.349 N 
HETATM   37  C23 UNL     1      16.124 -11.205  16.081  1.00  0.00     0.214 C 
HETATM   38  C24 UNL     1      15.061 -10.603  15.217  1.00  0.00     0.117 C 
HETATM   39  O4  UNL     1      17.325 -10.982  15.760  1.00  0.00    -0.274 OA
ATOM     40  H6  UNL     1      14.782 -12.136  17.419  1.00  0.00     0.163 HD
ENDBRANCH  34  36
ENDBRANCH  31  34
ENDBRANCH  28  30
ENDBRANCH  25  28
ENDBRANCH  21  24
ENDBRANCH  20  21
ENDBRANCH  18  20
ENDBRANCH   4  12
ENDBRANCH   3   4
TORSDOF 10
ENDMDL
MODEL 5
REMARK VINA RESULT: -7.609351097      3.279      7.236
REMARK  10 active torsions:
REMARK  status: ('A' for Active; 'I' for Inactive)
REMARK    1  A    between atoms: C3_3  and  N1_4 
REMARK       I    between atoms: N1_4  and  C4_5 
REMARK    2  A    between atoms: N1_4  and  C8_12 
REMARK       I    between atoms: C4_5  and  N2_7 
REMARK    3  A    between atoms: N2_7  and  C5_9 
REMARK    4  A    between atoms: N3_17  and  C13_18 
REMARK    5  A    between atoms: C13_18  and  C14_19 
REMARK    6  A    between atoms: C14_19  and  N4_22 
REMARK       I    between atoms: N4_22  and  C17_24 
REMARK    7  A    between atoms: C17_24  and  C18_26 
REMARK    8  A    between atoms: C18_26  and  N5_28 
REMARK       I    between atoms: N5_28  and  C20_30 
REMARK    9  A    between atoms: C20_30  and  C21_32 
REMARK   10  A    between atoms: C21_32  and  N6_34 
REMARK       I    between atoms: N6_34  and  C23_36 
ROOT
HETATM    1  C1  UNL     1      20.832 -12.698  19.931  1.00  0.00     0.014 C 
HETATM    2  C2  UNL     1      20.366 -13.814  20.065  1.00  0.00    -0.098 C 
HETATM    3  C3  UNL     1      19.826 -15.175  20.227  1.00  0.00     0.221 C 
ENDROOT
BRANCH   3   4
HETATM    4  N1  UNL     1      18.568 -15.079  20.951  1.00  0.00    -0.317 N 
HETATM    5  C4  UNL     1      17.428 -14.650  20.220  1.00  0.00     0.319 C 
HETATM    6  O1  UNL     1      16.341 -14.566  20.911  1.00  0.00    -0.247 OA
HETATM    7  N2  UNL     1      17.411 -14.325  18.850  1.00  0.00    -0.339 N 
ATOM      8  H2  UNL     1      18.269 -14.392  18.304  1.00  0.00     0.164 HD
BRANCH   7   9
HETATM    9  C5  UNL     1      16.193 -13.899  18.216  1.00  0.00     0.078 C 
HETATM   10  C6  UNL     1      16.063 -14.661  16.893  1.00  0.00     0.032 C 
HETATM   11  C7  UNL     1      16.248 -12.431  17.901  1.00  0.00     0.032 C 
ENDBRANCH   7   9
BRANCH   4  12
HETATM   12  C8  UNL     1      18.476 -15.409  22.362  1.00  0.00     0.116 C 
HETATM   13  C9  UNL     1      19.603 -14.758  23.172  1.00  0.00     0.033 C 
HETATM   14  C10 UNL     1      19.522 -15.289  24.570  1.00  0.00     0.015 C 
HETATM   15  C11 UNL     1      18.064 -15.198  24.987  1.00  0.00     0.034 C 
HETATM   16  C25 UNL     1      19.707 -16.813  24.630  1.00  0.00     0.242 C 
HETATM   17  C12 UNL     1      17.487 -16.489  24.544  1.00  0.00     0.238 C 
HETATM   18  N3  UNL     1      18.572 -17.285  23.936  1.00  0.00    -0.062 N 
HETATM   19  C26 UNL     1      18.676 -16.902  22.539  1.00  0.00     0.263 C 
BRANCH  18  20
HETATM   20  C13 UNL     1      18.165 -18.630  24.131  1.00  0.00     0.267 C 
BRANCH  20  21
HETATM   21  C14 UNL     1      16.794 -19.047  23.913  1.00  0.00     0.050 C 
HETATM   22  C15 UNL     1      15.837 -18.910  25.060  1.00  0.00     0.039 C 
HETATM   23  C16 UNL     1      16.857 -20.576  23.668  1.00  0.00     0.039 C 
BRANCH  21  24
HETATM   24  N4  UNL     1      16.175 -18.495  22.730  1.00  0.00    -0.349 N 
HETATM   25  C17 UNL     1      14.803 -18.254  22.559  1.00  0.00     0.240 C 
HETATM   26  O2  UNL     1      14.019 -18.531  23.503  1.00  0.00    -0.271 OA
ATOM     27  H4  UNL     1      16.789 -18.261  21.951  1.00  0.00     0.163 HD
BRANCH  25  28
HETATM   28  C18 UNL     1      14.234 -17.685  21.310  1.00  0.00     0.172 C 
HETATM   29  C19 UNL     1      15.024 -18.062  20.093  1.00  0.00     0.042 C 
BRANCH  28  30
HETATM   30  N5  UNL     1      14.154 -16.239  21.405  1.00  0.00    -0.346 N 
HETATM   31  C20 UNL     1      12.943 -15.543  21.591  1.00  0.00     0.240 C 
HETATM   32  O3  UNL     1      11.856 -16.163  21.684  1.00  0.00    -0.271 OA
ATOM     33  H5  UNL     1      15.017 -15.701  21.333  1.00  0.00     0.163 HD
BRANCH  31  34
HETATM   34  C21 UNL     1      12.910 -14.075  21.683  1.00  0.00     0.172 C 
HETATM   35  C22 UNL     1      12.872 -13.482  20.279  1.00  0.00     0.042 C 
BRANCH  34  36
HETATM   36  N6  UNL     1      11.825 -13.580  22.478  1.00  0.00    -0.349 N 
HETATM   37  C23 UNL     1      11.928 -12.365  23.198  1.00  0.00     0.214 C 
HETATM   38  C24 UNL     1      10.776 -11.876  24.019  1.00  0.00     0.117 C 
HETATM   39  O4  UNL     1      12.971 -11.653  23.182  1.00  0.00    -0.274 OA
ATOM     40  H6  UNL     1      10.958 -14.116  22.527  1.00  0.00     0.163 HD
ENDBRANCH  34  36
ENDBRANCH  31  34
ENDBRANCH  28  30
ENDBRANCH  25  28
ENDBRANCH  21  24
ENDBRANCH  20  21
ENDBRANCH  18  20
ENDBRANCH   4  12
ENDBRANCH   3   4
TORSDOF 10
ENDMDL
