MODEL 1
REMARK VINA RESULT: -8.722218899      0.000      0.000
REMARK  13 active torsions:
REMARK  status: ('A' for Active; 'I' for Inactive)
REMARK       I    between atoms: C2_2  and  N1_4 
REMARK    1  A    between atoms: N1_4  and  C3_6 
REMARK    2  A    between atoms: C3_6  and  C4_7 
REMARK       I    between atoms: C4_7  and  N2_9 
REMARK    3  A    between atoms: N2_9  and  C5_11 
REMARK    4  A    between atoms: C5_11  and  C6_12 
REMARK    5  A    between atoms: C5_11  and  C25_38 
REMARK       I    between atoms: C6_12  and  N3_14 
REMARK    6  A    between atoms: N3_14  and  C7_16 
REMARK    7  A    between atoms: C7_16  and  C8_17 
REMARK    8  A    between atoms: C7_16  and  C23_33 
REMARK    9  A    between atoms: C8_17  and  C9_18 
REMARK   10  A    between atoms: C10_19  and  C11_20 
REMARK   11  A    between atoms: C12_21  and  C13_22 
REMARK   12  A    between atoms: C13_22  and  N4_23 
REMARK   13  A    between atoms: C23_33  and  C24_35 
ROOT
HETATM    1  C7  UNL     1      16.921 -12.365  17.679  1.00  0.00     0.175 C 
ENDROOT
BRANCH   1   2
HETATM    2  N3  UNL     1      15.919 -12.993  18.513  1.00  0.00    -0.346 N 
HETATM    3  C6  UNL     1      15.617 -12.609  19.822  1.00  0.00     0.241 C 
HETATM    4  O3  UNL     1      16.245 -11.654  20.334  1.00  0.00    -0.271 OA
ATOM      5  H3  UNL     1      15.394 -13.773  18.116  1.00  0.00     0.163 HD
BRANCH   3   6
HETATM    6  C5  UNL     1      14.582 -13.291  20.620  1.00  0.00     0.180 C 
BRANCH   6   7
HETATM    7  N2  UNL     1      14.748 -14.715  20.504  1.00  0.00    -0.346 N 
HETATM    8  C4  UNL     1      15.573 -15.491  21.335  1.00  0.00     0.236 C 
HETATM    9  O2  UNL     1      16.242 -14.952  22.272  1.00  0.00    -0.272 OA
ATOM     10  H2  UNL     1      14.232 -15.194  19.767  1.00  0.00     0.163 HD
BRANCH   8  11
HETATM   11  C3  UNL     1      15.659 -16.954  21.113  1.00  0.00     0.225 C 
BRANCH  11  12
HETATM   12  N1  UNL     1      14.435 -17.568  20.707  1.00  0.00    -0.353 N 
HETATM   13  C2  UNL     1      13.439 -18.016  21.585  1.00  0.00     0.213 C 
HETATM   14  C1  UNL     1      12.185 -18.652  21.097  1.00  0.00     0.117 C 
HETATM   15  O1  UNL     1      13.574 -17.891  22.834  1.00  0.00    -0.274 OA
ATOM     16  H1  UNL     1      14.275 -17.689  19.707  1.00  0.00     0.162 HD
ENDBRANCH  11  12
ENDBRANCH   8  11
ENDBRANCH   6   7
BRANCH   6  17
HETATM   17  C25 UNL     1      13.174 -12.898  20.250  1.00  0.00     0.009 C 
HETATM   18  C26 UNL     1      12.926 -11.527  20.887  1.00  0.00     0.012 C 
HETATM   19  C27 UNL     1      12.131 -13.825  20.840  1.00  0.00     0.012 C 
ENDBRANCH   6  17
ENDBRANCH   3   6
ENDBRANCH   1   2
BRANCH   1  20
HETATM   20  C8  UNL     1      17.946 -13.361  17.238  1.00  0.00     0.128 C 
BRANCH  20  21
HETATM   21  C9  UNL     1      18.483 -14.059  18.415  1.00  0.00    -0.090 C 
HETATM   22  C10 UNL     1      18.923 -14.661  19.381  1.00  0.00    -0.015 C 
BRANCH  22  23
HETATM   23  C11 UNL     1      19.426 -15.387  20.493  1.00  0.00    -0.013 C 
HETATM   24  C12 UNL     1      19.841 -16.024  21.436  1.00  0.00    -0.064 C 
BRANCH  24  25
HETATM   25  C13 UNL     1      20.322 -16.817  22.573  1.00  0.00     0.336 C 
BRANCH  25  26
HETATM   26  N4  UNL     1      19.708 -16.396  23.839  1.00  0.00    -0.041 N 
HETATM   27  C14 UNL     1      18.421 -17.140  23.813  1.00  0.00     0.279 C 
HETATM   28  C15 UNL     1      19.482 -15.031  23.824  1.00  0.00     0.199 C 
HETATM   29  C16 UNL     1      20.201 -14.003  24.553  1.00  0.00    -0.002 C 
HETATM   30  C17 UNL     1      21.563 -14.189  25.087  1.00  0.00     0.028 C 
HETATM   31  C18 UNL     1      21.703 -14.693  26.484  1.00  0.00     0.004 C 
HETATM   32  C19 UNL     1      20.462 -14.832  27.286  1.00  0.00     0.000 C 
HETATM   33  C20 UNL     1      19.493 -15.888  26.892  1.00  0.00     0.002 C 
HETATM   34  C21 UNL     1      20.032 -17.088  26.229  1.00  0.00     0.028 C 
HETATM   35  C22 UNL     1      20.461 -17.060  24.837  1.00  0.00     0.243 C 
ENDBRANCH  25  26
ENDBRANCH  24  25
ENDBRANCH  22  23
ENDBRANCH  20  21
ENDBRANCH   1  20
BRANCH   1  36
HETATM   36  C23 UNL     1      16.355 -11.682  16.515  1.00  0.00     0.237 C 
HETATM   37  O4  UNL     1      17.171 -11.113  15.739  1.00  0.00    -0.285 OA
BRANCH  36  38
HETATM   38  C24 UNL     1      14.943 -11.607  16.180  1.00  0.00     0.302 C 
HETATM   39  N5  UNL     1      14.536 -11.854  14.850  1.00  0.00    -0.054 NA
HETATM   40  O5  UNL     1      14.055 -11.330  17.026  1.00  0.00    -0.268 OA
ENDBRANCH  36  38
ENDBRANCH   1  36
TORSDOF 13
ENDMDL
MODEL 2
REMARK VINA RESULT: -8.694968023      1.906      3.329
REMARK  13 active torsions:
REMARK  status: ('A' for Active; 'I' for Inactive)
REMARK       I    between atoms: C2_2  and  N1_4 
REMARK    1  A    between atoms: N1_4  and  C3_6 
REMARK    2  A    between atoms: C3_6  and  C4_7 
REMARK       I    between atoms: C4_7  and  N2_9 
REMARK    3  A    between atoms: N2_9  and  C5_11 
REMARK    4  A    between atoms: C5_11  and  C6_12 
REMARK    5  A    between atoms: C5_11  and  C25_38 
REMARK       I    between atoms: C6_12  and  N3_14 
REMARK    6  A    between atoms: N3_14  and  C7_16 
REMARK    7  A    between atoms: C7_16  and  C8_17 
REMARK    8  A    between atoms: C7_16  and  C23_33 
REMARK    9  A    between atoms: C8_17  and  C9_18 
REMARK   10  A    between atoms: C10_19  and  C11_20 
REMARK   11  A    between atoms: C12_21  and  C13_22 
REMARK   12  A    between atoms: C13_22  and  N4_23 
REMARK   13  A    between atoms: C23_33  and  C24_35 
ROOT
HETATM    1  C7  UNL     1      17.021 -12.346  17.640  1.00  0.00     0.175 C 
ENDROOT
BRANCH   1   2
HETATM    2  N3  UNL     1      16.245 -13.249  18.463  1.00  0.00    -0.346 N 
HETATM    3  C6  UNL     1      15.653 -12.907  19.681  1.00  0.00     0.241 C 
HETATM    4  O3  UNL     1      15.789 -11.740  20.115  1.00  0.00    -0.271 OA
ATOM      5  H3  UNL     1      16.121 -14.205  18.129  1.00  0.00     0.163 HD
BRANCH   3   6
HETATM    6  C5  UNL     1      14.872 -13.875  20.473  1.00  0.00     0.180 C 
BRANCH   6   7
HETATM    7  N2  UNL     1      14.000 -13.168  21.371  1.00  0.00    -0.346 N 
HETATM    8  C4  UNL     1      12.598 -13.213  21.321  1.00  0.00     0.236 C 
HETATM    9  O2  UNL     1      12.002 -13.910  20.441  1.00  0.00    -0.272 OA
ATOM     10  H2  UNL     1      14.430 -12.593  22.095  1.00  0.00     0.163 HD
BRANCH   8  11
HETATM   11  C3  UNL     1      11.809 -12.436  22.307  1.00  0.00     0.225 C 
BRANCH  11  12
HETATM   12  N1  UNL     1      12.425 -11.223  22.739  1.00  0.00    -0.353 N 
HETATM   13  C2  UNL     1      11.933 -10.400  23.761  1.00  0.00     0.213 C 
HETATM   14  C1  UNL     1      12.622  -9.143  24.164  1.00  0.00     0.117 C 
HETATM   15  O1  UNL     1      10.876 -10.702  24.382  1.00  0.00    -0.274 OA
ATOM     16  H1  UNL     1      13.284 -10.935  22.272  1.00  0.00     0.162 HD
ENDBRANCH  11  12
ENDBRANCH   8  11
ENDBRANCH   6   7
BRANCH   6  17
HETATM   17  C25 UNL     1      15.722 -14.860  21.236  1.00  0.00     0.009 C 
HETATM   18  C26 UNL     1      14.805 -16.033  21.596  1.00  0.00     0.012 C 
HETATM   19  C27 UNL     1      16.223 -14.305  22.553  1.00  0.00     0.012 C 
ENDBRANCH   6  17
ENDBRANCH   3   6
ENDBRANCH   1   2
BRANCH   1  20
HETATM   20  C8  UNL     1      18.322 -12.970  17.247  1.00  0.00     0.128 C 
BRANCH  20  21
HETATM   21  C9  UNL     1      18.808 -13.814  18.348  1.00  0.00    -0.090 C 
HETATM   22  C10 UNL     1      19.196 -14.503  19.278  1.00  0.00    -0.015 C 
BRANCH  22  23
HETATM   23  C11 UNL     1      19.632 -15.288  20.378  1.00  0.00    -0.013 C 
HETATM   24  C12 UNL     1      19.982 -15.968  21.317  1.00  0.00    -0.064 C 
BRANCH  24  25
HETATM   25  C13 UNL     1      20.379 -16.804  22.455  1.00  0.00     0.336 C 
BRANCH  25  26
HETATM   26  N4  UNL     1      19.732 -16.381  23.703  1.00  0.00    -0.041 N 
HETATM   27  C14 UNL     1      18.420 -17.076  23.614  1.00  0.00     0.279 C 
HETATM   28  C15 UNL     1      19.557 -15.008  23.704  1.00  0.00     0.199 C 
HETATM   29  C16 UNL     1      20.284 -14.021  24.478  1.00  0.00    -0.002 C 
HETATM   30  C17 UNL     1      21.615 -14.266  25.062  1.00  0.00     0.028 C 
HETATM   31  C18 UNL     1      21.681 -14.798  26.455  1.00  0.00     0.004 C 
HETATM   32  C19 UNL     1      20.405 -14.904  27.205  1.00  0.00     0.000 C 
HETATM   33  C20 UNL     1      19.414 -15.915  26.754  1.00  0.00     0.002 C 
HETATM   34  C21 UNL     1      19.934 -17.124  26.091  1.00  0.00     0.028 C 
HETATM   35  C22 UNL     1      20.419 -17.090  24.718  1.00  0.00     0.243 C 
ENDBRANCH  25  26
ENDBRANCH  24  25
ENDBRANCH  22  23
ENDBRANCH  20  21
ENDBRANCH   1  20
BRANCH   1  36
HETATM   36  C23 UNL     1      16.303 -11.893  16.449  1.00  0.00     0.237 C 
HETATM   37  O4  UNL     1      17.006 -11.464  15.492  1.00  0.00    -0.285 OA
BRANCH  36  38
HETATM   38  C24 UNL     1      14.861 -11.898  16.274  1.00  0.00     0.302 C 
HETATM   39  N5  UNL     1      14.305 -12.538  15.145  1.00  0.00    -0.054 NA
HETATM   40  O5  UNL     1      14.073 -11.353  17.090  1.00  0.00    -0.268 OA
ENDBRANCH  36  38
ENDBRANCH   1  36
TORSDOF 13
ENDMDL
MODEL 3
REMARK VINA RESULT: -8.596040192      1.940      3.224
REMARK  13 active torsions:
REMARK  status: ('A' for Active; 'I' for Inactive)
REMARK       I    between atoms: C2_2  and  N1_4 
REMARK    1  A    between atoms: N1_4  and  C3_6 
REMARK    2  A    between atoms: C3_6  and  C4_7 
REMARK       I    between atoms: C4_7  and  N2_9 
REMARK    3  A    between atoms: N2_9  and  C5_11 
REMARK    4  A    between atoms: C5_11  and  C6_12 
REMARK    5  A    between atoms: C5_11  and  C25_38 
REMARK       I    between atoms: C6_12  and  N3_14 
REMARK    6  A    between atoms: N3_14  and  C7_16 
REMARK    7  A    between atoms: C7_16  and  C8_17 
REMARK    8  A    between atoms: C7_16  and  C23_33 
REMARK    9  A    between atoms: C8_17  and  C9_18 
REMARK   10  A    between atoms: C10_19  and  C11_20 
REMARK   11  A    between atoms: C12_21  and  C13_22 
REMARK   12  A    between atoms: C13_22  and  N4_23 
REMARK   13  A    between atoms: C23_33  and  C24_35 
ROOT
HETATM    1  C7  UNL     1      17.960 -12.800  17.379  1.00  0.00     0.175 C 
ENDROOT
BRANCH   1   2
HETATM    2  N3  UNL     1      17.056 -13.499  18.267  1.00  0.00    -0.346 N 
HETATM    3  C6  UNL     1      16.372 -12.909  19.333  1.00  0.00     0.241 C 
HETATM    4  O3  UNL     1      16.537 -11.688  19.558  1.00  0.00    -0.271 OA
ATOM      5  H3  UNL     1      16.907 -14.495  18.102  1.00  0.00     0.163 HD
BRANCH   3   6
HETATM    6  C5  UNL     1      15.462 -13.678  20.202  1.00  0.00     0.180 C 
BRANCH   6   7
HETATM    7  N2  UNL     1      14.648 -12.770  20.965  1.00  0.00    -0.346 N 
HETATM    8  C4  UNL     1      13.279 -12.550  20.744  1.00  0.00     0.236 C 
HETATM    9  O2  UNL     1      12.663 -13.168  19.820  1.00  0.00    -0.272 OA
ATOM     10  H2  UNL     1      15.096 -12.250  21.719  1.00  0.00     0.163 HD
BRANCH   8  11
HETATM   11  C3  UNL     1      12.549 -11.586  21.602  1.00  0.00     0.225 C 
BRANCH  11  12
HETATM   12  N1  UNL     1      11.973 -12.153  22.779  1.00  0.00    -0.353 N 
HETATM   13  C2  UNL     1      11.625 -11.426  23.925  1.00  0.00     0.213 C 
HETATM   14  C1  UNL     1      11.030 -12.079  25.123  1.00  0.00     0.117 C 
HETATM   15  O1  UNL     1      11.808 -10.178  23.980  1.00  0.00    -0.274 OA
ATOM     16  H1  UNL     1      11.802 -13.158  22.785  1.00  0.00     0.162 HD
ENDBRANCH  11  12
ENDBRANCH   8  11
ENDBRANCH   6   7
BRANCH   6  17
HETATM   17  C25 UNL     1      16.170 -14.642  21.120  1.00  0.00     0.009 C 
HETATM   18  C26 UNL     1      15.191 -15.791  21.378  1.00  0.00     0.012 C 
HETATM   19  C27 UNL     1      16.475 -14.043  22.478  1.00  0.00     0.012 C 
ENDBRANCH   6  17
ENDBRANCH   3   6
ENDBRANCH   1   2
BRANCH   1  20
HETATM   20  C8  UNL     1      19.283 -13.495  17.313  1.00  0.00     0.128 C 
BRANCH  20  21
HETATM   21  C9  UNL     1      19.507 -14.234  18.564  1.00  0.00    -0.090 C 
HETATM   22  C10 UNL     1      19.677 -14.865  19.594  1.00  0.00    -0.015 C 
BRANCH  22  23
HETATM   23  C11 UNL     1      19.855 -15.619  20.785  1.00  0.00    -0.013 C 
HETATM   24  C12 UNL     1      19.997 -16.281  21.790  1.00  0.00    -0.064 C 
BRANCH  24  25
HETATM   25  C13 UNL     1      20.154 -17.104  22.993  1.00  0.00     0.336 C 
BRANCH  25  26
HETATM   26  N4  UNL     1      19.691 -16.411  24.201  1.00  0.00    -0.041 N 
HETATM   27  C14 UNL     1      18.344 -17.010  24.397  1.00  0.00     0.279 C 
HETATM   28  C15 UNL     1      19.589 -15.052  23.957  1.00  0.00     0.199 C 
HETATM   29  C16 UNL     1      20.457 -13.995  24.438  1.00  0.00    -0.002 C 
HETATM   30  C17 UNL     1      21.837 -14.226  24.904  1.00  0.00     0.028 C 
HETATM   31  C18 UNL     1      22.049 -14.494  26.356  1.00  0.00     0.004 C 
HETATM   32  C19 UNL     1      20.874 -14.363  27.252  1.00  0.00     0.000 C 
HETATM   33  C20 UNL     1      19.784 -15.364  27.121  1.00  0.00     0.002 C 
HETATM   34  C21 UNL     1      20.153 -16.710  26.649  1.00  0.00     0.028 C 
HETATM   35  C22 UNL     1      20.463 -16.968  25.249  1.00  0.00     0.243 C 
ENDBRANCH  25  26
ENDBRANCH  24  25
ENDBRANCH  22  23
ENDBRANCH  20  21
ENDBRANCH   1  20
BRANCH   1  36
HETATM   36  C23 UNL     1      17.420 -12.624  16.031  1.00  0.00     0.237 C 
HETATM   37  O4  UNL     1      17.815 -13.439  15.151  1.00  0.00    -0.285 OA
BRANCH  36  38
HETATM   38  C24 UNL     1      16.474 -11.600  15.623  1.00  0.00     0.302 C 
HETATM   39  N5  UNL     1      16.546 -11.076  14.314  1.00  0.00    -0.054 NA
HETATM   40  O5  UNL     1      15.582 -11.153  16.389  1.00  0.00    -0.268 OA
ENDBRANCH  36  38
ENDBRANCH   1  36
TORSDOF 13
ENDMDL
MODEL 4
REMARK VINA RESULT: -8.583715300      2.450      4.166
REMARK  13 active torsions:
REMARK  status: ('A' for Active; 'I' for Inactive)
REMARK       I    between atoms: C2_2  and  N1_4 
REMARK    1  A    between atoms: N1_4  and  C3_6 
REMARK    2  A    between atoms: C3_6  and  C4_7 
REMARK       I    between atoms: C4_7  and  N2_9 
REMARK    3  A    between atoms: N2_9  and  C5_11 
REMARK    4  A    between atoms: C5_11  and  C6_12 
REMARK    5  A    between atoms: C5_11  and  C25_38 
REMARK       I    between atoms: C6_12  and  N3_14 
REMARK    6  A    between atoms: N3_14  and  C7_16 
REMARK    7  A    between atoms: C7_16  and  C8_17 
REMARK    8  A    between atoms: C7_16  and  C23_33 
REMARK    9  A    between atoms: C8_17  and  C9_18 
REMARK   10  A    between atoms: C10_19  and  C11_20 
REMARK   11  A    between atoms: C12_21  and  C13_22 
REMARK   12  A    between atoms: C13_22  and  N4_23 
REMARK   13  A    between atoms: C23_33  and  C24_35 
ROOT
HETATM    1  C7  UNL     1      18.086 -13.115  16.758  1.00  0.00     0.175 C 
ENDROOT
BRANCH   1   2
HETATM    2  N3  UNL     1      17.376 -13.447  17.974  1.00  0.00    -0.346 N 
HETATM    3  C6  UNL     1      16.335 -12.691  18.520  1.00  0.00     0.241 C 
HETATM    4  O3  UNL     1      15.971 -11.646  17.934  1.00  0.00    -0.271 OA
ATOM      5  H3  UNL     1      17.655 -14.295  18.469  1.00  0.00     0.163 HD
BRANCH   3   6
HETATM    6  C5  UNL     1      15.649 -13.086  19.765  1.00  0.00     0.180 C 
BRANCH   6   7
HETATM    7  N2  UNL     1      14.784 -12.020  20.193  1.00  0.00    -0.346 N 
HETATM    8  C4  UNL     1      13.388 -12.124  20.306  1.00  0.00     0.236 C 
HETATM    9  O2  UNL     1      12.793 -13.210  20.023  1.00  0.00    -0.272 OA
ATOM     10  H2  UNL     1      15.214 -11.127  20.432  1.00  0.00     0.163 HD
BRANCH   8  11
HETATM   11  C3  UNL     1      12.606 -10.949  20.760  1.00  0.00     0.225 C 
BRANCH  11  12
HETATM   12  N1  UNL     1      11.751 -11.199  21.876  1.00  0.00    -0.353 N 
HETATM   13  C2  UNL     1      11.943 -10.674  23.161  1.00  0.00     0.213 C 
HETATM   14  C1  UNL     1      11.016 -10.976  24.285  1.00  0.00     0.117 C 
HETATM   15  O1  UNL     1      12.924  -9.918  23.410  1.00  0.00    -0.274 OA
ATOM     16  H1  UNL     1      10.941 -11.802  21.727  1.00  0.00     0.162 HD
ENDBRANCH  11  12
ENDBRANCH   8  11
ENDBRANCH   6   7
BRANCH   6  17
HETATM   17  C25 UNL     1      16.589 -13.475  20.878  1.00  0.00     0.009 C 
HETATM   18  C26 UNL     1      15.709 -13.901  22.057  1.00  0.00     0.012 C 
HETATM   19  C27 UNL     1      17.420 -12.312  21.378  1.00  0.00     0.012 C 
ENDBRANCH   6  17
ENDBRANCH   3   6
ENDBRANCH   1   2
BRANCH   1  20
HETATM   20  C8  UNL     1      19.536 -13.465  16.877  1.00  0.00     0.128 C 
BRANCH  20  21
HETATM   21  C9  UNL     1      19.882 -13.628  18.297  1.00  0.00    -0.090 C 
HETATM   22  C10 UNL     1      20.165 -13.790  19.472  1.00  0.00    -0.015 C 
BRANCH  22  23
HETATM   23  C11 UNL     1      20.488 -14.006  20.839  1.00  0.00    -0.013 C 
HETATM   24  C12 UNL     1      20.768 -14.213  21.999  1.00  0.00    -0.064 C 
BRANCH  24  25
HETATM   25  C13 UNL     1      21.112 -14.492  23.397  1.00  0.00     0.336 C 
BRANCH  25  26
HETATM   26  N4  UNL     1      20.193 -15.459  24.009  1.00  0.00    -0.041 N 
HETATM   27  C14 UNL     1      20.472 -15.266  25.457  1.00  0.00     0.279 C 
HETATM   28  C15 UNL     1      20.526 -16.743  23.616  1.00  0.00     0.199 C 
HETATM   29  C16 UNL     1      19.814 -17.600  22.687  1.00  0.00    -0.002 C 
HETATM   30  C17 UNL     1      18.867 -17.094  21.678  1.00  0.00     0.028 C 
HETATM   31  C18 UNL     1      17.426 -17.006  22.053  1.00  0.00     0.004 C 
HETATM   32  C19 UNL     1      17.028 -17.572  23.366  1.00  0.00     0.000 C 
HETATM   33  C20 UNL     1      17.497 -16.880  24.594  1.00  0.00     0.002 C 
HETATM   34  C21 UNL     1      17.734 -15.428  24.505  1.00  0.00     0.028 C 
HETATM   35  C22 UNL     1      18.909 -14.888  23.835  1.00  0.00     0.243 C 
ENDBRANCH  25  26
ENDBRANCH  24  25
ENDBRANCH  22  23
ENDBRANCH  20  21
ENDBRANCH   1  20
BRANCH   1  36
HETATM   36  C23 UNL     1      17.516 -13.746  15.568  1.00  0.00     0.237 C 
HETATM   37  O4  UNL     1      18.282 -13.879  14.574  1.00  0.00    -0.285 OA
BRANCH  36  38
HETATM   38  C24 UNL     1      16.153 -14.231  15.436  1.00  0.00     0.302 C 
HETATM   39  N5  UNL     1      15.245 -13.525  14.617  1.00  0.00    -0.054 NA
HETATM   40  O5  UNL     1      15.737 -15.264  16.023  1.00  0.00    -0.268 OA
ENDBRANCH  36  38
ENDBRANCH   1  36
TORSDOF 13
ENDMDL
MODEL 5
REMARK VINA RESULT: -8.493598355      2.163      3.631
REMARK  13 active torsions:
REMARK  status: ('A' for Active; 'I' for Inactive)
REMARK       I    between atoms: C2_2  and  N1_4 
REMARK    1  A    between atoms: N1_4  and  C3_6 
REMARK    2  A    between atoms: C3_6  and  C4_7 
REMARK       I    between atoms: C4_7  and  N2_9 
REMARK    3  A    between atoms: N2_9  and  C5_11 
REMARK    4  A    between atoms: C5_11  and  C6_12 
REMARK    5  A    between atoms: C5_11  and  C25_38 
REMARK       I    between atoms: C6_12  and  N3_14 
REMARK    6  A    between atoms: N3_14  and  C7_16 
REMARK    7  A    between atoms: C7_16  and  C8_17 
REMARK    8  A    between atoms: C7_16  and  C23_33 
REMARK    9  A    between atoms: C8_17  and  C9_18 
REMARK   10  A    between atoms: C10_19  and  C11_20 
REMARK   11  A    between atoms: C12_21  and  C13_22 
REMARK   12  A    between atoms: C13_22  and  N4_23 
REMARK   13  A    between atoms: C23_33  and  C24_35 
ROOT
HETATM    1  C7  UNL     1      18.734 -13.251  18.690  1.00  0.00     0.175 C 
ENDROOT
BRANCH   1   2
HETATM    2  N3  UNL     1      17.509 -13.833  19.193  1.00  0.00    -0.346 N 
HETATM    3  C6  UNL     1      16.679 -13.241  20.149  1.00  0.00     0.241 C 
HETATM    4  O3  UNL     1      16.997 -12.124  20.619  1.00  0.00    -0.271 OA
ATOM      5  H3  UNL     1      17.230 -14.742  18.823  1.00  0.00     0.163 HD
BRANCH   3   6
HETATM    6  C5  UNL     1      15.440 -13.887  20.619  1.00  0.00     0.180 C 
BRANCH   6   7
HETATM    7  N2  UNL     1      14.521 -12.881  21.080  1.00  0.00    -0.346 N 
HETATM    8  C4  UNL     1      13.618 -12.190  20.255  1.00  0.00     0.236 C 
HETATM    9  O2  UNL     1      13.565 -12.427  19.008  1.00  0.00    -0.272 OA
ATOM     10  H2  UNL     1      14.524 -12.654  22.074  1.00  0.00     0.163 HD
BRANCH   8  11
HETATM   11  C3  UNL     1      12.720 -11.173  20.852  1.00  0.00     0.225 C 
BRANCH  11  12
HETATM   12  N1  UNL     1      11.936 -11.642  21.949  1.00  0.00    -0.353 N 
HETATM   13  C2  UNL     1      11.909 -11.051  23.220  1.00  0.00     0.213 C 
HETATM   14  C1  UNL     1      11.071 -11.591  24.325  1.00  0.00     0.117 C 
HETATM   15  O1  UNL     1      12.603 -10.027  23.471  1.00  0.00    -0.274 OA
ATOM     16  H1  UNL     1      11.353 -12.465  21.798  1.00  0.00     0.162 HD
ENDBRANCH  11  12
ENDBRANCH   8  11
ENDBRANCH   6   7
BRANCH   6  17
HETATM   17  C25 UNL     1      15.666 -14.920  21.695  1.00  0.00     0.009 C 
HETATM   18  C26 UNL     1      16.798 -14.385  22.577  1.00  0.00     0.012 C 
HETATM   19  C27 UNL     1      16.156 -16.243  21.145  1.00  0.00     0.012 C 
ENDBRANCH   6  17
ENDBRANCH   3   6
ENDBRANCH   1   2
BRANCH   1  20
HETATM   20  C8  UNL     1      19.821 -14.276  18.624  1.00  0.00     0.128 C 
BRANCH  20  21
HETATM   21  C9  UNL     1      19.787 -15.101  19.840  1.00  0.00    -0.090 C 
HETATM   22  C10 UNL     1      19.782 -15.795  20.844  1.00  0.00    -0.015 C 
BRANCH  22  23
HETATM   23  C11 UNL     1      19.801 -16.616  22.003  1.00  0.00    -0.013 C 
HETATM   24  C12 UNL     1      19.835 -17.328  22.982  1.00  0.00    -0.064 C 
BRANCH  24  25
HETATM   25  C13 UNL     1      19.897 -18.208  24.154  1.00  0.00     0.336 C 
BRANCH  25  26
HETATM   26  N4  UNL     1      20.141 -17.460  25.393  1.00  0.00    -0.041 N 
HETATM   27  C14 UNL     1      20.324 -18.559  26.379  1.00  0.00     0.279 C 
HETATM   28  C15 UNL     1      19.030 -16.699  25.714  1.00  0.00     0.199 C 
HETATM   29  C16 UNL     1      18.880 -15.261  25.612  1.00  0.00    -0.002 C 
HETATM   30  C17 UNL     1      19.721 -14.415  24.746  1.00  0.00     0.028 C 
HETATM   31  C18 UNL     1      20.960 -13.827  25.333  1.00  0.00     0.004 C 
HETATM   32  C19 UNL     1      21.180 -14.015  26.788  1.00  0.00     0.000 C 
HETATM   33  C20 UNL     1      21.476 -15.386  27.276  1.00  0.00     0.002 C 
HETATM   34  C21 UNL     1      22.155 -16.305  26.346  1.00  0.00     0.028 C 
HETATM   35  C22 UNL     1      21.444 -16.928  25.237  1.00  0.00     0.243 C 
ENDBRANCH  25  26
ENDBRANCH  24  25
ENDBRANCH  22  23
ENDBRANCH  20  21
ENDBRANCH   1  20
BRANCH   1  36
HETATM   36  C23 UNL     1      18.573 -12.609  17.386  1.00  0.00     0.237 C 
HETATM   37  O4  UNL     1      19.629 -12.372  16.735  1.00  0.00    -0.285 OA
BRANCH  36  38
HETATM   38  C24 UNL     1      17.310 -12.225  16.780  1.00  0.00     0.302 C 
HETATM   39  N5  UNL     1      17.006 -12.672  15.475  1.00  0.00    -0.054 NA
HETATM   40  O5  UNL     1      16.462 -11.505  17.368  1.00  0.00    -0.268 OA
ENDBRANCH  36  38
ENDBRANCH   1  36
TORSDOF 13
ENDMDL
