MODEL 1
REMARK VINA RESULT: -7.813319676      0.000      0.000
REMARK  12 active torsions:
REMARK  status: ('A' for Active; 'I' for Inactive)
REMARK    1  A    between atoms: C2_2  and  N1_5 
REMARK       I    between atoms: N1_5  and  C5_7 
REMARK    2  A    between atoms: C5_7  and  C6_9 
REMARK    3  A    between atoms: N2_14  and  C11_15 
REMARK    4  A    between atoms: C11_15  and  C12_19 
REMARK    5  A    between atoms: C12_19  and  C13_23 
REMARK    6  A    between atoms: C13_23  and  S1_24 
REMARK    7  A    between atoms: S1_24  and  C14_26 
REMARK    8  A    between atoms: C15_27  and  C16_28 
REMARK    9  A    between atoms: C16_28  and  C17_29 
REMARK   10  A    between atoms: C17_29  and  N5_30 
REMARK   11  A    between atoms: N6_33  and  C20_34 
REMARK   12  A    between atoms: C20_34  and  C21_35 
ROOT
HETATM    1  C12 UNL     1      19.842 -14.038  21.994  1.00  0.00     0.058 C 
HETATM    2  N4  UNL     1      18.582 -13.763  22.159  1.00  0.00    -0.399 N 
ATOM      3  H41 UNL     1      18.140 -13.157  21.467  1.00  0.00     0.156 HD
ATOM      4  H42 UNL     1      18.115 -14.170  22.969  1.00  0.00     0.156 HD
ENDROOT
BRANCH   1   5
HETATM    5  C11 UNL     1      20.470 -14.898  22.976  1.00  0.00     0.121 C 
HETATM    6  N3  UNL     1      20.969 -16.007  22.566  1.00  0.00    -0.384 N 
ATOM      7  H32 UNL     1      21.411 -16.613  23.258  1.00  0.00     0.157 HD
ATOM      8  H31 UNL     1      20.915 -16.235  21.573  1.00  0.00     0.157 HD
BRANCH   5   9
HETATM    9  N2  UNL     1      20.544 -14.584  24.343  1.00  0.00    -0.352 N 
HETATM   10  C6  UNL     1      19.515 -14.724  25.367  1.00  0.00     0.182 C 
HETATM   11  C7  UNL     1      20.427 -14.977  26.525  1.00  0.00     0.024 A 
HETATM   12  C8  UNL     1      20.998 -14.199  27.537  1.00  0.00     0.014 A 
HETATM   13  C9  UNL     1      21.193 -13.611  26.280  1.00  0.00     0.010 A 
HETATM   14  C10 UNL     1      21.750 -14.051  24.987  1.00  0.00     0.130 C 
BRANCH  10  15
HETATM   15  C5  UNL     1      18.578 -15.806  25.092  1.00  0.00     0.241 C 
HETATM   16  N1  UNL     1      18.909 -17.158  25.437  1.00  0.00    -0.351 N 
ATOM     17  H1  UNL     1      19.809 -17.348  25.877  1.00  0.00     0.163 HD
HETATM   18  O1  UNL     1      17.481 -15.596  24.560  1.00  0.00    -0.271 OA
BRANCH  16  19
HETATM   19  C2  UNL     1      18.015 -18.256  25.186  1.00  0.00     0.022 C 
HETATM   20  C1  UNL     1      18.485 -19.472  25.975  1.00  0.00     0.037 C 
HETATM   21  C3  UNL     1      18.078 -18.583  23.710  1.00  0.00     0.037 C 
HETATM   22  C4  UNL     1      16.582 -17.920  25.532  1.00  0.00     0.037 C 
ENDBRANCH  16  19
ENDBRANCH  10  15
ENDBRANCH   5   9
ENDBRANCH   1   5
BRANCH   1  23
HETATM   23  C13 UNL     1      20.523 -13.445  20.814  1.00  0.00     0.173 C 
BRANCH  23  24
HETATM   24  S1  UNL     1      19.944 -14.106  19.488  1.00  0.00     0.044 S 
HETATM   25  O2  UNL     1      19.454 -15.420  19.773  1.00  0.00    -0.253 OA
BRANCH  24  26
HETATM   26  C14 UNL     1      20.118 -13.752  17.986  1.00  0.00     0.078 C 
HETATM   27  C15 UNL     1      19.229 -13.005  17.155  1.00  0.00     0.007 C 
BRANCH  27  28
HETATM   28  C16 UNL     1      17.875 -13.250  16.697  1.00  0.00     0.001 C 
BRANCH  28  29
HETATM   29  C17 UNL     1      16.729 -12.411  17.018  1.00  0.00     0.267 C 
BRANCH  29  30
HETATM   30  N5  UNL     1      15.924 -12.967  18.079  1.00  0.00    -0.037 N 
HETATM   31  C18 UNL     1      16.274 -14.343  18.373  1.00  0.00     0.268 C 
HETATM   32  C19 UNL     1      15.790 -14.486  19.819  1.00  0.00     0.268 C 
HETATM   33  N6  UNL     1      15.237 -13.208  20.141  1.00  0.00    -0.030 N 
HETATM   34  C22 UNL     1      14.021 -13.027  19.422  1.00  0.00     0.268 C 
HETATM   35  C24 UNL     1      16.158 -12.338  19.377  1.00  0.00     0.474 C 
HETATM   36  C23 UNL     1      14.520 -12.858  17.969  1.00  0.00     0.268 C 
BRANCH  33  37
HETATM   37  C20 UNL     1      15.230 -12.872  21.522  1.00  0.00     0.352 C 
BRANCH  37  38
HETATM   38  C21 UNL     1      14.078 -12.070  21.931  1.00  0.00     0.199 C 
HETATM   39  O3  UNL     1      13.225 -12.577  22.709  1.00  0.00    -0.647 OA
HETATM   40  O4  UNL     1      13.891 -10.790  21.499  1.00  0.00    -0.647 OA
ENDBRANCH  37  38
ENDBRANCH  33  37
ENDBRANCH  29  30
ENDBRANCH  28  29
ENDBRANCH  27  28
ENDBRANCH  24  26
ENDBRANCH  23  24
ENDBRANCH   1  23
TORSDOF 12
ENDMDL
MODEL 2
REMARK VINA RESULT: -7.793471277      2.406      4.569
REMARK  12 active torsions:
REMARK  status: ('A' for Active; 'I' for Inactive)
REMARK    1  A    between atoms: C2_2  and  N1_5 
REMARK       I    between atoms: N1_5  and  C5_7 
REMARK    2  A    between atoms: C5_7  and  C6_9 
REMARK    3  A    between atoms: N2_14  and  C11_15 
REMARK    4  A    between atoms: C11_15  and  C12_19 
REMARK    5  A    between atoms: C12_19  and  C13_23 
REMARK    6  A    between atoms: C13_23  and  S1_24 
REMARK    7  A    between atoms: S1_24  and  C14_26 
REMARK    8  A    between atoms: C15_27  and  C16_28 
REMARK    9  A    between atoms: C16_28  and  C17_29 
REMARK   10  A    between atoms: C17_29  and  N5_30 
REMARK   11  A    between atoms: N6_33  and  C20_34 
REMARK   12  A    between atoms: C20_34  and  C21_35 
ROOT
HETATM    1  C12 UNL     1      17.673 -17.393  24.086  1.00  0.00     0.058 C 
HETATM    2  N4  UNL     1      16.983 -16.401  24.568  1.00  0.00    -0.399 N 
ATOM      3  H41 UNL     1      15.969 -16.507  24.598  1.00  0.00     0.156 HD
ATOM      4  H42 UNL     1      17.499 -15.581  24.885  1.00  0.00     0.156 HD
ENDROOT
BRANCH   1   5
HETATM    5  C11 UNL     1      19.113 -17.242  24.043  1.00  0.00     0.121 C 
HETATM    6  N3  UNL     1      19.779 -18.066  23.317  1.00  0.00    -0.384 N 
ATOM      7  H32 UNL     1      20.793 -17.960  23.287  1.00  0.00     0.157 HD
ATOM      8  H31 UNL     1      19.273 -18.782  22.795  1.00  0.00     0.157 HD
BRANCH   5   9
HETATM    9  N2  UNL     1      19.809 -16.256  24.763  1.00  0.00    -0.352 N 
HETATM   10  C6  UNL     1      20.418 -15.028  24.267  1.00  0.00     0.182 C 
HETATM   11  C7  UNL     1      20.238 -14.209  25.505  1.00  0.00     0.024 A 
HETATM   12  C8  UNL     1      21.030 -13.879  26.611  1.00  0.00     0.014 A 
HETATM   13  C9  UNL     1      21.046 -15.260  26.374  1.00  0.00     0.010 A 
HETATM   14  C10 UNL     1      20.026 -16.313  26.213  1.00  0.00     0.130 C 
BRANCH  10  15
HETATM   15  C5  UNL     1      19.748 -14.491  23.090  1.00  0.00     0.241 C 
HETATM   16  N1  UNL     1      20.496 -14.178  21.907  1.00  0.00    -0.351 N 
ATOM     17  H1  UNL     1      21.503 -14.338  21.905  1.00  0.00     0.163 HD
HETATM   18  O1  UNL     1      18.527 -14.291  23.072  1.00  0.00    -0.271 OA
BRANCH  16  19
HETATM   19  C2  UNL     1      19.877 -13.648  20.723  1.00  0.00     0.022 C 
HETATM   20  C1  UNL     1      19.493 -14.800  19.802  1.00  0.00     0.037 C 
HETATM   21  C3  UNL     1      20.890 -12.778  20.013  1.00  0.00     0.037 C 
HETATM   22  C4  UNL     1      18.668 -12.797  21.040  1.00  0.00     0.037 C 
ENDBRANCH  16  19
ENDBRANCH  10  15
ENDBRANCH   5   9
ENDBRANCH   1   5
BRANCH   1  23
HETATM   23  C13 UNL     1      16.922 -18.588  23.625  1.00  0.00     0.173 C 
BRANCH  23  24
HETATM   24  S1  UNL     1      15.514 -18.130  23.043  1.00  0.00     0.044 S 
HETATM   25  O2  UNL     1      14.468 -18.512  23.941  1.00  0.00    -0.253 OA
BRANCH  24  26
HETATM   26  C14 UNL     1      15.069 -17.690  21.621  1.00  0.00     0.078 C 
HETATM   27  C15 UNL     1      15.692 -16.728  20.768  1.00  0.00     0.007 C 
BRANCH  27  28
HETATM   28  C16 UNL     1      15.900 -15.298  20.890  1.00  0.00     0.001 C 
BRANCH  28  29
HETATM   29  C17 UNL     1      15.249 -14.449  21.877  1.00  0.00     0.267 C 
BRANCH  29  30
HETATM   30  N5  UNL     1      14.113 -13.747  21.330  1.00  0.00    -0.037 N 
HETATM   31  C18 UNL     1      12.882 -14.502  21.463  1.00  0.00     0.268 C 
HETATM   32  C19 UNL     1      11.828 -13.393  21.416  1.00  0.00     0.268 C 
HETATM   33  N6  UNL     1      12.581 -12.188  21.259  1.00  0.00    -0.030 N 
HETATM   34  C22 UNL     1      13.134 -12.147  19.947  1.00  0.00     0.268 C 
HETATM   35  C24 UNL     1      13.772 -12.531  22.067  1.00  0.00     0.474 C 
HETATM   36  C23 UNL     1      14.214 -13.251  20.012  1.00  0.00     0.268 C 
BRANCH  33  37
HETATM   37  C20 UNL     1      11.953 -11.006  21.735  1.00  0.00     0.352 C 
BRANCH  37  38
HETATM   38  C21 UNL     1      12.330 -10.642  23.100  1.00  0.00     0.199 C 
HETATM   39  O3  UNL     1      11.755 -11.213  24.066  1.00  0.00    -0.647 OA
HETATM   40  O4  UNL     1      13.283  -9.704  23.367  1.00  0.00    -0.647 OA
ENDBRANCH  37  38
ENDBRANCH  33  37
ENDBRANCH  29  30
ENDBRANCH  28  29
ENDBRANCH  27  28
ENDBRANCH  24  26
ENDBRANCH  23  24
ENDBRANCH   1  23
TORSDOF 12
ENDMDL
MODEL 3
REMARK VINA RESULT: -7.750950911      1.314      1.925
REMARK  12 active torsions:
REMARK  status: ('A' for Active; 'I' for Inactive)
REMARK    1  A    between atoms: C2_2  and  N1_5 
REMARK       I    between atoms: N1_5  and  C5_7 
REMARK    2  A    between atoms: C5_7  and  C6_9 
REMARK    3  A    between atoms: N2_14  and  C11_15 
REMARK    4  A    between atoms: C11_15  and  C12_19 
REMARK    5  A    between atoms: C12_19  and  C13_23 
REMARK    6  A    between atoms: C13_23  and  S1_24 
REMARK    7  A    between atoms: S1_24  and  C14_26 
REMARK    8  A    between atoms: C15_27  and  C16_28 
REMARK    9  A    between atoms: C16_28  and  C17_29 
REMARK   10  A    between atoms: C17_29  and  N5_30 
REMARK   11  A    between atoms: N6_33  and  C20_34 
REMARK   12  A    between atoms: C20_34  and  C21_35 
ROOT
HETATM    1  C12 UNL     1      19.801 -14.447  21.968  1.00  0.00     0.058 C 
HETATM    2  N4  UNL     1      18.505 -14.504  21.880  1.00  0.00    -0.399 N 
ATOM      3  H41 UNL     1      18.061 -13.969  21.134  1.00  0.00     0.156 HD
ATOM      4  H42 UNL     1      18.014 -15.079  22.564  1.00  0.00     0.156 HD
ENDROOT
BRANCH   1   5
HETATM    5  C11 UNL     1      20.430 -15.206  23.029  1.00  0.00     0.121 C 
HETATM    6  N3  UNL     1      20.922 -16.354  22.731  1.00  0.00    -0.384 N 
ATOM      7  H32 UNL     1      21.365 -16.888  23.479  1.00  0.00     0.157 HD
ATOM      8  H31 UNL     1      20.860 -16.682  21.767  1.00  0.00     0.157 HD
BRANCH   5   9
HETATM    9  N2  UNL     1      20.516 -14.755  24.357  1.00  0.00    -0.352 N 
HETATM   10  C6  UNL     1      19.502 -14.809  25.403  1.00  0.00     0.182 C 
HETATM   11  C7  UNL     1      20.432 -14.928  26.568  1.00  0.00     0.024 A 
HETATM   12  C8  UNL     1      21.001 -14.041  27.489  1.00  0.00     0.014 A 
HETATM   13  C9  UNL     1      21.169 -13.580  26.176  1.00  0.00     0.010 A 
HETATM   14  C10 UNL     1      21.719 -14.137  24.927  1.00  0.00     0.130 C 
BRANCH  10  15
HETATM   15  C5  UNL     1      18.583 -15.930  25.253  1.00  0.00     0.241 C 
HETATM   16  N1  UNL     1      18.828 -17.167  25.936  1.00  0.00    -0.351 N 
ATOM     17  H1  UNL     1      19.654 -17.247  26.527  1.00  0.00     0.163 HD
HETATM   18  O1  UNL     1      17.575 -15.852  24.540  1.00  0.00    -0.271 OA
BRANCH  16  19
HETATM   19  C2  UNL     1      17.948 -18.298  25.817  1.00  0.00     0.022 C 
HETATM   20  C1  UNL     1      18.044 -19.140  27.083  1.00  0.00     0.037 C 
HETATM   21  C3  UNL     1      18.414 -19.133  24.645  1.00  0.00     0.037 C 
HETATM   22  C4  UNL     1      16.516 -17.886  25.560  1.00  0.00     0.037 C 
ENDBRANCH  16  19
ENDBRANCH  10  15
ENDBRANCH   5   9
ENDBRANCH   1   5
BRANCH   1  23
HETATM   23  C13 UNL     1      20.517 -13.609  20.972  1.00  0.00     0.173 C 
BRANCH  23  24
HETATM   24  S1  UNL     1      19.477 -13.070  19.896  1.00  0.00     0.044 S 
HETATM   25  O2  UNL     1      18.638 -12.072  20.487  1.00  0.00    -0.253 OA
BRANCH  24  26
HETATM   26  C14 UNL     1      19.009 -13.633  18.526  1.00  0.00     0.078 C 
HETATM   27  C15 UNL     1      17.747 -13.442  17.887  1.00  0.00     0.007 C 
BRANCH  27  28
HETATM   28  C16 UNL     1      16.397 -13.837  18.243  1.00  0.00     0.001 C 
BRANCH  28  29
HETATM   29  C17 UNL     1      15.329 -12.910  18.590  1.00  0.00     0.267 C 
BRANCH  29  30
HETATM   30  N5  UNL     1      14.805 -13.149  19.913  1.00  0.00    -0.037 N 
HETATM   31  C18 UNL     1      15.221 -12.136  20.863  1.00  0.00     0.268 C 
HETATM   32  C19 UNL     1      14.120 -12.230  21.923  1.00  0.00     0.268 C 
HETATM   33  N6  UNL     1      13.253 -13.263  21.450  1.00  0.00    -0.030 N 
HETATM   34  C22 UNL     1      13.911 -14.520  21.571  1.00  0.00     0.268 C 
HETATM   35  C24 UNL     1      13.351 -13.023  19.994  1.00  0.00     0.474 C 
HETATM   36  C23 UNL     1      15.002 -14.427  20.481  1.00  0.00     0.268 C 
BRANCH  33  37
HETATM   37  C20 UNL     1      11.908 -13.189  21.900  1.00  0.00     0.352 C 
BRANCH  37  38
HETATM   38  C21 UNL     1      11.588 -11.953  22.613  1.00  0.00     0.199 C 
HETATM   39  O3  UNL     1      11.298 -10.921  21.948  1.00  0.00    -0.647 OA
HETATM   40  O4  UNL     1      11.592 -11.875  23.974  1.00  0.00    -0.647 OA
ENDBRANCH  37  38
ENDBRANCH  33  37
ENDBRANCH  29  30
ENDBRANCH  28  29
ENDBRANCH  27  28
ENDBRANCH  24  26
ENDBRANCH  23  24
ENDBRANCH   1  23
TORSDOF 12
ENDMDL
MODEL 4
REMARK VINA RESULT: -7.668345435      1.561      2.383
REMARK  12 active torsions:
REMARK  status: ('A' for Active; 'I' for Inactive)
REMARK    1  A    between atoms: C2_2  and  N1_5 
REMARK       I    between atoms: N1_5  and  C5_7 
REMARK    2  A    between atoms: C5_7  and  C6_9 
REMARK    3  A    between atoms: N2_14  and  C11_15 
REMARK    4  A    between atoms: C11_15  and  C12_19 
REMARK    5  A    between atoms: C12_19  and  C13_23 
REMARK    6  A    between atoms: C13_23  and  S1_24 
REMARK    7  A    between atoms: S1_24  and  C14_26 
REMARK    8  A    between atoms: C15_27  and  C16_28 
REMARK    9  A    between atoms: C16_28  and  C17_29 
REMARK   10  A    between atoms: C17_29  and  N5_30 
REMARK   11  A    between atoms: N6_33  and  C20_34 
REMARK   12  A    between atoms: C20_34  and  C21_35 
ROOT
HETATM    1  C12 UNL     1      20.052 -14.051  21.724  1.00  0.00     0.058 C 
HETATM    2  N4  UNL     1      20.916 -13.218  21.225  1.00  0.00    -0.399 N 
ATOM      3  H41 UNL     1      20.588 -12.579  20.500  1.00  0.00     0.156 HD
ATOM      4  H42 UNL     1      21.868 -13.255  21.589  1.00  0.00     0.156 HD
ENDROOT
BRANCH   1   5
HETATM    5  C11 UNL     1      20.519 -14.957  22.753  1.00  0.00     0.121 C 
HETATM    6  N3  UNL     1      20.881 -16.135  22.392  1.00  0.00    -0.384 N 
ATOM      7  H32 UNL     1      21.210 -16.773  23.116  1.00  0.00     0.157 HD
ATOM      8  H31 UNL     1      20.836 -16.383  21.403  1.00  0.00     0.157 HD
BRANCH   5   9
HETATM    9  N2  UNL     1      20.582 -14.615  24.114  1.00  0.00    -0.352 N 
HETATM   10  C6  UNL     1      19.498 -14.549  25.087  1.00  0.00     0.182 C 
HETATM   11  C7  UNL     1      20.300 -14.911  26.296  1.00  0.00     0.024 A 
HETATM   12  C8  UNL     1      20.946 -14.205  27.316  1.00  0.00     0.014 A 
HETATM   13  C9  UNL     1      21.295 -13.700  26.056  1.00  0.00     0.010 A 
HETATM   14  C10 UNL     1      21.830 -14.268  24.805  1.00  0.00     0.130 C 
BRANCH  10  15
HETATM   15  C5  UNL     1      18.407 -15.469  24.792  1.00  0.00     0.241 C 
HETATM   16  N1  UNL     1      18.620 -16.887  24.838  1.00  0.00    -0.351 N 
ATOM     17  H1  UNL     1      19.547 -17.237  25.080  1.00  0.00     0.163 HD
HETATM   18  O1  UNL     1      17.277 -15.062  24.496  1.00  0.00    -0.271 OA
BRANCH  16  19
HETATM   19  C2  UNL     1      17.573 -17.831  24.555  1.00  0.00     0.022 C 
HETATM   20  C1  UNL     1      16.554 -17.798  25.686  1.00  0.00     0.037 C 
HETATM   21  C3  UNL     1      18.190 -19.211  24.498  1.00  0.00     0.037 C 
HETATM   22  C4  UNL     1      16.902 -17.561  23.227  1.00  0.00     0.037 C 
ENDBRANCH  16  19
ENDBRANCH  10  15
ENDBRANCH   5   9
ENDBRANCH   1   5
BRANCH   1  23
HETATM   23  C13 UNL     1      18.665 -13.996  21.195  1.00  0.00     0.173 C 
BRANCH  23  24
HETATM   24  S1  UNL     1      18.650 -14.555  19.706  1.00  0.00     0.044 S 
HETATM   25  O2  UNL     1      19.855 -15.282  19.446  1.00  0.00    -0.253 OA
BRANCH  24  26
HETATM   26  C14 UNL     1      17.790 -14.188  18.465  1.00  0.00     0.078 C 
HETATM   27  C15 UNL     1      17.024 -13.003  18.252  1.00  0.00     0.007 C 
BRANCH  27  28
HETATM   28  C16 UNL     1      15.864 -12.450  18.925  1.00  0.00     0.001 C 
BRANCH  28  29
HETATM   29  C17 UNL     1      14.616 -13.167  19.146  1.00  0.00     0.267 C 
BRANCH  29  30
HETATM   30  N5  UNL     1      14.088 -12.950  20.471  1.00  0.00    -0.037 N 
HETATM   31  C18 UNL     1      14.874 -11.996  21.229  1.00  0.00     0.268 C 
HETATM   32  C19 UNL     1      13.852 -11.487  22.249  1.00  0.00     0.268 C 
HETATM   33  N6  UNL     1      12.655 -12.207  21.946  1.00  0.00    -0.030 N 
HETATM   34  C22 UNL     1      12.819 -13.570  22.324  1.00  0.00     0.268 C 
HETATM   35  C24 UNL     1      12.781 -12.295  20.476  1.00  0.00     0.474 C 
HETATM   36  C23 UNL     1      13.831 -14.082  21.275  1.00  0.00     0.268 C 
BRANCH  33  37
HETATM   37  C20 UNL     1      11.443 -11.571  22.327  1.00  0.00     0.352 C 
BRANCH  37  38
HETATM   38  C21 UNL     1      11.385 -11.202  23.741  1.00  0.00     0.199 C 
HETATM   39  O3  UNL     1      10.999 -12.058  24.581  1.00  0.00    -0.647 OA
HETATM   40  O4  UNL     1      11.736  -9.961  24.185  1.00  0.00    -0.647 OA
ENDBRANCH  37  38
ENDBRANCH  33  37
ENDBRANCH  29  30
ENDBRANCH  28  29
ENDBRANCH  27  28
ENDBRANCH  24  26
ENDBRANCH  23  24
ENDBRANCH   1  23
TORSDOF 12
ENDMDL
MODEL 5
REMARK VINA RESULT: -7.621328581      1.267      1.793
REMARK  12 active torsions:
REMARK  status: ('A' for Active; 'I' for Inactive)
REMARK    1  A    between atoms: C2_2  and  N1_5 
REMARK       I    between atoms: N1_5  and  C5_7 
REMARK    2  A    between atoms: C5_7  and  C6_9 
REMARK    3  A    between atoms: N2_14  and  C11_15 
REMARK    4  A    between atoms: C11_15  and  C12_19 
REMARK    5  A    between atoms: C12_19  and  C13_23 
REMARK    6  A    between atoms: C13_23  and  S1_24 
REMARK    7  A    between atoms: S1_24  and  C14_26 
REMARK    8  A    between atoms: C15_27  and  C16_28 
REMARK    9  A    between atoms: C16_28  and  C17_29 
REMARK   10  A    between atoms: C17_29  and  N5_30 
REMARK   11  A    between atoms: N6_33  and  C20_34 
REMARK   12  A    between atoms: C20_34  and  C21_35 
ROOT
HETATM    1  C12 UNL     1      19.098 -14.802  22.347  1.00  0.00     0.058 C 
HETATM    2  N4  UNL     1      18.073 -15.578  22.150  1.00  0.00    -0.399 N 
ATOM      3  H41 UNL     1      17.333 -15.231  21.539  1.00  0.00     0.156 HD
ATOM      4  H42 UNL     1      18.074 -16.484  22.618  1.00  0.00     0.156 HD
ENDROOT
BRANCH   1   5
HETATM    5  C11 UNL     1      20.148 -15.295  23.214  1.00  0.00     0.121 C 
HETATM    6  N3  UNL     1      20.916 -16.218  22.758  1.00  0.00    -0.384 N 
ATOM      7  H32 UNL     1      21.656 -16.564  23.369  1.00  0.00     0.157 HD
ATOM      8  H31 UNL     1      20.765 -16.559  21.809  1.00  0.00     0.157 HD
BRANCH   5   9
HETATM    9  N2  UNL     1      20.356 -14.825  24.522  1.00  0.00    -0.352 N 
HETATM   10  C6  UNL     1      19.489 -14.960  25.686  1.00  0.00     0.182 C 
HETATM   11  C7  UNL     1      20.564 -14.982  26.726  1.00  0.00     0.024 A 
HETATM   12  C8  UNL     1      21.158 -14.038  27.570  1.00  0.00     0.014 A 
HETATM   13  C9  UNL     1      21.119 -13.576  26.248  1.00  0.00     0.010 A 
HETATM   14  C10 UNL     1      21.559 -14.095  24.939  1.00  0.00     0.130 C 
BRANCH  10  15
HETATM   15  C5  UNL     1      18.665 -16.162  25.650  1.00  0.00     0.241 C 
HETATM   16  N1  UNL     1      19.240 -17.446  25.926  1.00  0.00    -0.351 N 
ATOM     17  H1  UNL     1      20.234 -17.503  26.148  1.00  0.00     0.163 HD
HETATM   18  O1  UNL     1      17.458 -16.113  25.382  1.00  0.00    -0.271 OA
BRANCH  16  19
HETATM   19  C2  UNL     1      18.466 -18.657  25.902  1.00  0.00     0.022 C 
HETATM   20  C1  UNL     1      17.867 -18.894  27.283  1.00  0.00     0.037 C 
HETATM   21  C3  UNL     1      19.397 -19.803  25.575  1.00  0.00     0.037 C 
HETATM   22  C4  UNL     1      17.378 -18.621  24.852  1.00  0.00     0.037 C 
ENDBRANCH  16  19
ENDBRANCH  10  15
ENDBRANCH   5   9
ENDBRANCH   1   5
BRANCH   1  23
HETATM   23  C13 UNL     1      19.097 -13.483  21.665  1.00  0.00     0.173 C 
BRANCH  23  24
HETATM   24  S1  UNL     1      19.951 -13.584  20.327  1.00  0.00     0.044 S 
HETATM   25  O2  UNL     1      21.077 -12.703  20.400  1.00  0.00    -0.253 OA
BRANCH  24  26
HETATM   26  C14 UNL     1      19.621 -14.158  18.922  1.00  0.00     0.078 C 
HETATM   27  C15 UNL     1      18.591 -13.739  18.026  1.00  0.00     0.007 C 
BRANCH  27  28
HETATM   28  C16 UNL     1      17.143 -13.761  18.116  1.00  0.00     0.001 C 
BRANCH  28  29
HETATM   29  C17 UNL     1      16.392 -14.334  19.223  1.00  0.00     0.267 C 
BRANCH  29  30
HETATM   30  N5  UNL     1      15.423 -13.411  19.763  1.00  0.00    -0.037 N 
HETATM   31  C18 UNL     1      14.562 -12.854  18.738  1.00  0.00     0.268 C 
HETATM   32  C19 UNL     1      13.325 -12.457  19.550  1.00  0.00     0.268 C 
HETATM   33  N6  UNL     1      13.645 -12.825  20.894  1.00  0.00    -0.030 N 
HETATM   34  C22 UNL     1      14.644 -11.944  21.397  1.00  0.00     0.268 C 
HETATM   35  C24 UNL     1      14.438 -14.047  20.636  1.00  0.00     0.474 C 
HETATM   36  C23 UNL     1      15.893 -12.369  20.592  1.00  0.00     0.268 C 
BRANCH  33  37
HETATM   37  C20 UNL     1      12.534 -13.094  21.737  1.00  0.00     0.352 C 
BRANCH  37  38
HETATM   38  C21 UNL     1      12.045 -11.924  22.465  1.00  0.00     0.199 C 
HETATM   39  O3  UNL     1      12.252 -11.844  23.706  1.00  0.00    -0.647 OA
HETATM   40  O4  UNL     1      11.369 -10.913  21.847  1.00  0.00    -0.647 OA
ENDBRANCH  37  38
ENDBRANCH  33  37
ENDBRANCH  29  30
ENDBRANCH  28  29
ENDBRANCH  27  28
ENDBRANCH  24  26
ENDBRANCH  23  24
ENDBRANCH   1  23
TORSDOF 12
ENDMDL
