MODEL 1
REMARK VINA RESULT: -9.074723743      0.000      0.000
REMARK  10 active torsions:
REMARK  status: ('A' for Active; 'I' for Inactive)
REMARK    1  A    between atoms: C2_2  and  C3_3 
REMARK    2  A    between atoms: C3_3  and  N1_4 
REMARK       I    between atoms: N1_4  and  C4_6 
REMARK    3  A    between atoms: C4_6  and  C5_8 
REMARK    4  A    between atoms: C5_8  and  N2_10 
REMARK       I    between atoms: N2_10  and  C7_12 
REMARK    5  A    between atoms: C7_12  and  C8_14 
REMARK    6  A    between atoms: C8_14  and  C9_15 
REMARK    7  A    between atoms: C8_14  and  C14_27 
REMARK       I    between atoms: C9_15  and  N3_17 
REMARK    8  A    between atoms: C10_19  and  C11_20 
REMARK       I    between atoms: C11_20  and  N4_22 
REMARK    9  A    between atoms: C16_29  and  C17_30 
REMARK       I    between atoms: C17_30  and  N6_32 
REMARK   10  A    between atoms: N6_32  and  C18_34 
ROOT
HETATM    1  C8  UNL     1      16.975 -14.612  22.127  1.00  0.00     0.174 C 
ENDROOT
BRANCH   1   2
HETATM    2  C7  UNL     1      17.621 -15.615  23.031  1.00  0.00     0.232 C 
HETATM    3  N2  UNL     1      18.944 -16.017  22.760  1.00  0.00    -0.347 N 
ATOM      4  H2  UNL     1      19.441 -15.626  21.959  1.00  0.00     0.163 HD
HETATM    5  O2  UNL     1      16.971 -16.056  23.987  1.00  0.00    -0.273 OA
BRANCH   3   6
HETATM    6  C5  UNL     1      19.609 -16.999  23.629  1.00  0.00     0.172 C 
HETATM    7  C6  UNL     1      20.256 -18.083  22.788  1.00  0.00     0.042 C 
BRANCH   6   8
HETATM    8  C4  UNL     1      20.619 -16.322  24.442  1.00  0.00     0.240 C 
HETATM    9  N1  UNL     1      20.865 -14.930  24.313  1.00  0.00    -0.356 N 
ATOM     10  H1  UNL     1      20.324 -14.393  23.637  1.00  0.00     0.162 HD
HETATM   11  O1  UNL     1      21.299 -16.962  25.281  1.00  0.00    -0.271 OA
BRANCH   9  12
HETATM   12  C3  UNL     1      21.862 -14.251  25.113  1.00  0.00     0.149 C 
BRANCH  12  13
HETATM   13  C2  UNL     1      21.229 -13.527  26.239  1.00  0.00    -0.018 C 
HETATM   14  C1  UNL     1      21.014 -14.122  27.397  1.00  0.00     0.008 C 
ENDBRANCH  12  13
ENDBRANCH   9  12
ENDBRANCH   6   8
ENDBRANCH   3   6
ENDBRANCH   1   2
BRANCH   1  15
HETATM   15  C9  UNL     1      15.624 -15.045  21.772  1.00  0.00     0.235 C 
HETATM   16  O3  UNL     1      15.432 -15.975  20.971  1.00  0.00    -0.272 OA
HETATM   17  N3  UNL     1      14.508 -14.396  22.353  1.00  0.00    -0.331 N 
HETATM   18  C10 UNL     1      13.836 -13.561  21.642  1.00  0.00     0.165 C 
ATOM     19  H3  UNL     1      14.242 -14.588  23.319  1.00  0.00     0.168 HD
BRANCH  18  20
HETATM   20  C11 UNL     1      12.685 -12.840  22.120  1.00  0.00     0.261 C 
HETATM   21  O4  UNL     1      11.535 -13.326  22.038  1.00  0.00    -0.267 OA
HETATM   22  N4  UNL     1      12.837 -11.558  22.695  1.00  0.00    -0.315 N 
HETATM   23  C12 UNL     1      12.018 -10.989  23.482  1.00  0.00     0.091 C 
ATOM     24  H4  UNL     1      13.684 -11.042  22.457  1.00  0.00     0.170 HD
HETATM   25  C13 UNL     1      10.732 -11.637  23.916  1.00  0.00     0.085 C 
HETATM   26  N5  UNL     1      12.353  -9.698  23.954  1.00  0.00    -0.088 NA
ENDBRANCH  18  20
ENDBRANCH   1  15
BRANCH   1  27
HETATM   27  C14 UNL     1      17.907 -14.330  21.011  1.00  0.00     0.018 C 
HETATM   28  C15 UNL     1      17.580 -14.847  19.652  1.00  0.00     0.027 C 
HETATM   29  C16 UNL     1      18.129 -13.554  19.084  1.00  0.00     0.059 C 
HETATM   30  C21 UNL     1      18.017 -12.956  20.444  1.00  0.00     0.032 C 
HETATM   31  C24 UNL     1      19.582 -13.508  18.828  1.00  0.00    -0.013 C 
HETATM   32  C22 UNL     1      19.331 -12.376  20.785  1.00  0.00    -0.024 C 
HETATM   33  C23 UNL     1      20.201 -12.690  19.875  1.00  0.00    -0.020 C 
HETATM   34  C25 UNL     1      20.225 -14.865  18.677  1.00  0.00     0.020 C 
HETATM   35  C26 UNL     1      19.804 -12.717  17.525  1.00  0.00     0.020 C 
BRANCH  29  36
HETATM   36  C17 UNL     1      17.297 -12.953  18.025  1.00  0.00     0.228 C 
HETATM   37  O5  UNL     1      16.749 -11.857  18.220  1.00  0.00    -0.273 OA
HETATM   38  N6  UNL     1      17.124 -13.618  16.801  1.00  0.00    -0.356 N 
ATOM     39  H6  UNL     1      17.591 -14.516  16.683  1.00  0.00     0.162 HD
BRANCH  38  40
HETATM   40  C18 UNL     1      16.333 -13.124  15.696  1.00  0.00     0.076 C 
HETATM   41  C19 UNL     1      14.862 -13.450  15.840  1.00  0.00     0.032 C 
HETATM   42  C20 UNL     1      16.855 -13.571  14.359  1.00  0.00     0.032 C 
ENDBRANCH  38  40
ENDBRANCH  29  36
ENDBRANCH   1  27
TORSDOF 10
ENDMDL
MODEL 2
REMARK VINA RESULT: -9.073665556      1.092      1.207
REMARK  10 active torsions:
REMARK  status: ('A' for Active; 'I' for Inactive)
REMARK    1  A    between atoms: C2_2  and  C3_3 
REMARK    2  A    between atoms: C3_3  and  N1_4 
REMARK       I    between atoms: N1_4  and  C4_6 
REMARK    3  A    between atoms: C4_6  and  C5_8 
REMARK    4  A    between atoms: C5_8  and  N2_10 
REMARK       I    between atoms: N2_10  and  C7_12 
REMARK    5  A    between atoms: C7_12  and  C8_14 
REMARK    6  A    between atoms: C8_14  and  C9_15 
REMARK    7  A    between atoms: C8_14  and  C14_27 
REMARK       I    between atoms: C9_15  and  N3_17 
REMARK    8  A    between atoms: C10_19  and  C11_20 
REMARK       I    between atoms: C11_20  and  N4_22 
REMARK    9  A    between atoms: C16_29  and  C17_30 
REMARK       I    between atoms: C17_30  and  N6_32 
REMARK   10  A    between atoms: N6_32  and  C18_34 
ROOT
HETATM    1  C8  UNL     1      17.506 -14.899  22.383  1.00  0.00     0.174 C 
ENDROOT
BRANCH   1   2
HETATM    2  C7  UNL     1      18.319 -15.873  23.177  1.00  0.00     0.232 C 
HETATM    3  N2  UNL     1      19.456 -16.452  22.578  1.00  0.00    -0.347 N 
ATOM      4  H2  UNL     1      19.709 -16.205  21.622  1.00  0.00     0.163 HD
HETATM    5  O2  UNL     1      17.966 -16.136  24.333  1.00  0.00    -0.273 OA
BRANCH   3   6
HETATM    6  C5  UNL     1      20.277 -17.412  23.331  1.00  0.00     0.172 C 
HETATM    7  C6  UNL     1      21.115 -18.240  22.376  1.00  0.00     0.042 C 
BRANCH   6   8
HETATM    8  C4  UNL     1      21.142 -16.685  24.260  1.00  0.00     0.240 C 
HETATM    9  N1  UNL     1      20.853 -16.621  25.649  1.00  0.00    -0.356 N 
ATOM     10  H1  UNL     1      20.022 -17.093  26.003  1.00  0.00     0.162 HD
HETATM   11  O1  UNL     1      22.171 -16.095  23.849  1.00  0.00    -0.271 OA
BRANCH   9  12
HETATM   12  C3  UNL     1      21.703 -15.905  26.576  1.00  0.00     0.149 C 
BRANCH  12  13
HETATM   13  C2  UNL     1      21.053 -14.653  27.025  1.00  0.00    -0.018 C 
HETATM   14  C1  UNL     1      21.141 -13.545  26.313  1.00  0.00     0.008 C 
ENDBRANCH  12  13
ENDBRANCH   9  12
ENDBRANCH   6   8
ENDBRANCH   3   6
ENDBRANCH   1   2
BRANCH   1  15
HETATM   15  C9  UNL     1      16.161 -15.426  22.158  1.00  0.00     0.235 C 
HETATM   16  O3  UNL     1      15.980 -16.590  21.761  1.00  0.00    -0.272 OA
HETATM   17  N3  UNL     1      15.038 -14.598  22.397  1.00  0.00    -0.331 N 
HETATM   18  C10 UNL     1      14.414 -14.092  21.392  1.00  0.00     0.165 C 
ATOM     19  H3  UNL     1      14.729 -14.407  23.350  1.00  0.00     0.168 HD
BRANCH  18  20
HETATM   20  C11 UNL     1      13.262 -13.236  21.507  1.00  0.00     0.261 C 
HETATM   21  O4  UNL     1      12.257 -13.587  22.164  1.00  0.00    -0.267 OA
HETATM   22  N4  UNL     1      13.248 -11.973  20.874  1.00  0.00    -0.315 N 
HETATM   23  C12 UNL     1      12.511 -10.987  21.187  1.00  0.00     0.091 C 
ATOM     24  H4  UNL     1      13.889 -11.841  20.092  1.00  0.00     0.170 HD
HETATM   25  C13 UNL     1      11.521 -11.045  22.318  1.00  0.00     0.085 C 
HETATM   26  N5  UNL     1      12.646  -9.801  20.427  1.00  0.00    -0.088 NA
ENDBRANCH  18  20
ENDBRANCH   1  15
BRANCH   1  27
HETATM   27  C14 UNL     1      18.289 -14.513  21.186  1.00  0.00     0.018 C 
HETATM   28  C15 UNL     1      17.786 -14.909  19.840  1.00  0.00     0.027 C 
HETATM   29  C16 UNL     1      18.266 -13.567  19.324  1.00  0.00     0.059 C 
HETATM   30  C21 UNL     1      18.334 -13.094  20.735  1.00  0.00     0.032 C 
HETATM   31  C24 UNL     1      19.674 -13.492  18.887  1.00  0.00    -0.013 C 
HETATM   32  C22 UNL     1      19.686 -12.541  20.954  1.00  0.00    -0.024 C 
HETATM   33  C23 UNL     1      20.429 -12.768  19.915  1.00  0.00    -0.020 C 
HETATM   34  C25 UNL     1      20.282 -14.827  18.534  1.00  0.00     0.020 C 
HETATM   35  C26 UNL     1      19.732 -12.586  17.643  1.00  0.00     0.020 C 
BRANCH  29  36
HETATM   36  C17 UNL     1      17.309 -12.877  18.439  1.00  0.00     0.228 C 
HETATM   37  O5  UNL     1      16.738 -11.848  18.833  1.00  0.00    -0.273 OA
HETATM   38  N6  UNL     1      17.042 -13.383  17.158  1.00  0.00    -0.356 N 
ATOM     39  H6  UNL     1      17.531 -14.232  16.875  1.00  0.00     0.162 HD
BRANCH  38  40
HETATM   40  C18 UNL     1      16.125 -12.791  16.209  1.00  0.00     0.076 C 
HETATM   41  C19 UNL     1      14.693 -13.231  16.428  1.00  0.00     0.032 C 
HETATM   42  C20 UNL     1      16.542 -13.007  14.781  1.00  0.00     0.032 C 
ENDBRANCH  38  40
ENDBRANCH  29  36
ENDBRANCH   1  27
TORSDOF 10
ENDMDL
MODEL 3
REMARK VINA RESULT: -8.947608655      1.894      7.652
REMARK  10 active torsions:
REMARK  status: ('A' for Active; 'I' for Inactive)
REMARK    1  A    between atoms: C2_2  and  C3_3 
REMARK    2  A    between atoms: C3_3  and  N1_4 
REMARK       I    between atoms: N1_4  and  C4_6 
REMARK    3  A    between atoms: C4_6  and  C5_8 
REMARK    4  A    between atoms: C5_8  and  N2_10 
REMARK       I    between atoms: N2_10  and  C7_12 
REMARK    5  A    between atoms: C7_12  and  C8_14 
REMARK    6  A    between atoms: C8_14  and  C9_15 
REMARK    7  A    between atoms: C8_14  and  C14_27 
REMARK       I    between atoms: C9_15  and  N3_17 
REMARK    8  A    between atoms: C10_19  and  C11_20 
REMARK       I    between atoms: C11_20  and  N4_22 
REMARK    9  A    between atoms: C16_29  and  C17_30 
REMARK       I    between atoms: C17_30  and  N6_32 
REMARK   10  A    between atoms: N6_32  and  C18_34 
ROOT
HETATM    1  C8  UNL     1      17.340 -14.194  21.819  1.00  0.00     0.174 C 
ENDROOT
BRANCH   1   2
HETATM    2  C7  UNL     1      16.063 -14.762  21.282  1.00  0.00     0.232 C 
HETATM    3  N2  UNL     1      14.853 -14.437  21.928  1.00  0.00    -0.347 N 
ATOM      4  H2  UNL     1      14.860 -13.826  22.744  1.00  0.00     0.163 HD
HETATM    5  O2  UNL     1      16.114 -15.498  20.289  1.00  0.00    -0.273 OA
BRANCH   3   6
HETATM    6  C5  UNL     1      13.582 -14.978  21.425  1.00  0.00     0.172 C 
HETATM    7  C6  UNL     1      13.287 -16.312  22.085  1.00  0.00     0.042 C 
BRANCH   6   8
HETATM    8  C4  UNL     1      12.506 -14.028  21.707  1.00  0.00     0.240 C 
HETATM    9  N1  UNL     1      12.457 -13.301  22.925  1.00  0.00    -0.356 N 
ATOM     10  H1  UNL     1      13.191 -13.446  23.618  1.00  0.00     0.162 HD
HETATM   11  O1  UNL     1      11.590 -13.831  20.871  1.00  0.00    -0.271 OA
BRANCH   9  12
HETATM   12  C3  UNL     1      11.397 -12.359  23.214  1.00  0.00     0.149 C 
BRANCH  12  13
HETATM   13  C2  UNL     1      11.951 -11.015  23.497  1.00  0.00    -0.018 C 
HETATM   14  C1  UNL     1      12.893 -10.492  22.736  1.00  0.00     0.008 C 
ENDBRANCH  12  13
ENDBRANCH   9  12
ENDBRANCH   6   8
ENDBRANCH   3   6
ENDBRANCH   1   2
BRANCH   1  15
HETATM   15  C9  UNL     1      17.762 -13.048  21.016  1.00  0.00     0.235 C 
HETATM   16  O3  UNL     1      18.156 -11.996  21.548  1.00  0.00    -0.272 OA
HETATM   17  N3  UNL     1      17.728 -13.134  19.604  1.00  0.00    -0.331 N 
HETATM   18  C10 UNL     1      16.783 -12.535  18.968  1.00  0.00     0.165 C 
ATOM     19  H3  UNL     1      18.439 -13.663  19.099  1.00  0.00     0.168 HD
BRANCH  18  20
HETATM   20  C11 UNL     1      16.641 -12.550  17.536  1.00  0.00     0.261 C 
HETATM   21  O4  UNL     1      17.171 -13.445  16.841  1.00  0.00    -0.267 OA
HETATM   22  N4  UNL     1      15.893 -11.544  16.884  1.00  0.00    -0.315 N 
HETATM   23  C12 UNL     1      15.369 -11.629  15.729  1.00  0.00     0.091 C 
ATOM     24  H4  UNL     1      15.762 -10.667  17.387  1.00  0.00     0.170 HD
HETATM   25  C13 UNL     1      15.486 -12.865  14.879  1.00  0.00     0.085 C 
HETATM   26  N5  UNL     1      14.655 -10.507  15.250  1.00  0.00    -0.088 NA
ENDBRANCH  18  20
ENDBRANCH   1  15
BRANCH   1  27
HETATM   27  C14 UNL     1      18.308 -15.303  21.974  1.00  0.00     0.018 C 
HETATM   28  C15 UNL     1      19.762 -15.015  21.818  1.00  0.00     0.027 C 
HETATM   29  C16 UNL     1      20.025 -15.991  22.948  1.00  0.00     0.059 C 
HETATM   30  C21 UNL     1      18.585 -15.887  23.318  1.00  0.00     0.032 C 
HETATM   31  C24 UNL     1      20.163 -17.412  22.576  1.00  0.00    -0.013 C 
HETATM   32  C22 UNL     1      18.044 -17.259  23.389  1.00  0.00    -0.024 C 
HETATM   33  C23 UNL     1      18.934 -18.106  22.972  1.00  0.00    -0.020 C 
HETATM   34  C25 UNL     1      20.533 -17.638  21.130  1.00  0.00     0.020 C 
HETATM   35  C26 UNL     1      21.265 -18.024  23.461  1.00  0.00     0.020 C 
BRANCH  29  36
HETATM   36  C17 UNL     1      21.001 -15.517  23.947  1.00  0.00     0.228 C 
HETATM   37  O5  UNL     1      22.084 -15.044  23.573  1.00  0.00    -0.273 OA
HETATM   38  N6  UNL     1      20.705 -15.601  25.317  1.00  0.00    -0.356 N 
ATOM     39  H6  UNL     1      19.804 -15.998  25.581  1.00  0.00     0.162 HD
BRANCH  38  40
HETATM   40  C18 UNL     1      21.584 -15.169  26.381  1.00  0.00     0.076 C 
HETATM   41  C19 UNL     1      22.076 -16.318  27.235  1.00  0.00     0.032 C 
HETATM   42  C20 UNL     1      20.982 -14.086  27.232  1.00  0.00     0.032 C 
ENDBRANCH  38  40
ENDBRANCH  29  36
ENDBRANCH   1  27
TORSDOF 10
ENDMDL
MODEL 4
REMARK VINA RESULT: -8.817389759      2.024      6.355
REMARK  10 active torsions:
REMARK  status: ('A' for Active; 'I' for Inactive)
REMARK    1  A    between atoms: C2_2  and  C3_3 
REMARK    2  A    between atoms: C3_3  and  N1_4 
REMARK       I    between atoms: N1_4  and  C4_6 
REMARK    3  A    between atoms: C4_6  and  C5_8 
REMARK    4  A    between atoms: C5_8  and  N2_10 
REMARK       I    between atoms: N2_10  and  C7_12 
REMARK    5  A    between atoms: C7_12  and  C8_14 
REMARK    6  A    between atoms: C8_14  and  C9_15 
REMARK    7  A    between atoms: C8_14  and  C14_27 
REMARK       I    between atoms: C9_15  and  N3_17 
REMARK    8  A    between atoms: C10_19  and  C11_20 
REMARK       I    between atoms: C11_20  and  N4_22 
REMARK    9  A    between atoms: C16_29  and  C17_30 
REMARK       I    between atoms: C17_30  and  N6_32 
REMARK   10  A    between atoms: N6_32  and  C18_34 
ROOT
HETATM    1  C8  UNL     1      15.045 -13.656  19.450  1.00  0.00     0.174 C 
ENDROOT
BRANCH   1   2
HETATM    2  C7  UNL     1      15.725 -13.583  18.119  1.00  0.00     0.232 C 
HETATM    3  N2  UNL     1      15.896 -12.322  17.515  1.00  0.00    -0.347 N 
ATOM      4  H2  UNL     1      15.559 -11.482  17.985  1.00  0.00     0.163 HD
HETATM    5  O2  UNL     1      16.115 -14.634  17.594  1.00  0.00    -0.273 OA
BRANCH   3   6
HETATM    6  C5  UNL     1      16.561 -12.215  16.208  1.00  0.00     0.172 C 
HETATM    7  C6  UNL     1      16.610 -10.764  15.766  1.00  0.00     0.042 C 
BRANCH   6   8
HETATM    8  C4  UNL     1      17.917 -12.757  16.308  1.00  0.00     0.240 C 
HETATM    9  N1  UNL     1      18.736 -12.504  17.439  1.00  0.00    -0.356 N 
ATOM     10  H1  UNL     1      18.368 -11.931  18.198  1.00  0.00     0.162 HD
HETATM   11  O1  UNL     1      18.393 -13.464  15.387  1.00  0.00    -0.271 OA
BRANCH   9  12
HETATM   12  C3  UNL     1      20.078 -13.035  17.548  1.00  0.00     0.149 C 
BRANCH  12  13
HETATM   13  C2  UNL     1      20.282 -13.681  18.864  1.00  0.00    -0.018 C 
HETATM   14  C1  UNL     1      20.603 -12.972  19.930  1.00  0.00     0.008 C 
ENDBRANCH  12  13
ENDBRANCH   9  12
ENDBRANCH   6   8
ENDBRANCH   3   6
ENDBRANCH   1   2
BRANCH   1  15
HETATM   15  C9  UNL     1      15.128 -12.366  20.134  1.00  0.00     0.235 C 
HETATM   16  O3  UNL     1      16.212 -11.773  20.264  1.00  0.00    -0.272 OA
HETATM   17  N3  UNL     1      13.953 -11.776  20.658  1.00  0.00    -0.331 N 
HETATM   18  C10 UNL     1      13.750 -11.817  21.928  1.00  0.00     0.165 C 
ATOM     19  H3  UNL     1      13.279 -11.327  20.039  1.00  0.00     0.168 HD
BRANCH  18  20
HETATM   20  C11 UNL     1      12.595 -11.255  22.577  1.00  0.00     0.261 C 
HETATM   21  O4  UNL     1      11.455 -11.741  22.408  1.00  0.00    -0.267 OA
HETATM   22  N4  UNL     1      12.731 -10.133  23.425  1.00  0.00    -0.315 N 
HETATM   23  C12 UNL     1      11.918  -9.779  24.335  1.00  0.00     0.091 C 
ATOM     24  H4  UNL     1      13.560  -9.553  23.295  1.00  0.00     0.170 HD
HETATM   25  C13 UNL     1      10.657 -10.543  24.633  1.00  0.00     0.085 C 
HETATM   26  N5  UNL     1      12.234  -8.619  25.081  1.00  0.00    -0.088 NA
ENDBRANCH  18  20
ENDBRANCH   1  15
BRANCH   1  27
HETATM   27  C14 UNL     1      15.570 -14.838  20.172  1.00  0.00     0.018 C 
HETATM   28  C15 UNL     1      17.034 -14.927  20.434  1.00  0.00     0.027 C 
HETATM   29  C16 UNL     1      16.703 -15.528  21.786  1.00  0.00     0.059 C 
HETATM   30  C21 UNL     1      15.315 -15.012  21.630  1.00  0.00     0.032 C 
HETATM   31  C24 UNL     1      16.504 -16.990  21.828  1.00  0.00    -0.013 C 
HETATM   32  C22 UNL     1      14.392 -16.145  21.845  1.00  0.00    -0.024 C 
HETATM   33  C23 UNL     1      15.066 -17.248  21.955  1.00  0.00    -0.020 C 
HETATM   34  C25 UNL     1      17.141 -17.733  20.680  1.00  0.00     0.020 C 
HETATM   35  C26 UNL     1      17.116 -17.510  23.142  1.00  0.00     0.020 C 
BRANCH  29  36
HETATM   36  C17 UNL     1      17.491 -14.981  22.905  1.00  0.00     0.228 C 
HETATM   37  O5  UNL     1      16.914 -14.423  23.851  1.00  0.00    -0.273 OA
HETATM   38  N6  UNL     1      18.891 -15.089  22.902  1.00  0.00    -0.356 N 
ATOM     39  H6  UNL     1      19.326 -15.553  22.105  1.00  0.00     0.162 HD
BRANCH  38  40
HETATM   40  C18 UNL     1      19.762 -14.590  23.942  1.00  0.00     0.076 C 
HETATM   41  C19 UNL     1      21.222 -14.610  23.542  1.00  0.00     0.032 C 
HETATM   42  C20 UNL     1      19.556 -15.286  25.259  1.00  0.00     0.032 C 
ENDBRANCH  38  40
ENDBRANCH  29  36
ENDBRANCH   1  27
TORSDOF 10
ENDMDL
MODEL 5
REMARK VINA RESULT: -8.773320380      1.216      1.331
REMARK  10 active torsions:
REMARK  status: ('A' for Active; 'I' for Inactive)
REMARK    1  A    between atoms: C2_2  and  C3_3 
REMARK    2  A    between atoms: C3_3  and  N1_4 
REMARK       I    between atoms: N1_4  and  C4_6 
REMARK    3  A    between atoms: C4_6  and  C5_8 
REMARK    4  A    between atoms: C5_8  and  N2_10 
REMARK       I    between atoms: N2_10  and  C7_12 
REMARK    5  A    between atoms: C7_12  and  C8_14 
REMARK    6  A    between atoms: C8_14  and  C9_15 
REMARK    7  A    between atoms: C8_14  and  C14_27 
REMARK       I    between atoms: C9_15  and  N3_17 
REMARK    8  A    between atoms: C10_19  and  C11_20 
REMARK       I    between atoms: C11_20  and  N4_22 
REMARK    9  A    between atoms: C16_29  and  C17_30 
REMARK       I    between atoms: C17_30  and  N6_32 
REMARK   10  A    between atoms: N6_32  and  C18_34 
ROOT
HETATM    1  C8  UNL     1      17.842 -14.670  22.519  1.00  0.00     0.174 C 
ENDROOT
BRANCH   1   2
HETATM    2  C7  UNL     1      18.526 -15.836  23.163  1.00  0.00     0.232 C 
HETATM    3  N2  UNL     1      19.683 -16.363  22.554  1.00  0.00    -0.347 N 
ATOM      4  H2  UNL     1      20.036 -15.950  21.691  1.00  0.00     0.163 HD
HETATM    5  O2  UNL     1      18.053 -16.296  24.210  1.00  0.00    -0.273 OA
BRANCH   3   6
HETATM    6  C5  UNL     1      20.379 -17.506  23.162  1.00  0.00     0.172 C 
HETATM    7  C6  UNL     1      21.066 -18.327  22.086  1.00  0.00     0.042 C 
BRANCH   6   8
HETATM    8  C4  UNL     1      21.363 -17.017  24.128  1.00  0.00     0.240 C 
HETATM    9  N1  UNL     1      20.981 -16.594  25.428  1.00  0.00    -0.356 N 
ATOM     10  H1  UNL     1      19.996 -16.633  25.691  1.00  0.00     0.162 HD
HETATM   11  O1  UNL     1      22.580 -16.959  23.828  1.00  0.00    -0.271 OA
BRANCH   9  12
HETATM   12  C3  UNL     1      21.946 -16.108  26.391  1.00  0.00     0.149 C 
BRANCH  12  13
HETATM   13  C2  UNL     1      21.499 -14.826  26.982  1.00  0.00    -0.018 C 
HETATM   14  C1  UNL     1      20.996 -13.867  26.228  1.00  0.00     0.008 C 
ENDBRANCH  12  13
ENDBRANCH   9  12
ENDBRANCH   6   8
ENDBRANCH   3   6
ENDBRANCH   1   2
BRANCH   1  15
HETATM   15  C9  UNL     1      16.398 -14.897  22.464  1.00  0.00     0.235 C 
HETATM   16  O3  UNL     1      15.929 -16.013  22.185  1.00  0.00    -0.272 OA
HETATM   17  N3  UNL     1      15.513 -13.826  22.737  1.00  0.00    -0.331 N 
HETATM   18  C10 UNL     1      14.908 -13.255  21.756  1.00  0.00     0.165 C 
ATOM     19  H3  UNL     1      15.358 -13.513  23.695  1.00  0.00     0.168 HD
BRANCH  18  20
HETATM   20  C11 UNL     1      13.987 -12.159  21.906  1.00  0.00     0.261 C 
HETATM   21  O4  UNL     1      14.125 -11.102  21.251  1.00  0.00    -0.267 OA
HETATM   22  N4  UNL     1      12.902 -12.259  22.806  1.00  0.00    -0.315 N 
HETATM   23  C12 UNL     1      11.832 -11.575  22.767  1.00  0.00     0.091 C 
ATOM     24  H4  UNL     1      12.986 -12.945  23.556  1.00  0.00     0.170 HD
HETATM   25  C13 UNL     1      11.578 -10.531  21.715  1.00  0.00     0.085 C 
HETATM   26  N5  UNL     1      10.859 -11.825  23.763  1.00  0.00    -0.088 NA
ENDBRANCH  18  20
ENDBRANCH   1  15
BRANCH   1  27
HETATM   27  C14 UNL     1      18.529 -14.382  21.239  1.00  0.00     0.018 C 
HETATM   28  C15 UNL     1      17.943 -14.909  19.975  1.00  0.00     0.027 C 
HETATM   29  C16 UNL     1      18.353 -13.612  19.305  1.00  0.00     0.059 C 
HETATM   30  C21 UNL     1      18.508 -13.010  20.659  1.00  0.00     0.032 C 
HETATM   31  C24 UNL     1      19.724 -13.553  18.764  1.00  0.00    -0.013 C 
HETATM   32  C22 UNL     1      19.857 -12.415  20.729  1.00  0.00    -0.024 C 
HETATM   33  C23 UNL     1      20.532 -12.723  19.664  1.00  0.00    -0.020 C 
HETATM   34  C25 UNL     1      20.339 -14.903  18.490  1.00  0.00     0.020 C 
HETATM   35  C26 UNL     1      19.673 -12.765  17.441  1.00  0.00     0.020 C 
BRANCH  29  36
HETATM   36  C17 UNL     1      17.319 -13.025  18.433  1.00  0.00     0.228 C 
HETATM   37  O5  UNL     1      16.790 -11.947  18.745  1.00  0.00    -0.273 OA
HETATM   38  N6  UNL     1      16.933 -13.683  17.255  1.00  0.00    -0.356 N 
ATOM     39  H6  UNL     1      17.392 -14.567  17.036  1.00  0.00     0.162 HD
BRANCH  38  40
HETATM   40  C18 UNL     1      15.934 -13.201  16.328  1.00  0.00     0.076 C 
HETATM   41  C19 UNL     1      15.206 -14.323  15.618  1.00  0.00     0.032 C 
HETATM   42  C20 UNL     1      16.482 -12.208  15.341  1.00  0.00     0.032 C 
ENDBRANCH  38  40
ENDBRANCH  29  36
ENDBRANCH   1  27
TORSDOF 10
ENDMDL
