MODEL 1
REMARK VINA RESULT: -10.391881461      0.000      0.000
REMARK  4 active torsions:
REMARK  status: ('A' for Active; 'I' for Inactive)
REMARK       I    between atoms: C1_2  and  N1_3 
REMARK    1  A    between atoms: C1_2  and  C14_22 
REMARK    2  A    between atoms: N1_3  and  C2_5 
REMARK    3  A    between atoms: C2_5  and  C3_6 
REMARK    4  A    between atoms: C3_6  and  C4_7 
ROOT
HETATM    1  C3  UNL     1      76.750  -4.387  24.996  1.00  0.00     0.020 C 
HETATM    2  C9  UNL     1      75.938  -5.647  24.961  1.00  0.00     0.017 C 
HETATM    3  C10 UNL     1      75.334  -6.063  23.687  1.00  0.00     0.001 C 
HETATM    4  C11 UNL     1      75.928  -5.576  22.421  1.00  0.00     0.000 C 
HETATM    5  C12 UNL     1      77.237  -4.836  22.601  1.00  0.00     0.001 C 
HETATM    6  C13 UNL     1      76.956  -3.765  23.619  1.00  0.00     0.017 C 
ENDROOT
BRANCH   1   7
HETATM    7  C2  UNL     1      76.009  -3.322  25.781  1.00  0.00     0.139 C 
BRANCH   7   8
HETATM    8  N1  UNL     1      76.605  -2.013  25.560  1.00  0.00    -0.353 N 
HETATM    9  C1  UNL     1      76.019  -0.877  26.117  1.00  0.00     0.287 C 
HETATM   10  O1  UNL     1      74.943  -1.079  26.805  1.00  0.00    -0.264 OA
ATOM     11  H1  UNL     1      77.451  -1.926  24.997  1.00  0.00     0.162 HD
BRANCH   9  12
HETATM   12  C14 UNL     1      76.446   0.492  26.029  1.00  0.00     0.193 A 
HETATM   13  N3  UNL     1      77.395   0.949  25.176  1.00  0.00    -0.279 N 
HETATM   14  N4  UNL     1      77.535   2.228  25.350  1.00  0.00    -0.278 N 
ATOM     15  H3  UNL     1      77.915   0.382  24.506  1.00  0.00     0.189 HD
HETATM   16  C15 UNL     1      76.683   2.636  26.317  1.00  0.00     0.163 A 
ATOM     17  H4  UNL     1      78.183   2.828  24.840  1.00  0.00     0.189 HD
HETATM   18  N5  UNL     1      76.012   1.564  26.730  1.00  0.00    -0.307 N 
HETATM   19  S1  UNL     1      76.437   4.291  27.026  1.00  0.00    -0.092 SA
HETATM   20  C16 UNL     1      74.954   1.600  27.753  1.00  0.00     0.134 C 
HETATM   21  C17 UNL     1      74.329   2.944  27.896  1.00  0.00     0.031 C 
HETATM   22  C18 UNL     1      75.287   3.986  28.433  1.00  0.00     0.084 C 
ENDBRANCH   9  12
ENDBRANCH   7   8
ENDBRANCH   1   7
BRANCH   1  23
HETATM   23  C4  UNL     1      78.105  -4.623  25.563  1.00  0.00     0.044 A 
HETATM   24  N2  UNL     1      79.176  -3.869  25.156  1.00  0.00    -0.364 N 
HETATM   25  C5  UNL     1      80.402  -3.989  25.628  1.00  0.00     0.133 A 
ATOM     26  H2  UNL     1      79.012  -3.164  24.437  1.00  0.00     0.165 HD
HETATM   27  C6  UNL     1      80.719  -4.906  26.594  1.00  0.00     0.171 A 
HETATM   28  F1  UNL     1      81.992  -5.013  27.066  1.00  0.00    -0.201 F 
HETATM   29  C7  UNL     1      79.694  -5.703  27.052  1.00  0.00     0.179 A 
HETATM   30  F2  UNL     1      79.963  -6.615  27.999  1.00  0.00    -0.201 F 
HETATM   31  C8  UNL     1      78.408  -5.547  26.529  1.00  0.00     0.099 A 
HETATM   32 CL1  UNL     1      77.201  -6.623  27.138  1.00  0.00    -0.079 Cl
ENDBRANCH   1  23
TORSDOF 4
ENDMDL
MODEL 2
REMARK VINA RESULT: -9.908614901      1.261      2.114
REMARK  4 active torsions:
REMARK  status: ('A' for Active; 'I' for Inactive)
REMARK       I    between atoms: C1_2  and  N1_3 
REMARK    1  A    between atoms: C1_2  and  C14_22 
REMARK    2  A    between atoms: N1_3  and  C2_5 
REMARK    3  A    between atoms: C2_5  and  C3_6 
REMARK    4  A    between atoms: C3_6  and  C4_7 
ROOT
HETATM    1  C3  UNL     1      76.625  -4.547  24.926  1.00  0.00     0.020 C 
HETATM    2  C9  UNL     1      75.899  -5.858  24.879  1.00  0.00     0.017 C 
HETATM    3  C10 UNL     1      75.309  -6.294  23.605  1.00  0.00     0.001 C 
HETATM    4  C11 UNL     1      75.852  -5.748  22.341  1.00  0.00     0.000 C 
HETATM    5  C12 UNL     1      77.111  -4.924  22.518  1.00  0.00     0.001 C 
HETATM    6  C13 UNL     1      76.770  -3.891  23.557  1.00  0.00     0.017 C 
ENDROOT
BRANCH   1   7
HETATM    7  C2  UNL     1      75.823  -3.547  25.738  1.00  0.00     0.139 C 
BRANCH   7   8
HETATM    8  N1  UNL     1      76.349  -2.202  25.558  1.00  0.00    -0.353 N 
HETATM    9  C1  UNL     1      75.790  -1.137  26.262  1.00  0.00     0.287 C 
HETATM   10  O1  UNL     1      74.801  -1.433  27.041  1.00  0.00    -0.264 OA
ATOM     11  H1  UNL     1      77.126  -2.039  24.918  1.00  0.00     0.162 HD
BRANCH   9  12
HETATM   12  C14 UNL     1      76.159   0.251  26.238  1.00  0.00     0.193 A 
HETATM   13  N3  UNL     1      75.539   1.226  26.949  1.00  0.00    -0.279 N 
HETATM   14  N4  UNL     1      76.121   2.360  26.704  1.00  0.00    -0.278 N 
ATOM     15  H3  UNL     1      74.744   1.091  27.574  1.00  0.00     0.189 HD
HETATM   16  C15 UNL     1      77.134   2.154  25.831  1.00  0.00     0.163 A 
ATOM     17  H4  UNL     1      75.858   3.259  27.105  1.00  0.00     0.189 HD
HETATM   18  N5  UNL     1      77.155   0.854  25.549  1.00  0.00    -0.307 N 
HETATM   19  S1  UNL     1      78.284   3.347  25.086  1.00  0.00    -0.092 SA
HETATM   20  C16 UNL     1      78.145   0.222  24.663  1.00  0.00     0.134 C 
HETATM   21  C17 UNL     1      79.402   1.009  24.539  1.00  0.00     0.031 C 
HETATM   22  C18 UNL     1      79.199   2.338  23.844  1.00  0.00     0.084 C 
ENDBRANCH   9  12
ENDBRANCH   7   8
ENDBRANCH   1   7
BRANCH   1  23
HETATM   23  C4  UNL     1      78.000  -4.700  25.473  1.00  0.00     0.044 A 
HETATM   24  N2  UNL     1      79.027  -3.916  25.015  1.00  0.00    -0.364 N 
HETATM   25  C5  UNL     1      80.266  -3.962  25.465  1.00  0.00     0.133 A 
ATOM     26  H2  UNL     1      78.817  -3.249  24.272  1.00  0.00     0.165 HD
HETATM   27  C6  UNL     1      80.643  -4.825  26.460  1.00  0.00     0.171 A 
HETATM   28  F1  UNL     1      81.928  -4.856  26.908  1.00  0.00    -0.201 F 
HETATM   29  C7  UNL     1      79.664  -5.647  26.970  1.00  0.00     0.179 A 
HETATM   30  F2  UNL     1      79.992  -6.507  27.946  1.00  0.00    -0.201 F 
HETATM   31  C8  UNL     1      78.362  -5.570  26.469  1.00  0.00     0.099 A 
HETATM   32 CL1  UNL     1      77.217  -6.673  27.144  1.00  0.00    -0.079 Cl
ENDBRANCH   1  23
TORSDOF 4
ENDMDL
MODEL 3
REMARK VINA RESULT: -9.884006107      2.301      3.658
REMARK  4 active torsions:
REMARK  status: ('A' for Active; 'I' for Inactive)
REMARK       I    between atoms: C1_2  and  N1_3 
REMARK    1  A    between atoms: C1_2  and  C14_22 
REMARK    2  A    between atoms: N1_3  and  C2_5 
REMARK    3  A    between atoms: C2_5  and  C3_6 
REMARK    4  A    between atoms: C3_6  and  C4_7 
ROOT
HETATM    1  C3  UNL     1      77.227  -4.152  25.321  1.00  0.00     0.020 C 
HETATM    2  C9  UNL     1      78.415  -3.502  24.678  1.00  0.00     0.017 C 
HETATM    3  C10 UNL     1      79.695  -3.499  25.400  1.00  0.00     0.001 C 
HETATM    4  C11 UNL     1      79.935  -4.527  26.437  1.00  0.00     0.000 C 
HETATM    5  C12 UNL     1      78.869  -5.602  26.494  1.00  0.00     0.001 C 
HETATM    6  C13 UNL     1      77.564  -4.865  26.626  1.00  0.00     0.017 C 
ENDROOT
BRANCH   1   7
HETATM    7  C2  UNL     1      76.219  -3.092  25.723  1.00  0.00     0.139 C 
BRANCH   7   8
HETATM    8  N1  UNL     1      76.777  -1.760  25.546  1.00  0.00    -0.353 N 
HETATM    9  C1  UNL     1      76.133  -0.655  26.101  1.00  0.00     0.287 C 
HETATM   10  O1  UNL     1      75.040  -0.906  26.745  1.00  0.00    -0.264 OA
ATOM     11  H1  UNL     1      77.639  -1.634  25.016  1.00  0.00     0.162 HD
BRANCH   9  12
HETATM   12  C14 UNL     1      76.514   0.729  26.052  1.00  0.00     0.193 A 
HETATM   13  N3  UNL     1      77.458   1.239  25.222  1.00  0.00    -0.279 N 
HETATM   14  N4  UNL     1      77.553   2.517  25.429  1.00  0.00    -0.278 N 
ATOM     15  H3  UNL     1      78.005   0.705  24.545  1.00  0.00     0.189 HD
HETATM   16  C15 UNL     1      76.676   2.872  26.395  1.00  0.00     0.163 A 
ATOM     17  H4  UNL     1      78.186   3.150  24.942  1.00  0.00     0.189 HD
HETATM   18  N5  UNL     1      76.037   1.768  26.773  1.00  0.00    -0.307 N 
HETATM   19  S1  UNL     1      76.367   4.499  27.142  1.00  0.00    -0.092 SA
HETATM   20  C16 UNL     1      74.966   1.744  27.783  1.00  0.00     0.134 C 
HETATM   21  C17 UNL     1      74.294   3.063  27.951  1.00  0.00     0.031 C 
HETATM   22  C18 UNL     1      75.210   4.121  28.526  1.00  0.00     0.084 C 
ENDBRANCH   9  12
ENDBRANCH   7   8
ENDBRANCH   1   7
BRANCH   1  23
HETATM   23  C4  UNL     1      76.607  -5.169  24.429  1.00  0.00     0.044 A 
HETATM   24  N2  UNL     1      76.909  -5.205  23.092  1.00  0.00    -0.364 N 
HETATM   25  C5  UNL     1      76.432  -6.089  22.237  1.00  0.00     0.133 A 
ATOM     26  H2  UNL     1      77.551  -4.497  22.733  1.00  0.00     0.165 HD
HETATM   27  C6  UNL     1      75.565  -7.076  22.625  1.00  0.00     0.171 A 
HETATM   28  F1  UNL     1      75.084  -7.978  21.726  1.00  0.00    -0.201 F 
HETATM   29  C7  UNL     1      75.212  -7.102  23.955  1.00  0.00     0.179 A 
HETATM   30  F2  UNL     1      74.365  -8.054  24.377  1.00  0.00    -0.201 F 
HETATM   31  C8  UNL     1      75.738  -6.150  24.832  1.00  0.00     0.099 A 
HETATM   32 CL1  UNL     1      75.202  -6.241  26.471  1.00  0.00    -0.079 Cl
ENDBRANCH   1  23
TORSDOF 4
ENDMDL
MODEL 4
REMARK VINA RESULT: -9.831252453      2.551      3.893
REMARK  4 active torsions:
REMARK  status: ('A' for Active; 'I' for Inactive)
REMARK       I    between atoms: C1_2  and  N1_3 
REMARK    1  A    between atoms: C1_2  and  C14_22 
REMARK    2  A    between atoms: N1_3  and  C2_5 
REMARK    3  A    between atoms: C2_5  and  C3_6 
REMARK    4  A    between atoms: C3_6  and  C4_7 
ROOT
HETATM    1  C3  UNL     1      76.872  -4.594  25.802  1.00  0.00     0.020 C 
HETATM    2  C9  UNL     1      77.820  -4.329  24.672  1.00  0.00     0.017 C 
HETATM    3  C10 UNL     1      79.233  -4.068  24.981  1.00  0.00     0.001 C 
HETATM    4  C11 UNL     1      79.789  -4.565  26.260  1.00  0.00     0.000 C 
HETATM    5  C12 UNL     1      78.848  -5.469  27.029  1.00  0.00     0.001 C 
HETATM    6  C13 UNL     1      77.564  -4.695  27.157  1.00  0.00     0.017 C 
ENDROOT
BRANCH   1   7
HETATM    7  C2  UNL     1      75.918  -3.425  25.956  1.00  0.00     0.139 C 
BRANCH   7   8
HETATM    8  N1  UNL     1      76.610  -2.164  25.728  1.00  0.00    -0.353 N 
HETATM    9  C1  UNL     1      76.011  -0.963  26.105  1.00  0.00     0.287 C 
HETATM   10  O1  UNL     1      74.837  -1.062  26.637  1.00  0.00    -0.264 OA
ATOM     11  H1  UNL     1      77.532  -2.160  25.293  1.00  0.00     0.162 HD
BRANCH   9  12
HETATM   12  C14 UNL     1      76.519   0.374  25.979  1.00  0.00     0.193 A 
HETATM   13  N3  UNL     1      77.504   0.747  25.124  1.00  0.00    -0.279 N 
HETATM   14  N4  UNL     1      77.717   2.020  25.259  1.00  0.00    -0.278 N 
ATOM     15  H3  UNL     1      77.996   0.129  24.479  1.00  0.00     0.189 HD
HETATM   16  C15 UNL     1      76.880   2.509  26.202  1.00  0.00     0.163 A 
ATOM     17  H4  UNL     1      78.405   2.564  24.739  1.00  0.00     0.189 HD
HETATM   18  N5  UNL     1      76.142   1.492  26.640  1.00  0.00    -0.307 N 
HETATM   19  S1  UNL     1      76.725   4.197  26.855  1.00  0.00    -0.092 SA
HETATM   20  C16 UNL     1      75.077   1.624  27.647  1.00  0.00     0.134 C 
HETATM   21  C17 UNL     1      74.531   3.007  27.739  1.00  0.00     0.031 C 
HETATM   22  C18 UNL     1      75.543   4.007  28.256  1.00  0.00     0.084 C 
ENDBRANCH   9  12
ENDBRANCH   7   8
ENDBRANCH   1   7
BRANCH   1  23
HETATM   23  C4  UNL     1      76.129  -5.868  25.608  1.00  0.00     0.044 A 
HETATM   24  N2  UNL     1      75.897  -6.712  26.664  1.00  0.00    -0.364 N 
HETATM   25  C5  UNL     1      75.222  -7.843  26.589  1.00  0.00     0.133 A 
ATOM     26  H2  UNL     1      76.274  -6.445  27.574  1.00  0.00     0.165 HD
HETATM   27  C6  UNL     1      74.678  -8.284  25.412  1.00  0.00     0.171 A 
HETATM   28  F1  UNL     1      73.985  -9.454  25.357  1.00  0.00    -0.201 F 
HETATM   29  C7  UNL     1      74.871  -7.489  24.305  1.00  0.00     0.179 A 
HETATM   30  F2  UNL     1      74.355  -7.885  23.131  1.00  0.00    -0.201 F 
HETATM   31  C8  UNL     1      75.592  -6.297  24.422  1.00  0.00     0.099 A 
HETATM   32 CL1  UNL     1      75.816  -5.393  22.968  1.00  0.00    -0.079 Cl
ENDBRANCH   1  23
TORSDOF 4
ENDMDL
MODEL 5
REMARK VINA RESULT: -9.751664439      2.910      4.374
REMARK  4 active torsions:
REMARK  status: ('A' for Active; 'I' for Inactive)
REMARK       I    between atoms: C1_2  and  N1_3 
REMARK    1  A    between atoms: C1_2  and  C14_22 
REMARK    2  A    between atoms: N1_3  and  C2_5 
REMARK    3  A    between atoms: C2_5  and  C3_6 
REMARK    4  A    between atoms: C3_6  and  C4_7 
ROOT
HETATM    1  C3  UNL     1      77.216  -4.663  25.526  1.00  0.00     0.020 C 
HETATM    2  C9  UNL     1      78.588  -5.267  25.534  1.00  0.00     0.017 C 
HETATM    3  C10 UNL     1      79.384  -5.195  26.768  1.00  0.00     0.001 C 
HETATM    4  C11 UNL     1      78.686  -5.023  28.062  1.00  0.00     0.000 C 
HETATM    5  C12 UNL     1      77.178  -5.134  27.966  1.00  0.00     0.001 C 
HETATM    6  C13 UNL     1      76.772  -4.158  26.895  1.00  0.00     0.017 C 
ENDROOT
BRANCH   1   7
HETATM    7  C2  UNL     1      77.208  -3.424  24.650  1.00  0.00     0.139 C 
BRANCH   7   8
HETATM    8  N1  UNL     1      76.614  -2.299  25.358  1.00  0.00    -0.353 N 
HETATM    9  C1  UNL     1      77.130  -1.016  25.182  1.00  0.00     0.287 C 
HETATM   10  O1  UNL     1      78.143  -0.920  24.384  1.00  0.00    -0.264 OA
ATOM     11  H1  UNL     1      75.821  -2.450  25.982  1.00  0.00     0.162 HD
BRANCH   9  12
HETATM   12  C14 UNL     1      76.692   0.219  25.772  1.00  0.00     0.193 A 
HETATM   13  N3  UNL     1      77.296   1.419  25.584  1.00  0.00    -0.279 N 
HETATM   14  N4  UNL     1      76.648   2.324  26.252  1.00  0.00    -0.278 N 
ATOM     15  H3  UNL     1      78.124   1.584  25.012  1.00  0.00     0.189 HD
HETATM   16  C15 UNL     1      75.608   1.740  26.889  1.00  0.00     0.163 A 
ATOM     17  H4  UNL     1      76.885   3.315  26.290  1.00  0.00     0.189 HD
HETATM   18  N5  UNL     1      75.638   0.444  26.588  1.00  0.00    -0.307 N 
HETATM   19  S1  UNL     1      74.368   2.470  27.998  1.00  0.00    -0.092 SA
HETATM   20  C16 UNL     1      74.640  -0.531  27.057  1.00  0.00     0.134 C 
HETATM   21  C17 UNL     1      73.341   0.097  27.426  1.00  0.00     0.031 C 
HETATM   22  C18 UNL     1      73.447   1.005  28.632  1.00  0.00     0.084 C 
ENDBRANCH   9  12
ENDBRANCH   7   8
ENDBRANCH   1   7
BRANCH   1  23
HETATM   23  C4  UNL     1      76.187  -5.640  25.079  1.00  0.00     0.044 A 
HETATM   24  N2  UNL     1      75.299  -6.181  25.973  1.00  0.00    -0.364 N 
HETATM   25  C5  UNL     1      74.338  -7.027  25.658  1.00  0.00     0.133 A 
ATOM     26  H2  UNL     1      75.389  -5.908  26.952  1.00  0.00     0.165 HD
HETATM   27  C6  UNL     1      74.139  -7.452  24.371  1.00  0.00     0.171 A 
HETATM   28  F1  UNL     1      73.141  -8.326  24.069  1.00  0.00    -0.201 F 
HETATM   29  C7  UNL     1      74.995  -6.952  23.416  1.00  0.00     0.179 A 
HETATM   30  F2  UNL     1      74.835  -7.342  22.142  1.00  0.00    -0.201 F 
HETATM   31  C8  UNL     1      76.002  -6.057  23.786  1.00  0.00     0.099 A 
HETATM   32 CL1  UNL     1      77.051  -5.521  22.522  1.00  0.00    -0.079 Cl
ENDBRANCH   1  23
TORSDOF 4
ENDMDL
