MODEL 1
REMARK VINA RESULT: -7.110699525      0.000      0.000
REMARK  4 active torsions:
REMARK  status: ('A' for Active; 'I' for Inactive)
REMARK    1  A    between atoms: C5_5  and  C6_6 
REMARK    2  A    between atoms: C6_6  and  N1_7 
REMARK    3  A    between atoms: C6_6  and  C8_12 
REMARK    4  A    between atoms: C8_12  and  N4_13 
ROOT
HETATM    1  C1  UNL     1      78.315  28.165  37.350  1.00  0.00     0.012 C 
HETATM    2  C2  UNL     1      77.795  27.850  38.396  1.00  0.00    -0.112 C 
HETATM    3  C3  UNL     1      77.150  27.488  39.673  1.00  0.00     0.071 A 
HETATM    4  C4  UNL     1      76.990  28.576  40.710  1.00  0.00     0.025 A 
HETATM    5  C5  UNL     1      77.971  27.514  40.934  1.00  0.00     0.028 A 
ENDROOT
BRANCH   5   6
HETATM    6  C6  UNL     1      77.729  26.441  41.968  1.00  0.00     0.133 C 
BRANCH   6   7
HETATM    7  N1  UNL     1      76.660  26.809  42.848  1.00  0.00    -0.359 N 
HETATM    8  C7  UNL     1      76.511  26.328  44.038  1.00  0.00     0.197 C 
HETATM    9  N2  UNL     1      75.422  26.745  44.851  1.00  0.00    -0.067 NA
HETATM   10  N3  UNL     1      77.431  25.375  44.554  1.00  0.00    -0.067 NA
ATOM     11  H1  UNL     1      75.977  27.491  42.517  1.00  0.00     0.162 HD
ENDBRANCH   6   7
BRANCH   6  12
HETATM   12  C8  UNL     1      77.474  25.121  41.296  1.00  0.00     0.311 C 
HETATM   13  C9  UNL     1      78.591  24.198  41.631  1.00  0.00     0.094 C 
HETATM   14  N5  UNL     1      79.464  23.497  41.902  1.00  0.00    -0.195 NA
BRANCH  12  15
HETATM   15  N4  UNL     1      76.260  24.496  41.710  1.00  0.00    -0.061 N 
ATOM     16  H43 UNL     1      76.452  23.708  42.329  1.00  0.00     0.276 HD
ATOM     17  H42 UNL     1      75.747  25.097  42.355  1.00  0.00     0.276 HD
ATOM     18  H41 UNL     1      75.664  24.209  40.934  1.00  0.00     0.276 HD
ENDBRANCH  12  15
ENDBRANCH   6  12
ENDBRANCH   5   6
TORSDOF 4
ENDMDL
MODEL 2
REMARK VINA RESULT: -6.866745838      2.851      5.402
REMARK  4 active torsions:
REMARK  status: ('A' for Active; 'I' for Inactive)
REMARK    1  A    between atoms: C5_5  and  C6_6 
REMARK    2  A    between atoms: C6_6  and  N1_7 
REMARK    3  A    between atoms: C6_6  and  C8_12 
REMARK    4  A    between atoms: C8_12  and  N4_13 
ROOT
HETATM    1  C1  UNL     1      75.711  26.781  44.706  1.00  0.00     0.012 C 
HETATM    2  C2  UNL     1      76.209  26.504  43.639  1.00  0.00    -0.112 C 
HETATM    3  C3  UNL     1      76.830  26.149  42.349  1.00  0.00     0.071 A 
HETATM    4  C4  UNL     1      78.289  25.749  42.360  1.00  0.00     0.025 A 
HETATM    5  C5  UNL     1      77.907  27.042  41.792  1.00  0.00     0.028 A 
ENDROOT
BRANCH   5   6
HETATM    6  C6  UNL     1      77.943  27.273  40.301  1.00  0.00     0.133 C 
BRANCH   6   7
HETATM    7  N1  UNL     1      78.257  26.062  39.602  1.00  0.00    -0.359 N 
HETATM    8  C7  UNL     1      79.083  26.000  38.610  1.00  0.00     0.197 C 
HETATM    9  N2  UNL     1      79.342  24.758  37.967  1.00  0.00    -0.067 NA
HETATM   10  N3  UNL     1      79.746  27.168  38.144  1.00  0.00    -0.067 NA
ATOM     11  H1  UNL     1      77.803  25.201  39.905  1.00  0.00     0.162 HD
ENDBRANCH   6   7
BRANCH   6  12
HETATM   12  C8  UNL     1      76.644  27.869  39.836  1.00  0.00     0.311 C 
HETATM   13  C9  UNL     1      76.589  29.286  40.283  1.00  0.00     0.094 C 
HETATM   14  N5  UNL     1      76.564  30.383  40.636  1.00  0.00    -0.195 NA
BRANCH  12  15
HETATM   15  N4  UNL     1      76.488  27.859  38.418  1.00  0.00    -0.061 N 
ATOM     16  H43 UNL     1      77.321  27.483  37.965  1.00  0.00     0.276 HD
ATOM     17  H42 UNL     1      75.808  27.153  38.135  1.00  0.00     0.276 HD
ATOM     18  H41 UNL     1      76.244  28.769  38.028  1.00  0.00     0.276 HD
ENDBRANCH  12  15
ENDBRANCH   6  12
ENDBRANCH   5   6
TORSDOF 4
ENDMDL
MODEL 3
REMARK VINA RESULT: -6.229176336      1.481      2.254
REMARK  4 active torsions:
REMARK  status: ('A' for Active; 'I' for Inactive)
REMARK    1  A    between atoms: C5_5  and  C6_6 
REMARK    2  A    between atoms: C6_6  and  N1_7 
REMARK    3  A    between atoms: C6_6  and  C8_12 
REMARK    4  A    between atoms: C8_12  and  N4_13 
ROOT
HETATM    1  C1  UNL     1      75.305  30.645  39.793  1.00  0.00     0.012 C 
HETATM    2  C2  UNL     1      76.061  29.924  40.404  1.00  0.00    -0.112 C 
HETATM    3  C3  UNL     1      77.000  29.054  41.137  1.00  0.00     0.071 A 
HETATM    4  C4  UNL     1      78.220  28.557  40.394  1.00  0.00     0.025 A 
HETATM    5  C5  UNL     1      77.144  27.618  40.710  1.00  0.00     0.028 A 
ENDROOT
BRANCH   5   6
HETATM    6  C6  UNL     1      77.321  26.568  41.779  1.00  0.00     0.133 C 
BRANCH   6   7
HETATM    7  N1  UNL     1      76.349  26.727  42.820  1.00  0.00    -0.359 N 
HETATM    8  C7  UNL     1      76.459  26.196  43.992  1.00  0.00     0.197 C 
HETATM    9  N2  UNL     1      75.449  26.401  44.972  1.00  0.00    -0.067 NA
HETATM   10  N3  UNL     1      77.588  25.400  44.325  1.00  0.00    -0.067 NA
ATOM     11  H1  UNL     1      75.522  27.292  42.623  1.00  0.00     0.162 HD
ENDBRANCH   6   7
BRANCH   6  12
HETATM   12  C8  UNL     1      77.275  25.194  41.172  1.00  0.00     0.311 C 
HETATM   13  C9  UNL     1      77.292  25.332  39.691  1.00  0.00     0.094 C 
HETATM   14  N5  UNL     1      77.308  25.458  38.546  1.00  0.00    -0.195 NA
BRANCH  12  15
HETATM   15  N4  UNL     1      78.379  24.370  41.541  1.00  0.00    -0.061 N 
ATOM     16  H43 UNL     1      79.236  24.921  41.605  1.00  0.00     0.276 HD
ATOM     17  H42 UNL     1      78.297  24.070  42.512  1.00  0.00     0.276 HD
ATOM     18  H41 UNL     1      78.512  23.567  40.925  1.00  0.00     0.276 HD
ENDBRANCH  12  15
ENDBRANCH   6  12
ENDBRANCH   5   6
TORSDOF 4
ENDMDL
MODEL 4
REMARK VINA RESULT: -6.157123874      2.395      3.410
REMARK  4 active torsions:
REMARK  status: ('A' for Active; 'I' for Inactive)
REMARK    1  A    between atoms: C5_5  and  C6_6 
REMARK    2  A    between atoms: C6_6  and  N1_7 
REMARK    3  A    between atoms: C6_6  and  C8_12 
REMARK    4  A    between atoms: C8_12  and  N4_13 
ROOT
HETATM    1  C1  UNL     1      79.406  24.282  38.081  1.00  0.00     0.012 C 
HETATM    2  C2  UNL     1      78.571  24.914  38.687  1.00  0.00    -0.112 C 
HETATM    3  C3  UNL     1      77.543  25.691  39.405  1.00  0.00     0.071 A 
HETATM    4  C4  UNL     1      77.055  26.969  38.762  1.00  0.00     0.025 A 
HETATM    5  C5  UNL     1      77.906  27.047  39.949  1.00  0.00     0.028 A 
ENDROOT
BRANCH   5   6
HETATM    6  C6  UNL     1      77.336  27.458  41.285  1.00  0.00     0.133 C 
BRANCH   6   7
HETATM    7  N1  UNL     1      76.320  28.456  41.124  1.00  0.00    -0.359 N 
HETATM    8  C7  UNL     1      76.521  29.598  40.555  1.00  0.00     0.197 C 
HETATM    9  N2  UNL     1      75.459  30.537  40.434  1.00  0.00    -0.067 NA
HETATM   10  N3  UNL     1      77.802  29.938  40.041  1.00  0.00    -0.067 NA
ATOM     11  H1  UNL     1      75.386  28.252  41.479  1.00  0.00     0.162 HD
ENDBRANCH   6   7
BRANCH   6  12
HETATM   12  C8  UNL     1      76.828  26.253  42.025  1.00  0.00     0.311 C 
HETATM   13  C9  UNL     1      77.890  25.790  42.958  1.00  0.00     0.094 C 
HETATM   14  N5  UNL     1      78.724  25.447  43.675  1.00  0.00    -0.195 NA
BRANCH  12  15
HETATM   15  N4  UNL     1      75.658  26.512  42.800  1.00  0.00    -0.061 N 
ATOM     16  H43 UNL     1      75.805  27.307  43.421  1.00  0.00     0.276 HD
ATOM     17  H42 UNL     1      74.914  26.889  42.214  1.00  0.00     0.276 HD
ATOM     18  H41 UNL     1      75.328  25.700  43.322  1.00  0.00     0.276 HD
ENDBRANCH  12  15
ENDBRANCH   6  12
ENDBRANCH   5   6
TORSDOF 4
ENDMDL
MODEL 5
REMARK VINA RESULT: -5.890813431      2.158      3.448
REMARK  4 active torsions:
REMARK  status: ('A' for Active; 'I' for Inactive)
REMARK    1  A    between atoms: C5_5  and  C6_6 
REMARK    2  A    between atoms: C6_6  and  N1_7 
REMARK    3  A    between atoms: C6_6  and  C8_12 
REMARK    4  A    between atoms: C8_12  and  N4_13 
ROOT
HETATM    1  C1  UNL     1      79.468  24.291  38.072  1.00  0.00     0.012 C 
HETATM    2  C2  UNL     1      78.541  24.867  38.595  1.00  0.00    -0.112 C 
HETATM    3  C3  UNL     1      77.406  25.578  39.212  1.00  0.00     0.071 A 
HETATM    4  C4  UNL     1      77.021  26.920  38.632  1.00  0.00     0.025 A 
HETATM    5  C5  UNL     1      77.667  26.868  39.943  1.00  0.00     0.028 A 
ENDROOT
BRANCH   5   6
HETATM    6  C6  UNL     1      76.885  27.147  41.204  1.00  0.00     0.133 C 
BRANCH   6   7
HETATM    7  N1  UNL     1      77.416  26.405  42.310  1.00  0.00    -0.359 N 
HETATM    8  C7  UNL     1      76.755  26.162  43.393  1.00  0.00     0.197 C 
HETATM    9  N2  UNL     1      77.353  25.417  44.447  1.00  0.00    -0.067 NA
HETATM   10  N3  UNL     1      75.423  26.632  43.552  1.00  0.00    -0.067 NA
ATOM     11  H1  UNL     1      78.369  26.049  42.237  1.00  0.00     0.162 HD
ENDBRANCH   6   7
BRANCH   6  12
HETATM   12  C8  UNL     1      76.855  28.623  41.480  1.00  0.00     0.311 C 
HETATM   13  C9  UNL     1      77.546  29.326  40.368  1.00  0.00     0.094 C 
HETATM   14  N5  UNL     1      78.084  29.853  39.496  1.00  0.00    -0.195 NA
BRANCH  12  15
HETATM   15  N4  UNL     1      75.535  29.158  41.574  1.00  0.00    -0.061 N 
ATOM     16  H43 UNL     1      75.060  28.804  42.404  1.00  0.00     0.276 HD
ATOM     17  H42 UNL     1      75.564  30.151  41.805  1.00  0.00     0.276 HD
ATOM     18  H41 UNL     1      74.971  28.999  40.739  1.00  0.00     0.276 HD
ENDBRANCH  12  15
ENDBRANCH   6  12
ENDBRANCH   5   6
TORSDOF 4
ENDMDL
