MODEL 1
REMARK VINA RESULT: -6.061923410      0.000      0.000
REMARK  3 active torsions:
REMARK  status: ('A' for Active; 'I' for Inactive)
REMARK       I    between atoms: C2_5  and  N4_7 
REMARK    1  A    between atoms: N4_7  and  C3_9 
REMARK    2  A    between atoms: C3_9  and  C4_10 
REMARK    3  A    between atoms: C4_10  and  N5_11 
ROOT
HETATM    1  N1  UNL     1      75.718  25.996  45.026  1.00  0.00    -0.172 NA
HETATM    2  C1  UNL     1      75.800  26.687  44.093  1.00  0.00     0.184 C 
HETATM    3  N2  UNL     1      75.869  27.532  42.969  1.00  0.00    -0.268 N 
ATOM      4  H2  UNL     1      75.101  28.181  42.798  1.00  0.00     0.180 HD
HETATM    5  C2  UNL     1      76.852  27.522  42.153  1.00  0.00     0.197 C 
HETATM    6  N3  UNL     1      77.940  26.663  42.320  1.00  0.00    -0.063 NA
HETATM    7  N4  UNL     1      76.782  28.429  41.069  1.00  0.00    -0.362 N 
ATOM      8  H4  UNL     1      75.877  28.810  40.793  1.00  0.00     0.162 HD
ENDROOT
BRANCH   7   9
HETATM    9  C3  UNL     1      77.976  28.828  40.342  1.00  0.00     0.152 C 
BRANCH   9  10
HETATM   10  C4  UNL     1      77.634  28.835  38.872  1.00  0.00     0.292 C 
BRANCH  10  11
HETATM   11  N5  UNL     1      77.964  27.565  38.255  1.00  0.00     0.093 N 
HETATM   12  C5  UNL     1      76.906  26.590  38.481  1.00  0.00     0.300 C 
HETATM   13  C6  UNL     1      77.285  25.390  39.241  1.00  0.00     0.262 C 
HETATM   14  N6  UNL     1      78.549  24.797  38.896  1.00  0.00    -0.072 N 
HETATM   15  C7  UNL     1      79.346  25.640  38.031  1.00  0.00     0.262 C 
ATOM     16  H62 UNL     1      79.071  24.536  39.732  1.00  0.00     0.277 HD
ATOM     17  H61 UNL     1      78.419  23.872  38.486  1.00  0.00     0.277 HD
HETATM   18  C8  UNL     1      79.256  27.058  38.611  1.00  0.00     0.300 C 
ENDBRANCH  10  11
ENDBRANCH   9  10
ENDBRANCH   7   9
TORSDOF 3
ENDMDL
MODEL 2
REMARK VINA RESULT: -5.567441798      1.411      4.844
REMARK  3 active torsions:
REMARK  status: ('A' for Active; 'I' for Inactive)
REMARK       I    between atoms: C2_5  and  N4_7 
REMARK    1  A    between atoms: N4_7  and  C3_9 
REMARK    2  A    between atoms: C3_9  and  C4_10 
REMARK    3  A    between atoms: C4_10  and  N5_11 
ROOT
HETATM    1  N1  UNL     1      79.740  24.108  37.773  1.00  0.00    -0.172 NA
HETATM    2  C1  UNL     1      78.888  24.739  38.251  1.00  0.00     0.184 C 
HETATM    3  N2  UNL     1      77.838  25.477  38.832  1.00  0.00    -0.268 N 
ATOM      4  H2  UNL     1      77.041  24.970  39.217  1.00  0.00     0.180 HD
HETATM    5  C2  UNL     1      77.840  26.752  38.898  1.00  0.00     0.197 C 
HETATM    6  N3  UNL     1      78.896  27.515  38.394  1.00  0.00    -0.063 NA
HETATM    7  N4  UNL     1      76.716  27.355  39.511  1.00  0.00    -0.362 N 
ATOM      8  H4  UNL     1      75.845  26.829  39.586  1.00  0.00     0.162 HD
ENDROOT
BRANCH   7   9
HETATM    9  C3  UNL     1      76.778  28.709  40.035  1.00  0.00     0.152 C 
BRANCH   9  10
HETATM   10  C4  UNL     1      76.802  28.614  41.541  1.00  0.00     0.292 C 
BRANCH  10  11
HETATM   11  N5  UNL     1      76.726  27.234  41.978  1.00  0.00     0.093 N 
HETATM   12  C5  UNL     1      75.698  27.071  42.996  1.00  0.00     0.300 C 
HETATM   13  C6  UNL     1      76.160  26.608  44.314  1.00  0.00     0.262 C 
HETATM   14  N6  UNL     1      77.132  25.548  44.304  1.00  0.00    -0.072 N 
HETATM   15  C7  UNL     1      77.676  25.299  42.987  1.00  0.00     0.262 C 
ATOM     16  H62 UNL     1      77.876  25.729  44.978  1.00  0.00     0.277 HD
ATOM     17  H61 UNL     1      76.747  24.694  44.708  1.00  0.00     0.277 HD
HETATM   18  C8  UNL     1      77.982  26.675  42.380  1.00  0.00     0.300 C 
ENDBRANCH  10  11
ENDBRANCH   9  10
ENDBRANCH   7   9
TORSDOF 3
ENDMDL
MODEL 3
REMARK VINA RESULT: -5.513426255      1.359      2.842
REMARK  3 active torsions:
REMARK  status: ('A' for Active; 'I' for Inactive)
REMARK       I    between atoms: C2_5  and  N4_7 
REMARK    1  A    between atoms: N4_7  and  C3_9 
REMARK    2  A    between atoms: C3_9  and  C4_10 
REMARK    3  A    between atoms: C4_10  and  N5_11 
ROOT
HETATM    1  N1  UNL     1      75.811  26.782  45.413  1.00  0.00    -0.172 NA
HETATM    2  C1  UNL     1      75.880  26.422  44.309  1.00  0.00     0.184 C 
HETATM    3  N2  UNL     1      75.930  25.985  42.971  1.00  0.00    -0.268 N 
ATOM      4  H2  UNL     1      75.070  25.986  42.424  1.00  0.00     0.180 HD
HETATM    5  C2  UNL     1      77.007  25.588  42.412  1.00  0.00     0.197 C 
HETATM    6  N3  UNL     1      78.226  25.559  43.094  1.00  0.00    -0.063 NA
HETATM    7  N4  UNL     1      76.904  25.180  41.061  1.00  0.00    -0.362 N 
ATOM      8  H4  UNL     1      75.993  24.916  40.686  1.00  0.00     0.162 HD
ENDROOT
BRANCH   7   9
HETATM    9  C3  UNL     1      78.072  25.128  40.197  1.00  0.00     0.152 C 
BRANCH   9  10
HETATM   10  C4  UNL     1      77.638  25.562  38.818  1.00  0.00     0.292 C 
BRANCH  10  11
HETATM   11  N5  UNL     1      77.837  26.986  38.633  1.00  0.00     0.093 N 
HETATM   12  C5  UNL     1      79.042  27.432  39.319  1.00  0.00     0.300 C 
HETATM   13  C6  UNL     1      78.848  28.426  40.385  1.00  0.00     0.262 C 
HETATM   14  N6  UNL     1      77.924  29.489  40.096  1.00  0.00    -0.072 N 
HETATM   15  C7  UNL     1      77.152  29.250  38.896  1.00  0.00     0.262 C 
ATOM     16  H62 UNL     1      77.313  29.670  40.893  1.00  0.00     0.277 HD
ATOM     17  H61 UNL     1      78.404  30.388  40.049  1.00  0.00     0.277 HD
HETATM   18  C8  UNL     1      76.696  27.786  38.963  1.00  0.00     0.300 C 
ENDBRANCH  10  11
ENDBRANCH   9  10
ENDBRANCH   7   9
TORSDOF 3
ENDMDL
MODEL 4
REMARK VINA RESULT: -5.461936126      0.966      1.514
REMARK  3 active torsions:
REMARK  status: ('A' for Active; 'I' for Inactive)
REMARK       I    between atoms: C2_5  and  N4_7 
REMARK    1  A    between atoms: N4_7  and  C3_9 
REMARK    2  A    between atoms: C3_9  and  C4_10 
REMARK    3  A    between atoms: C4_10  and  N5_11 
ROOT
HETATM    1  N1  UNL     1      76.361  25.585  45.105  1.00  0.00    -0.172 NA
HETATM    2  C1  UNL     1      76.050  26.358  44.293  1.00  0.00     0.184 C 
HETATM    3  N2  UNL     1      75.644  27.294  43.322  1.00  0.00    -0.268 N 
ATOM      4  H2  UNL     1      74.719  27.716  43.408  1.00  0.00     0.180 HD
HETATM    5  C2  UNL     1      76.382  27.636  42.338  1.00  0.00     0.197 C 
HETATM    6  N3  UNL     1      77.660  27.103  42.153  1.00  0.00    -0.063 NA
HETATM    7  N4  UNL     1      75.839  28.588  41.443  1.00  0.00    -0.362 N 
ATOM      8  H4  UNL     1      74.829  28.726  41.411  1.00  0.00     0.162 HD
ENDROOT
BRANCH   7   9
HETATM    9  C3  UNL     1      76.693  29.373  40.567  1.00  0.00     0.152 C 
BRANCH   9  10
HETATM   10  C4  UNL     1      76.824  28.621  39.264  1.00  0.00     0.292 C 
BRANCH  10  11
HETATM   11  N5  UNL     1      77.691  27.469  39.412  1.00  0.00     0.093 N 
HETATM   12  C5  UNL     1      79.049  27.788  38.996  1.00  0.00     0.300 C 
HETATM   13  C6  UNL     1      79.576  27.015  37.861  1.00  0.00     0.262 C 
HETATM   14  N6  UNL     1      79.295  25.605  37.873  1.00  0.00    -0.072 N 
HETATM   15  C7  UNL     1      78.319  25.237  38.877  1.00  0.00     0.262 C 
ATOM     16  H62 UNL     1      79.009  25.281  36.950  1.00  0.00     0.277 HD
ATOM     17  H61 UNL     1      80.152  25.062  37.980  1.00  0.00     0.277 HD
HETATM   18  C8  UNL     1      77.196  26.279  38.787  1.00  0.00     0.300 C 
ENDBRANCH  10  11
ENDBRANCH   9  10
ENDBRANCH   7   9
TORSDOF 3
ENDMDL
MODEL 5
REMARK VINA RESULT: -5.409909646      1.611      2.896
REMARK  3 active torsions:
REMARK  status: ('A' for Active; 'I' for Inactive)
REMARK       I    between atoms: C2_5  and  N4_7 
REMARK    1  A    between atoms: N4_7  and  C3_9 
REMARK    2  A    between atoms: C3_9  and  C4_10 
REMARK    3  A    between atoms: C4_10  and  N5_11 
ROOT
HETATM    1  N1  UNL     1      75.730  26.927  45.553  1.00  0.00    -0.172 NA
HETATM    2  C1  UNL     1      75.896  26.447  44.506  1.00  0.00     0.184 C 
HETATM    3  N2  UNL     1      76.064  25.867  43.233  1.00  0.00    -0.268 N 
ATOM      4  H2  UNL     1      75.261  25.825  42.606  1.00  0.00     0.180 HD
HETATM    5  C2  UNL     1      77.179  25.393  42.830  1.00  0.00     0.197 C 
HETATM    6  N3  UNL     1      78.324  25.416  43.631  1.00  0.00    -0.063 NA
HETATM    7  N4  UNL     1      77.197  24.842  41.527  1.00  0.00    -0.362 N 
ATOM      8  H4  UNL     1      76.319  24.556  41.092  1.00  0.00     0.162 HD
ENDROOT
BRANCH   7   9
HETATM    9  C3  UNL     1      78.441  24.676  40.795  1.00  0.00     0.152 C 
BRANCH   9  10
HETATM   10  C4  UNL     1      78.290  25.385  39.471  1.00  0.00     0.292 C 
BRANCH  10  11
HETATM   11  N5  UNL     1      77.642  26.671  39.639  1.00  0.00     0.093 N 
HETATM   12  C5  UNL     1      77.271  27.234  38.349  1.00  0.00     0.300 C 
HETATM   13  C6  UNL     1      77.902  28.515  37.996  1.00  0.00     0.262 C 
HETATM   14  N6  UNL     1      77.978  29.491  39.049  1.00  0.00    -0.072 N 
HETATM   15  C7  UNL     1      77.648  28.943  40.347  1.00  0.00     0.262 C 
ATOM     16  H62 UNL     1      78.894  29.941  39.066  1.00  0.00     0.277 HD
ATOM     17  H61 UNL     1      77.399  30.304  38.837  1.00  0.00     0.277 HD
HETATM   18  C8  UNL     1      78.380  27.598  40.444  1.00  0.00     0.300 C 
ENDBRANCH  10  11
ENDBRANCH   9  10
ENDBRANCH   7   9
TORSDOF 3
ENDMDL
