MODEL 1
REMARK VINA RESULT: -8.253037308      0.000      0.000
REMARK  3 active torsions:
REMARK  status: ('A' for Active; 'I' for Inactive)
REMARK    1  A    between atoms: N1_2  and  C2_3 
REMARK    2  A    between atoms: N1_2  and  C9_22 
REMARK    3  A    between atoms: C3_8  and  C4_9 
ROOT
HETATM    1  C2  UNL     1      17.688  22.768  45.686  1.00  0.00     0.157 A 
HETATM    2  N2  UNL     1      18.548  23.716  46.061  1.00  0.00    -0.281 N 
ATOM      3  H2  UNL     1      18.193  24.576  46.478  1.00  0.00     0.188 HD
HETATM    4  N3  UNL     1      19.842  23.563  45.904  1.00  0.00    -0.284 N 
ATOM      5  H3  UNL     1      20.460  24.315  46.207  1.00  0.00     0.188 HD
HETATM    6  C3  UNL     1      20.402  22.444  45.355  1.00  0.00     0.122 A 
HETATM    7  N5  UNL     1      19.520  21.503  44.984  1.00  0.00    -0.329 N 
ATOM      8  H5  UNL     1      19.892  20.649  44.570  1.00  0.00     0.168 HD
HETATM    9  C8  UNL     1      18.191  21.595  45.115  1.00  0.00     0.147 A 
HETATM   10  S2  UNL     1      17.183  20.409  44.640  1.00  0.00    -0.056 SA
ENDROOT
BRANCH   6  11
HETATM   11  C4  UNL     1      21.839  22.349  45.225  1.00  0.00     0.074 C 
HETATM   12  C5  UNL     1      22.647  21.936  46.185  1.00  0.00     0.081 A 
HETATM   13  S1  UNL     1      22.192  21.403  47.844  1.00  0.00    -0.024 SA
HETATM   14  C7  UNL     1      24.090  21.806  46.154  1.00  0.00     0.266 A 
HETATM   15  C6  UNL     1      23.856  21.186  48.440  1.00  0.00     0.291 A 
HETATM   16  O1  UNL     1      24.154  20.891  49.611  1.00  0.00    -0.260 OA
HETATM   17  N4  UNL     1      24.692  21.415  47.342  1.00  0.00    -0.283 N 
ATOM     18  H4  UNL     1      25.703  21.299  47.410  1.00  0.00     0.172 HD
HETATM   19  O2  UNL     1      24.715  22.055  45.054  1.00  0.00    -0.267 OA
ENDBRANCH   6  11
BRANCH   1  20
HETATM   20  N1  UNL     1      16.304  22.956  45.884  1.00  0.00    -0.363 N 
HETATM   21  C1  UNL     1      15.786  23.266  47.202  1.00  0.00     0.152 C 
BRANCH  20  22
HETATM   22  C9  UNL     1      15.376  22.833  44.803  1.00  0.00     0.085 C 
HETATM   23  C10 UNL     1      15.780  23.654  43.610  1.00  0.00     0.025 C 
HETATM   24  C11 UNL     1      14.848  23.324  42.444  1.00  0.00     0.002 C 
HETATM   25  C12 UNL     1      13.407  23.614  42.846  1.00  0.00     0.000 C 
HETATM   26  C13 UNL     1      13.036  22.820  44.078  1.00  0.00     0.002 C 
HETATM   27  C14 UNL     1      13.954  23.244  45.200  1.00  0.00     0.025 C 
ENDBRANCH  20  22
ENDBRANCH   1  20
TORSDOF 3
ENDMDL
MODEL 2
REMARK VINA RESULT: -8.239778902      3.955      8.243
REMARK  3 active torsions:
REMARK  status: ('A' for Active; 'I' for Inactive)
REMARK    1  A    between atoms: N1_2  and  C2_3 
REMARK    2  A    between atoms: N1_2  and  C9_22 
REMARK    3  A    between atoms: C3_8  and  C4_9 
ROOT
HETATM    1  C2  UNL     1      22.569  23.999  47.527  1.00  0.00     0.157 A 
HETATM    2  N2  UNL     1      21.736  24.867  46.953  1.00  0.00    -0.281 N 
ATOM      3  H2  UNL     1      21.816  25.859  47.175  1.00  0.00     0.188 HD
HETATM    4  N3  UNL     1      20.815  24.470  46.106  1.00  0.00    -0.284 N 
ATOM      5  H3  UNL     1      20.202  25.172  45.692  1.00  0.00     0.188 HD
HETATM    6  C3  UNL     1      20.638  23.162  45.752  1.00  0.00     0.122 A 
HETATM    7  N5  UNL     1      21.486  22.305  46.341  1.00  0.00    -0.329 N 
ATOM      8  H5  UNL     1      21.392  21.318  46.106  1.00  0.00     0.168 HD
HETATM    9  C8  UNL     1      22.445  22.642  47.211  1.00  0.00     0.147 A 
HETATM   10  S2  UNL     1      23.437  21.543  47.886  1.00  0.00    -0.056 SA
ENDROOT
BRANCH   6  11
HETATM   11  C4  UNL     1      19.605  22.808  44.804  1.00  0.00     0.074 C 
HETATM   12  C5  UNL     1      18.316  22.770  45.090  1.00  0.00     0.081 A 
HETATM   13  S1  UNL     1      17.534  23.132  46.671  1.00  0.00    -0.024 SA
HETATM   14  C7  UNL     1      17.210  22.430  44.216  1.00  0.00     0.266 A 
HETATM   15  C6  UNL     1      15.881  22.695  46.173  1.00  0.00     0.291 A 
HETATM   16  O1  UNL     1      14.896  22.676  46.933  1.00  0.00    -0.260 OA
HETATM   17  N4  UNL     1      15.955  22.399  44.807  1.00  0.00    -0.283 N 
ATOM     18  H4  UNL     1      15.120  22.168  44.268  1.00  0.00     0.172 HD
HETATM   19  O2  UNL     1      17.449  22.183  42.973  1.00  0.00    -0.267 OA
ENDBRANCH   6  11
BRANCH   1  20
HETATM   20  N1  UNL     1      23.560  24.459  48.419  1.00  0.00    -0.363 N 
HETATM   21  C1  UNL     1      24.869  24.844  47.929  1.00  0.00     0.152 C 
BRANCH  20  22
HETATM   22  C9  UNL     1      23.311  24.547  49.825  1.00  0.00     0.085 C 
HETATM   23  C10 UNL     1      23.256  25.971  50.305  1.00  0.00     0.025 C 
HETATM   24  C11 UNL     1      22.804  25.984  51.764  1.00  0.00     0.002 C 
HETATM   25  C12 UNL     1      23.771  25.158  52.606  1.00  0.00     0.000 C 
HETATM   26  C13 UNL     1      23.852  23.744  52.075  1.00  0.00     0.002 C 
HETATM   27  C14 UNL     1      24.365  23.808  50.656  1.00  0.00     0.025 C 
ENDBRANCH  20  22
ENDBRANCH   1  20
TORSDOF 3
ENDMDL
MODEL 3
REMARK VINA RESULT: -7.950589868      2.347      3.349
REMARK  3 active torsions:
REMARK  status: ('A' for Active; 'I' for Inactive)
REMARK    1  A    between atoms: N1_2  and  C2_3 
REMARK    2  A    between atoms: N1_2  and  C9_22 
REMARK    3  A    between atoms: C3_8  and  C4_9 
ROOT
HETATM    1  C2  UNL     1      16.968  23.349  42.856  1.00  0.00     0.157 A 
HETATM    2  N2  UNL     1      16.858  23.541  44.171  1.00  0.00    -0.281 N 
ATOM      3  H2  UNL     1      16.020  23.989  44.543  1.00  0.00     0.188 HD
HETATM    4  N3  UNL     1      17.806  23.164  44.997  1.00  0.00    -0.284 N 
ATOM      5  H3  UNL     1      17.676  23.331  45.995  1.00  0.00     0.188 HD
HETATM    6  C3  UNL     1      18.959  22.557  44.585  1.00  0.00     0.122 A 
HETATM    7  N5  UNL     1      19.050  22.374  43.259  1.00  0.00    -0.329 N 
ATOM      8  H5  UNL     1      19.893  21.923  42.905  1.00  0.00     0.168 HD
HETATM    9  C8  UNL     1      18.123  22.734  42.363  1.00  0.00     0.147 A 
HETATM   10  S2  UNL     1      18.305  22.478  40.767  1.00  0.00    -0.056 SA
ENDROOT
BRANCH   6  11
HETATM   11  C4  UNL     1      19.951  22.164  45.560  1.00  0.00     0.074 C 
HETATM   12  C5  UNL     1      21.228  22.498  45.498  1.00  0.00     0.081 A 
HETATM   13  S1  UNL     1      22.039  23.491  44.234  1.00  0.00    -0.024 SA
HETATM   14  C7  UNL     1      22.294  22.157  46.419  1.00  0.00     0.266 A 
HETATM   15  C6  UNL     1      23.693  23.295  44.866  1.00  0.00     0.291 A 
HETATM   16  O1  UNL     1      24.718  23.726  44.308  1.00  0.00    -0.260 OA
HETATM   17  N4  UNL     1      23.565  22.584  46.064  1.00  0.00    -0.283 N 
ATOM     18  H4  UNL     1      24.375  22.387  46.654  1.00  0.00     0.172 HD
HETATM   19  O2  UNL     1      22.007  21.493  47.487  1.00  0.00    -0.267 OA
ENDBRANCH   6  11
BRANCH   1  20
HETATM   20  N1  UNL     1      15.923  23.750  41.997  1.00  0.00    -0.363 N 
HETATM   21  C1  UNL     1      16.012  24.996  41.262  1.00  0.00     0.152 C 
BRANCH  20  22
HETATM   22  C9  UNL     1      14.747  22.952  41.837  1.00  0.00     0.085 C 
HETATM   23  C10 UNL     1      14.353  22.801  40.394  1.00  0.00     0.025 C 
HETATM   24  C11 UNL     1      13.210  21.792  40.295  1.00  0.00     0.002 C 
HETATM   25  C12 UNL     1      12.033  22.270  41.137  1.00  0.00     0.000 C 
HETATM   26  C13 UNL     1      12.462  22.467  42.574  1.00  0.00     0.002 C 
HETATM   27  C14 UNL     1      13.544  23.520  42.599  1.00  0.00     0.025 C 
ENDBRANCH  20  22
ENDBRANCH   1  20
TORSDOF 3
ENDMDL
MODEL 4
REMARK VINA RESULT: -7.877070124      2.422      3.450
REMARK  3 active torsions:
REMARK  status: ('A' for Active; 'I' for Inactive)
REMARK    1  A    between atoms: N1_2  and  C2_3 
REMARK    2  A    between atoms: N1_2  and  C9_22 
REMARK    3  A    between atoms: C3_8  and  C4_9 
ROOT
HETATM    1  C2  UNL     1      16.227  22.787  43.563  1.00  0.00     0.157 A 
HETATM    2  N2  UNL     1      17.344  22.394  42.949  1.00  0.00    -0.281 N 
ATOM      3  H2  UNL     1      17.368  22.357  41.930  1.00  0.00     0.188 HD
HETATM    4  N3  UNL     1      18.413  22.053  43.631  1.00  0.00    -0.284 N 
ATOM      5  H3  UNL     1      19.243  21.760  43.116  1.00  0.00     0.188 HD
HETATM    6  C3  UNL     1      18.468  22.073  44.996  1.00  0.00     0.122 A 
HETATM    7  N5  UNL     1      17.334  22.471  45.594  1.00  0.00    -0.329 N 
ATOM      8  H5  UNL     1      17.329  22.502  46.613  1.00  0.00     0.168 HD
HETATM    9  C8  UNL     1      16.211  22.830  44.961  1.00  0.00     0.147 A 
HETATM   10  S2  UNL     1      14.873  23.302  45.757  1.00  0.00    -0.056 SA
ENDROOT
BRANCH   6  11
HETATM   11  C4  UNL     1      19.687  21.691  45.671  1.00  0.00     0.074 C 
HETATM   12  C5  UNL     1      20.873  22.218  45.421  1.00  0.00     0.081 A 
HETATM   13  S1  UNL     1      21.268  23.501  44.221  1.00  0.00    -0.024 SA
HETATM   14  C7  UNL     1      22.146  21.906  46.039  1.00  0.00     0.266 A 
HETATM   15  C6  UNL     1      23.031  23.463  44.472  1.00  0.00     0.291 A 
HETATM   16  O1  UNL     1      23.853  24.122  43.811  1.00  0.00    -0.260 OA
HETATM   17  N4  UNL     1      23.251  22.568  45.525  1.00  0.00    -0.283 N 
ATOM     18  H4  UNL     1      24.187  22.408  45.899  1.00  0.00     0.172 HD
HETATM   19  O2  UNL     1      22.177  21.053  47.007  1.00  0.00    -0.267 OA
ENDBRANCH   6  11
BRANCH   1  20
HETATM   20  N1  UNL     1      15.101  23.164  42.802  1.00  0.00    -0.363 N 
HETATM   21  C1  UNL     1      14.655  24.543  42.783  1.00  0.00     0.152 C 
BRANCH  20  22
HETATM   22  C9  UNL     1      14.363  22.202  42.042  1.00  0.00     0.085 C 
HETATM   23  C10 UNL     1      14.156  22.639  40.618  1.00  0.00     0.025 C 
HETATM   24  C11 UNL     1      13.531  21.488  39.834  1.00  0.00     0.002 C 
HETATM   25  C12 UNL     1      12.210  21.086  40.481  1.00  0.00     0.000 C 
HETATM   26  C13 UNL     1      12.431  20.701  41.927  1.00  0.00     0.002 C 
HETATM   27  C14 UNL     1      12.988  21.904  42.650  1.00  0.00     0.025 C 
ENDBRANCH  20  22
ENDBRANCH   1  20
TORSDOF 3
ENDMDL
MODEL 5
REMARK VINA RESULT: -7.855468880      2.439      3.060
REMARK  3 active torsions:
REMARK  status: ('A' for Active; 'I' for Inactive)
REMARK    1  A    between atoms: N1_2  and  C2_3 
REMARK    2  A    between atoms: N1_2  and  C9_22 
REMARK    3  A    between atoms: C3_8  and  C4_9 
ROOT
HETATM    1  C2  UNL     1      16.535  22.715  43.537  1.00  0.00     0.157 A 
HETATM    2  N2  UNL     1      16.623  21.965  44.636  1.00  0.00    -0.281 N 
ATOM      3  H2  UNL     1      15.771  21.691  45.124  1.00  0.00     0.188 HD
HETATM    4  N3  UNL     1      17.786  21.573  45.103  1.00  0.00    -0.284 N 
ATOM      5  H3  UNL     1      17.802  21.000  45.947  1.00  0.00     0.188 HD
HETATM    6  C3  UNL     1      18.976  21.894  44.513  1.00  0.00     0.122 A 
HETATM    7  N5  UNL     1      18.865  22.649  43.409  1.00  0.00    -0.329 N 
ATOM      8  H5  UNL     1      19.728  22.912  42.934  1.00  0.00     0.168 HD
HETATM    9  C8  UNL     1      17.715  23.083  42.881  1.00  0.00     0.147 A 
HETATM   10  S2  UNL     1      17.661  23.996  41.535  1.00  0.00    -0.056 SA
ENDROOT
BRANCH   6  11
HETATM   11  C4  UNL     1      20.214  21.415  45.085  1.00  0.00     0.074 C 
HETATM   12  C5  UNL     1      21.066  22.170  45.755  1.00  0.00     0.081 A 
HETATM   13  S1  UNL     1      20.917  23.928  46.118  1.00  0.00    -0.024 SA
HETATM   14  C7  UNL     1      22.324  21.787  46.364  1.00  0.00     0.266 A 
HETATM   15  C6  UNL     1      22.514  24.101  46.888  1.00  0.00     0.291 A 
HETATM   16  O1  UNL     1      22.998  25.179  47.277  1.00  0.00    -0.260 OA
HETATM   17  N4  UNL     1      23.056  22.812  46.945  1.00  0.00    -0.283 N 
ATOM     18  H4  UNL     1      23.954  22.633  47.396  1.00  0.00     0.172 HD
HETATM   19  O2  UNL     1      22.681  20.548  46.331  1.00  0.00    -0.267 OA
ENDBRANCH   6  11
BRANCH   1  20
HETATM   20  N1  UNL     1      15.270  23.105  43.051  1.00  0.00    -0.363 N 
HETATM   21  C1  UNL     1      14.703  24.386  43.421  1.00  0.00     0.152 C 
BRANCH  20  22
HETATM   22  C9  UNL     1      14.508  22.248  42.195  1.00  0.00     0.085 C 
HETATM   23  C10 UNL     1      14.319  22.836  40.824  1.00  0.00     0.025 C 
HETATM   24  C11 UNL     1      13.663  21.790  39.924  1.00  0.00     0.002 C 
HETATM   25  C12 UNL     1      12.330  21.362  40.525  1.00  0.00     0.000 C 
HETATM   26  C13 UNL     1      12.533  20.824  41.924  1.00  0.00     0.002 C 
HETATM   27  C14 UNL     1      13.122  21.930  42.768  1.00  0.00     0.025 C 
ENDBRANCH  20  22
ENDBRANCH   1  20
TORSDOF 3
ENDMDL
