MODEL 1
REMARK VINA RESULT: -7.884815259      0.000      0.000
REMARK  3 active torsions:
REMARK  status: ('A' for Active; 'I' for Inactive)
REMARK    1  A    between atoms: C2_2  and  C3_3 
REMARK    2  A    between atoms: C4_8  and  C5_9 
REMARK    3  A    between atoms: C10_15  and  C11_16 
ROOT
HETATM    1  C5  UNL     1      14.616  23.316  40.735  1.00  0.00     0.107 C 
HETATM    2  C6  UNL     1      14.542  22.354  39.590  1.00  0.00    -0.053 C 
HETATM    3  C7  UNL     1      13.512  21.306  39.711  1.00  0.00     0.045 C 
HETATM    4  C8  UNL     1      15.308  22.393  38.527  1.00  0.00     0.037 C 
HETATM    5  C9  UNL     1      15.038  21.351  37.562  1.00  0.00     0.096 C 
HETATM    6  N3  UNL     1      14.839  20.509  36.760  1.00  0.00    -0.192 NA
HETATM    7  C10 UNL     1      16.407  23.317  38.122  1.00  0.00     0.110 C 
HETATM    8  C15 UNL     1      17.126  23.997  39.212  1.00  0.00     0.154 C 
HETATM    9  C16 UNL     1      16.825  25.441  39.298  1.00  0.00     0.071 C 
HETATM   10  N4  UNL     1      16.603  26.584  39.387  1.00  0.00    -0.196 NA
HETATM   11  C17 UNL     1      17.043  23.389  40.538  1.00  0.00     0.018 C 
HETATM   12  N5  UNL     1      18.161  23.105  41.078  1.00  0.00    -0.403 N 
ATOM     13  H51 UNL     1      18.103  22.680  42.004  1.00  0.00     0.155 HD
ATOM     14  H52 UNL     1      18.931  23.363  40.461  1.00  0.00     0.155 HD
HETATM   15  C18 UNL     1      15.915  23.010  41.442  1.00  0.00     0.154 C 
HETATM   16  C19 UNL     1      16.017  23.603  42.749  1.00  0.00     0.071 C 
HETATM   17  N6  UNL     1      16.083  24.075  43.788  1.00  0.00    -0.196 NA
ENDROOT
BRANCH   7  18
HETATM   18  C11 UNL     1      15.911  24.286  37.124  1.00  0.00     0.063 A 
HETATM   19  C12 UNL     1      14.664  24.886  37.078  1.00  0.00     0.035 A 
HETATM   20  C13 UNL     1      14.662  25.710  35.971  1.00  0.00     0.027 A 
HETATM   21  C14 UNL     1      15.915  25.579  35.380  1.00  0.00     0.142 A 
HETATM   22  O1  UNL     1      16.600  24.730  36.104  1.00  0.00    -0.326 OA
ENDBRANCH   7  18
BRANCH   1  23
HETATM   23  C4  UNL     1      13.448  23.216  41.615  1.00  0.00     0.107 A 
HETATM   24  N2  UNL     1      12.176  23.333  41.236  1.00  0.00    -0.287 N 
HETATM   25  N1  UNL     1      11.433  23.187  42.318  1.00  0.00    -0.288 N 
ATOM     26  H2  UNL     1      11.839  23.502  40.288  1.00  0.00     0.188 HD
HETATM   27  C3  UNL     1      12.223  22.979  43.376  1.00  0.00     0.096 A 
ATOM     28  H1  UNL     1      10.415  23.226  42.343  1.00  0.00     0.188 HD
HETATM   29  N7  UNL     1      13.480  22.998  42.927  1.00  0.00    -0.333 N 
ATOM     30  H7  UNL     1      14.319  22.868  43.493  1.00  0.00     0.168 HD
BRANCH  27  31
HETATM   31  C2  UNL     1      11.866  22.759  44.801  1.00  0.00     0.073 C 
HETATM   32  C1  UNL     1      12.962  23.271  45.724  1.00  0.00     0.013 C 
ENDBRANCH  27  31
ENDBRANCH   1  23
TORSDOF 3
ENDMDL
MODEL 2
REMARK VINA RESULT: -7.618041834      2.839      6.112
REMARK  3 active torsions:
REMARK  status: ('A' for Active; 'I' for Inactive)
REMARK    1  A    between atoms: C2_2  and  C3_3 
REMARK    2  A    between atoms: C4_8  and  C5_9 
REMARK    3  A    between atoms: C10_15  and  C11_16 
ROOT
HETATM    1  C5  UNL     1      14.477  22.410  41.076  1.00  0.00     0.107 C 
HETATM    2  C6  UNL     1      13.967  22.678  42.457  1.00  0.00    -0.053 C 
HETATM    3  C7  UNL     1      12.552  22.331  42.686  1.00  0.00     0.045 C 
HETATM    4  C8  UNL     1      14.680  23.178  43.436  1.00  0.00     0.037 C 
HETATM    5  C9  UNL     1      13.954  23.340  44.676  1.00  0.00     0.096 C 
HETATM    6  N3  UNL     1      13.384  23.485  45.699  1.00  0.00    -0.192 NA
HETATM    7  C10 UNL     1      16.106  23.609  43.513  1.00  0.00     0.110 C 
HETATM    8  C15 UNL     1      16.733  24.029  42.249  1.00  0.00     0.154 C 
HETATM    9  C16 UNL     1      17.731  23.063  41.745  1.00  0.00     0.071 C 
HETATM   10  N4  UNL     1      18.524  22.316  41.325  1.00  0.00    -0.196 NA
HETATM   11  C17 UNL     1      15.836  24.430  41.169  1.00  0.00     0.018 C 
HETATM   12  N5  UNL     1      16.031  25.601  40.705  1.00  0.00    -0.403 N 
ATOM     13  H51 UNL     1      15.405  25.882  39.951  1.00  0.00     0.155 HD
ATOM     14  H52 UNL     1      16.804  26.052  41.194  1.00  0.00     0.155 HD
HETATM   15  C18 UNL     1      14.703  23.768  40.453  1.00  0.00     0.154 C 
HETATM   16  C19 UNL     1      14.884  23.729  39.027  1.00  0.00     0.071 C 
HETATM   17  N6  UNL     1      15.021  23.685  37.892  1.00  0.00    -0.196 NA
ENDROOT
BRANCH   7  18
HETATM   18  C11 UNL     1      16.911  22.573  44.191  1.00  0.00     0.063 A 
HETATM   19  C12 UNL     1      16.683  21.207  44.212  1.00  0.00     0.035 A 
HETATM   20  C13 UNL     1      17.693  20.649  44.968  1.00  0.00     0.027 A 
HETATM   21  C14 UNL     1      18.503  21.702  45.384  1.00  0.00     0.142 A 
HETATM   22  O1  UNL     1      17.990  22.803  44.895  1.00  0.00    -0.326 OA
ENDBRANCH   7  18
BRANCH   1  23
HETATM   23  C4  UNL     1      13.559  21.571  40.301  1.00  0.00     0.107 A 
HETATM   24  N2  UNL     1      12.298  21.289  40.629  1.00  0.00    -0.287 N 
HETATM   25  N1  UNL     1      11.816  20.505  39.682  1.00  0.00    -0.288 N 
ATOM     26  H2  UNL     1      11.799  21.618  41.456  1.00  0.00     0.188 HD
HETATM   27  C3  UNL     1      12.759  20.290  38.759  1.00  0.00     0.096 A 
ATOM     28  H1  UNL     1      10.871  20.123  39.658  1.00  0.00     0.188 HD
HETATM   29  N7  UNL     1      13.844  20.961  39.153  1.00  0.00    -0.333 N 
ATOM     30  H7  UNL     1      14.736  20.998  38.660  1.00  0.00     0.168 HD
BRANCH  27  31
HETATM   31  C2  UNL     1      12.703  19.484  37.512  1.00  0.00     0.073 C 
HETATM   32  C1  UNL     1      11.267  19.129  37.156  1.00  0.00     0.013 C 
ENDBRANCH  27  31
ENDBRANCH   1  23
TORSDOF 3
ENDMDL
MODEL 3
REMARK VINA RESULT: -7.178014104      2.385      6.119
REMARK  3 active torsions:
REMARK  status: ('A' for Active; 'I' for Inactive)
REMARK    1  A    between atoms: C2_2  and  C3_3 
REMARK    2  A    between atoms: C4_8  and  C5_9 
REMARK    3  A    between atoms: C10_15  and  C11_16 
ROOT
HETATM    1  C5  UNL     1      15.971  22.827  39.211  1.00  0.00     0.107 C 
HETATM    2  C6  UNL     1      14.731  22.698  40.041  1.00  0.00    -0.053 C 
HETATM    3  C7  UNL     1      13.670  21.852  39.464  1.00  0.00     0.045 C 
HETATM    4  C8  UNL     1      14.547  23.269  41.206  1.00  0.00     0.037 C 
HETATM    5  C9  UNL     1      13.262  22.988  41.807  1.00  0.00     0.096 C 
HETATM    6  N3  UNL     1      12.220  22.776  42.317  1.00  0.00    -0.192 NA
HETATM    7  C10 UNL     1      15.418  24.152  42.034  1.00  0.00     0.110 C 
HETATM    8  C15 UNL     1      16.427  24.941  41.310  1.00  0.00     0.154 C 
HETATM    9  C16 UNL     1      17.809  24.466  41.534  1.00  0.00     0.071 C 
HETATM   10  N4  UNL     1      18.909  24.110  41.695  1.00  0.00    -0.196 NA
HETATM   11  C17 UNL     1      16.199  25.157  39.884  1.00  0.00     0.018 C 
HETATM   12  N5  UNL     1      16.170  26.376  39.515  1.00  0.00    -0.403 N 
ATOM     13  H51 UNL     1      16.010  26.527  38.519  1.00  0.00     0.155 HD
ATOM     14  H52 UNL     1      16.317  26.993  40.314  1.00  0.00     0.155 HD
HETATM   15  C18 UNL     1      15.983  24.253  38.713  1.00  0.00     0.154 C 
HETATM   16  C19 UNL     1      16.915  24.485  37.643  1.00  0.00     0.071 C 
HETATM   17  N6  UNL     1      17.656  24.656  36.789  1.00  0.00    -0.196 NA
ENDROOT
BRANCH   7  18
HETATM   18  C11 UNL     1      16.031  23.375  43.130  1.00  0.00     0.063 A 
HETATM   19  C12 UNL     1      16.416  22.045  43.106  1.00  0.00     0.035 A 
HETATM   20  C13 UNL     1      16.936  21.762  44.353  1.00  0.00     0.027 A 
HETATM   21  C14 UNL     1      16.846  22.936  45.094  1.00  0.00     0.142 A 
HETATM   22  O1  UNL     1      16.307  23.844  44.320  1.00  0.00    -0.326 OA
ENDBRANCH   7  18
BRANCH   1  23
HETATM   23  C4  UNL     1      16.013  21.842  38.127  1.00  0.00     0.107 A 
HETATM   24  N2  UNL     1      17.117  21.342  37.572  1.00  0.00    -0.287 N 
HETATM   25  N1  UNL     1      16.732  20.496  36.634  1.00  0.00    -0.288 N 
ATOM     26  H2  UNL     1      18.079  21.569  37.826  1.00  0.00     0.188 HD
HETATM   27  C3  UNL     1      15.397  20.457  36.591  1.00  0.00     0.096 A 
ATOM     28  H1  UNL     1      17.356  19.956  36.035  1.00  0.00     0.188 HD
HETATM   29  N7  UNL     1      14.956  21.300  37.527  1.00  0.00    -0.333 N 
ATOM     30  H7  UNL     1      13.979  21.494  37.745  1.00  0.00     0.168 HD
BRANCH  27  31
HETATM   31  C2  UNL     1      14.497  19.664  35.713  1.00  0.00     0.073 C 
HETATM   32  C1  UNL     1      13.279  19.173  36.482  1.00  0.00     0.013 C 
ENDBRANCH  27  31
ENDBRANCH   1  23
TORSDOF 3
ENDMDL
MODEL 4
REMARK VINA RESULT: -7.110466647      2.438      6.285
REMARK  3 active torsions:
REMARK  status: ('A' for Active; 'I' for Inactive)
REMARK    1  A    between atoms: C2_2  and  C3_3 
REMARK    2  A    between atoms: C4_8  and  C5_9 
REMARK    3  A    between atoms: C10_15  and  C11_16 
ROOT
HETATM    1  C5  UNL     1      16.057  22.820  39.084  1.00  0.00     0.107 C 
HETATM    2  C6  UNL     1      14.796  22.665  39.875  1.00  0.00    -0.053 C 
HETATM    3  C7  UNL     1      13.775  21.790  39.271  1.00  0.00     0.045 C 
HETATM    4  C8  UNL     1      14.560  23.236  41.031  1.00  0.00     0.037 C 
HETATM    5  C9  UNL     1      13.265  22.927  41.593  1.00  0.00     0.096 C 
HETATM    6  N3  UNL     1      12.213  22.692  42.072  1.00  0.00    -0.192 NA
HETATM    7  C10 UNL     1      15.383  24.146  41.881  1.00  0.00     0.110 C 
HETATM    8  C15 UNL     1      16.395  24.956  41.184  1.00  0.00     0.154 C 
HETATM    9  C16 UNL     1      17.780  24.516  41.454  1.00  0.00     0.071 C 
HETATM   10  N4  UNL     1      18.883  24.188  41.651  1.00  0.00    -0.196 NA
HETATM   11  C17 UNL     1      16.206  25.159  39.750  1.00  0.00     0.018 C 
HETATM   12  N5  UNL     1      16.159  26.375  39.373  1.00  0.00    -0.403 N 
ATOM     13  H51 UNL     1      16.026  26.517  38.372  1.00  0.00     0.155 HD
ATOM     14  H52 UNL     1      16.265  26.999  40.173  1.00  0.00     0.155 HD
HETATM   15  C18 UNL     1      16.049  24.243  38.579  1.00  0.00     0.154 C 
HETATM   16  C19 UNL     1      17.009  24.493  37.537  1.00  0.00     0.071 C 
HETATM   17  N6  UNL     1      17.772  24.678  36.705  1.00  0.00    -0.196 NA
ENDROOT
BRANCH   7  18
HETATM   18  C11 UNL     1      15.981  23.389  43.000  1.00  0.00     0.063 A 
HETATM   19  C12 UNL     1      16.379  22.063  43.003  1.00  0.00     0.035 A 
HETATM   20  C13 UNL     1      16.875  21.802  44.264  1.00  0.00     0.027 A 
HETATM   21  C14 UNL     1      16.758  22.986  44.986  1.00  0.00     0.142 A 
HETATM   22  O1  UNL     1      16.226  23.877  44.188  1.00  0.00    -0.326 OA
ENDBRANCH   7  18
BRANCH   1  23
HETATM   23  C4  UNL     1      16.158  21.831  38.007  1.00  0.00     0.107 A 
HETATM   24  N2  UNL     1      15.133  21.293  37.346  1.00  0.00    -0.287 N 
HETATM   25  N1  UNL     1      15.639  20.450  36.465  1.00  0.00    -0.288 N 
ATOM     26  H2  UNL     1      14.144  21.496  37.492  1.00  0.00     0.188 HD
HETATM   27  C3  UNL     1      16.972  20.450  36.563  1.00  0.00     0.096 A 
ATOM     28  H1  UNL     1      15.097  19.886  35.811  1.00  0.00     0.188 HD
HETATM   29  N7  UNL     1      17.288  21.316  37.528  1.00  0.00    -0.333 N 
ATOM     30  H7  UNL     1      18.231  21.543  37.843  1.00  0.00     0.168 HD
BRANCH  27  31
HETATM   31  C2  UNL     1      17.982  19.677  35.794  1.00  0.00     0.073 C 
HETATM   32  C1  UNL     1      18.342  18.384  36.511  1.00  0.00     0.013 C 
ENDBRANCH  27  31
ENDBRANCH   1  23
TORSDOF 3
ENDMDL
MODEL 5
REMARK VINA RESULT: -6.789535822      2.967      5.626
REMARK  3 active torsions:
REMARK  status: ('A' for Active; 'I' for Inactive)
REMARK    1  A    between atoms: C2_2  and  C3_3 
REMARK    2  A    between atoms: C4_8  and  C5_9 
REMARK    3  A    between atoms: C10_15  and  C11_16 
ROOT
HETATM    1  C5  UNL     1      16.605  22.677  43.313  1.00  0.00     0.107 C 
HETATM    2  C6  UNL     1      16.912  23.516  42.112  1.00  0.00    -0.053 C 
HETATM    3  C7  UNL     1      18.321  23.924  41.969  1.00  0.00     0.045 C 
HETATM    4  C8  UNL     1      16.032  23.889  41.215  1.00  0.00     0.037 C 
HETATM    5  C9  UNL     1      16.580  24.698  40.148  1.00  0.00     0.096 C 
HETATM    6  N3  UNL     1      17.002  25.360  39.268  1.00  0.00    -0.192 NA
HETATM    7  C10 UNL     1      14.569  23.632  41.083  1.00  0.00     0.110 C 
HETATM    8  C15 UNL     1      13.838  23.356  42.331  1.00  0.00     0.154 C 
HETATM    9  C16 UNL     1      13.413  21.946  42.456  1.00  0.00     0.071 C 
HETATM   10  N4  UNL     1      13.065  20.839  42.580  1.00  0.00    -0.196 NA
HETATM   11  C17 UNL     1      14.461  23.803  43.574  1.00  0.00     0.018 C 
HETATM   12  N5  UNL     1      13.750  24.579  44.291  1.00  0.00    -0.403 N 
ATOM     13  H51 UNL     1      14.185  24.892  45.159  1.00  0.00     0.155 HD
ATOM     14  H52 UNL     1      12.848  24.749  43.846  1.00  0.00     0.155 HD
HETATM   15  C18 UNL     1      15.783  23.555  44.226  1.00  0.00     0.154 C 
HETATM   16  C19 UNL     1      15.662  23.046  45.566  1.00  0.00     0.071 C 
HETATM   17  N6  UNL     1      15.579  22.633  46.630  1.00  0.00    -0.196 NA
ENDROOT
BRANCH   7  18
HETATM   18  C11 UNL     1      14.329  22.577  40.078  1.00  0.00     0.063 A 
HETATM   19  C12 UNL     1      15.155  22.209  39.029  1.00  0.00     0.035 A 
HETATM   20  C13 UNL     1      14.515  21.184  38.363  1.00  0.00     0.027 A 
HETATM   21  C14 UNL     1      13.316  20.965  39.034  1.00  0.00     0.142 A 
HETATM   22  O1  UNL     1      13.267  21.814  40.030  1.00  0.00    -0.326 OA
ENDBRANCH   7  18
BRANCH   1  23
HETATM   23  C4  UNL     1      17.821  22.166  43.953  1.00  0.00     0.107 A 
HETATM   24  N2  UNL     1      18.153  20.882  44.079  1.00  0.00    -0.287 N 
HETATM   25  N1  UNL     1      19.310  20.840  44.714  1.00  0.00    -0.288 N 
ATOM     26  H2  UNL     1      17.615  20.081  43.747  1.00  0.00     0.188 HD
HETATM   27  C3  UNL     1      19.712  22.085  44.989  1.00  0.00     0.096 A 
ATOM     28  H1  UNL     1      19.819  19.990  44.957  1.00  0.00     0.188 HD
HETATM   29  N7  UNL     1      18.776  22.906  44.510  1.00  0.00    -0.333 N 
ATOM     30  H7  UNL     1      18.791  23.925  44.562  1.00  0.00     0.168 HD
BRANCH  27  31
HETATM   31  C2  UNL     1      20.938  22.556  45.684  1.00  0.00     0.073 C 
HETATM   32  C1  UNL     1      21.866  21.393  46.005  1.00  0.00     0.013 C 
ENDBRANCH  27  31
ENDBRANCH   1  23
TORSDOF 3
ENDMDL
