MODEL 1
REMARK VINA RESULT: -7.076292753      0.000      0.000
REMARK  5 active torsions:
REMARK  status: ('A' for Active; 'I' for Inactive)
REMARK    1  A    between atoms: C4_4  and  C5_5 
REMARK    2  A    between atoms: C5_5  and  C7_8 
REMARK    3  A    between atoms: C7_8  and  O2_10 
REMARK    4  A    between atoms: O2_10  and  C8_11 
REMARK    5  A    between atoms: C10_13  and  O3_14 
ROOT
HETATM    1  C5  UNL     1      18.678  22.515  44.442  1.00  0.00     0.215 C 
HETATM    2  C6  UNL     1      19.953  22.292  45.027  1.00  0.00     0.078 C 
HETATM    3  N1  UNL     1      20.991  22.129  45.540  1.00  0.00    -0.196 NA
ENDROOT
BRANCH   1   4
HETATM    4  C4  UNL     1      18.473  22.060  43.064  1.00  0.00     0.004 C 
HETATM    5  C2  UNL     1      18.498  22.713  41.934  1.00  0.00    -0.090 C 
HETATM    6  C1  UNL     1      18.236  21.913  40.667  1.00  0.00     0.042 C 
HETATM    7  C3  UNL     1      18.758  24.144  41.715  1.00  0.00     0.042 C 
ENDBRANCH   1   4
BRANCH   1   8
HETATM    8  C7  UNL     1      17.602  21.906  45.319  1.00  0.00     0.281 C 
HETATM    9  O1  UNL     1      17.932  21.443  46.420  1.00  0.00    -0.263 OA
BRANCH   8  10
HETATM   10  O2  UNL     1      16.311  21.859  44.929  1.00  0.00    -0.306 OA
BRANCH  10  11
HETATM   11  C8  UNL     1      15.398  22.923  44.911  1.00  0.00     0.102 C 
HETATM   12  C9  UNL     1      15.958  24.218  45.412  1.00  0.00     0.050 C 
HETATM   13  C10 UNL     1      14.497  22.493  46.122  1.00  0.00     0.153 C 
HETATM   14  C11 UNL     1      13.334  23.416  46.242  1.00  0.00     0.035 C 
HETATM   15  C12 UNL     1      12.451  23.009  45.090  1.00  0.00     0.011 C 
HETATM   16  C13 UNL     1      13.141  23.394  43.821  1.00  0.00     0.036 C 
HETATM   17  C14 UNL     1      12.232  22.771  42.742  1.00  0.00     0.093 C 
HETATM   18  C18 UNL     1      14.572  23.000  43.668  1.00  0.00     0.021 C 
HETATM   19  C15 UNL     1      12.279  23.492  41.439  1.00  0.00     0.049 C 
HETATM   20  C16 UNL     1      10.775  22.871  43.218  1.00  0.00     0.049 C 
HETATM   21  O4  UNL     1      12.579  21.454  42.566  1.00  0.00    -0.230 OA
HETATM   22  O5  UNL     1      13.741  21.479  41.957  1.00  0.00    -0.239 OA
HETATM   23  C17 UNL     1      14.715  21.668  42.931  1.00  0.00     0.222 C 
HETATM   24  C19 UNL     1      15.211  24.019  42.746  1.00  0.00     0.021 C 
BRANCH  13  25
HETATM   25  O3  UNL     1      15.231  22.512  47.287  1.00  0.00    -0.393 OA
ATOM     26  H3  UNL     1      14.725  22.138  47.997  1.00  0.00     0.210 HD
ENDBRANCH  13  25
ENDBRANCH  10  11
ENDBRANCH   8  10
ENDBRANCH   1   8
TORSDOF 5
ENDMDL
MODEL 2
REMARK VINA RESULT: -6.978135775      2.736      4.878
REMARK  5 active torsions:
REMARK  status: ('A' for Active; 'I' for Inactive)
REMARK    1  A    between atoms: C4_4  and  C5_5 
REMARK    2  A    between atoms: C5_5  and  C7_8 
REMARK    3  A    between atoms: C7_8  and  O2_10 
REMARK    4  A    between atoms: O2_10  and  C8_11 
REMARK    5  A    between atoms: C10_13  and  O3_14 
ROOT
HETATM    1  C5  UNL     1      16.545  24.232  39.452  1.00  0.00     0.215 C 
HETATM    2  C6  UNL     1      16.247  25.549  39.009  1.00  0.00     0.078 C 
HETATM    3  N1  UNL     1      15.982  26.617  38.616  1.00  0.00    -0.196 NA
ENDROOT
BRANCH   1   4
HETATM    4  C4  UNL     1      17.462  24.087  40.587  1.00  0.00     0.004 C 
HETATM    5  C2  UNL     1      18.393  23.205  40.828  1.00  0.00    -0.090 C 
HETATM    6  C1  UNL     1      19.167  23.354  42.128  1.00  0.00     0.042 C 
HETATM    7  C3  UNL     1      18.807  22.067  39.993  1.00  0.00     0.042 C 
ENDBRANCH   1   4
BRANCH   1   8
HETATM    8  C7  UNL     1      15.258  23.499  39.771  1.00  0.00     0.281 C 
HETATM    9  O1  UNL     1      14.854  22.644  38.970  1.00  0.00    -0.263 OA
BRANCH   8  10
HETATM   10  O2  UNL     1      14.554  23.755  40.894  1.00  0.00    -0.306 OA
BRANCH  10  11
HETATM   11  C8  UNL     1      14.033  22.815  41.794  1.00  0.00     0.102 C 
HETATM   12  C9  UNL     1      13.669  21.505  41.166  1.00  0.00     0.050 C 
HETATM   13  C10 UNL     1      12.615  23.450  42.017  1.00  0.00     0.153 C 
HETATM   14  C11 UNL     1      11.879  22.692  43.066  1.00  0.00     0.035 C 
HETATM   15  C12 UNL     1      12.567  23.110  44.341  1.00  0.00     0.011 C 
HETATM   16  C13 UNL     1      13.949  22.541  44.328  1.00  0.00     0.036 C 
HETATM   17  C14 UNL     1      14.588  23.182  45.576  1.00  0.00     0.093 C 
HETATM   18  C18 UNL     1      14.764  22.740  43.095  1.00  0.00     0.021 C 
HETATM   19  C15 UNL     1      15.675  22.358  46.175  1.00  0.00     0.049 C 
HETATM   20  C16 UNL     1      13.512  23.303  46.665  1.00  0.00     0.049 C 
HETATM   21  O4  UNL     1      15.066  24.428  45.249  1.00  0.00    -0.230 OA
HETATM   22  O5  UNL     1      16.116  24.210  44.491  1.00  0.00    -0.239 OA
HETATM   23  C17 UNL     1      15.653  23.980  43.199  1.00  0.00     0.222 C 
HETATM   24  C19 UNL     1      15.735  21.579  43.017  1.00  0.00     0.021 C 
BRANCH  13  25
HETATM   25  O3  UNL     1      11.900  23.434  40.840  1.00  0.00    -0.393 OA
ATOM     26  H3  UNL     1      11.896  24.299  40.450  1.00  0.00     0.210 HD
ENDBRANCH  13  25
ENDBRANCH  10  11
ENDBRANCH   8  10
ENDBRANCH   1   8
TORSDOF 5
ENDMDL
MODEL 3
REMARK VINA RESULT: -6.869052641      2.340      4.586
REMARK  5 active torsions:
REMARK  status: ('A' for Active; 'I' for Inactive)
REMARK    1  A    between atoms: C4_4  and  C5_5 
REMARK    2  A    between atoms: C5_5  and  C7_8 
REMARK    3  A    between atoms: C7_8  and  O2_10 
REMARK    4  A    between atoms: O2_10  and  C8_11 
REMARK    5  A    between atoms: C10_13  and  O3_14 
ROOT
HETATM    1  C5  UNL     1      21.162  22.067  45.363  1.00  0.00     0.215 C 
HETATM    2  C6  UNL     1      21.654  23.063  44.478  1.00  0.00     0.078 C 
HETATM    3  N1  UNL     1      22.039  23.867  43.722  1.00  0.00    -0.196 NA
ENDROOT
BRANCH   1   4
HETATM    4  C4  UNL     1      21.719  22.024  46.718  1.00  0.00     0.004 C 
HETATM    5  C2  UNL     1      22.599  21.224  47.257  1.00  0.00    -0.090 C 
HETATM    6  C1  UNL     1      22.954  21.469  48.715  1.00  0.00     0.042 C 
HETATM    7  C3  UNL     1      23.313  20.102  46.630  1.00  0.00     0.042 C 
ENDBRANCH   1   4
BRANCH   1   8
HETATM    8  C7  UNL     1      19.653  22.176  45.463  1.00  0.00     0.281 C 
HETATM    9  O1  UNL     1      19.086  21.635  46.423  1.00  0.00    -0.263 OA
BRANCH   8  10
HETATM   10  O2  UNL     1      18.927  22.840  44.540  1.00  0.00    -0.306 OA
BRANCH  10  11
HETATM   11  C8  UNL     1      18.040  22.284  43.606  1.00  0.00     0.102 C 
HETATM   12  C9  UNL     1      18.469  20.952  43.075  1.00  0.00     0.050 C 
HETATM   13  C10 UNL     1      18.358  23.215  42.384  1.00  0.00     0.153 C 
HETATM   14  C11 UNL     1      17.428  22.912  41.260  1.00  0.00     0.035 C 
HETATM   15  C12 UNL     1      16.122  23.508  41.722  1.00  0.00     0.011 C 
HETATM   16  C13 UNL     1      15.631  22.700  42.881  1.00  0.00     0.036 C 
HETATM   17  C14 UNL     1      14.409  23.509  43.360  1.00  0.00     0.093 C 
HETATM   18  C18 UNL     1      16.599  22.412  43.979  1.00  0.00     0.021 C 
HETATM   19  C15 UNL     1      13.375  22.676  44.037  1.00  0.00     0.049 C 
HETATM   20  C16 UNL     1      13.714  24.112  42.131  1.00  0.00     0.049 C 
HETATM   21  O4  UNL     1      14.831  24.511  44.199  1.00  0.00    -0.230 OA
HETATM   22  O5  UNL     1      15.204  23.906  45.304  1.00  0.00    -0.239 OA
HETATM   23  C17 UNL     1      16.499  23.442  45.105  1.00  0.00     0.222 C 
HETATM   24  C19 UNL     1      16.165  21.107  44.615  1.00  0.00     0.021 C 
BRANCH  13  25
HETATM   25  O3  UNL     1      19.659  23.032  41.975  1.00  0.00    -0.393 OA
ATOM     26  H3  UNL     1      19.684  22.479  41.203  1.00  0.00     0.210 HD
ENDBRANCH  13  25
ENDBRANCH  10  11
ENDBRANCH   8  10
ENDBRANCH   1   8
TORSDOF 5
ENDMDL
MODEL 4
REMARK VINA RESULT: -6.782317521      2.662      4.923
REMARK  5 active torsions:
REMARK  status: ('A' for Active; 'I' for Inactive)
REMARK    1  A    between atoms: C4_4  and  C5_5 
REMARK    2  A    between atoms: C5_5  and  C7_8 
REMARK    3  A    between atoms: C7_8  and  O2_10 
REMARK    4  A    between atoms: O2_10  and  C8_11 
REMARK    5  A    between atoms: C10_13  and  O3_14 
ROOT
HETATM    1  C5  UNL     1      15.857  22.928  39.708  1.00  0.00     0.215 C 
HETATM    2  C6  UNL     1      15.819  23.505  38.411  1.00  0.00     0.078 C 
HETATM    3  N1  UNL     1      15.757  23.957  37.334  1.00  0.00    -0.196 NA
ENDROOT
BRANCH   1   4
HETATM    4  C4  UNL     1      16.983  23.282  40.578  1.00  0.00     0.004 C 
HETATM    5  C2  UNL     1      18.212  22.845  40.607  1.00  0.00    -0.090 C 
HETATM    6  C1  UNL     1      19.133  23.439  41.661  1.00  0.00     0.042 C 
HETATM    7  C3  UNL     1      18.842  21.840  39.736  1.00  0.00     0.042 C 
ENDBRANCH   1   4
BRANCH   1   8
HETATM    8  C7  UNL     1      14.565  23.235  40.439  1.00  0.00     0.281 C 
HETATM    9  O1  UNL     1      13.504  23.202  39.799  1.00  0.00    -0.263 OA
BRANCH   8  10
HETATM   10  O2  UNL     1      14.548  23.540  41.754  1.00  0.00    -0.306 OA
BRANCH  10  11
HETATM   11  C8  UNL     1      14.200  22.688  42.812  1.00  0.00     0.102 C 
HETATM   12  C9  UNL     1      13.558  21.407  42.378  1.00  0.00     0.050 C 
HETATM   13  C10 UNL     1      12.962  23.478  43.364  1.00  0.00     0.153 C 
HETATM   14  C11 UNL     1      12.466  22.834  44.613  1.00  0.00     0.035 C 
HETATM   15  C12 UNL     1      13.507  23.214  45.634  1.00  0.00     0.011 C 
HETATM   16  C13 UNL     1      14.775  22.500  45.289  1.00  0.00     0.036 C 
HETATM   17  C14 UNL     1      15.784  23.106  46.285  1.00  0.00     0.093 C 
HETATM   18  C18 UNL     1      15.244  22.574  43.875  1.00  0.00     0.021 C 
HETATM   19  C15 UNL     1      16.908  22.188  46.622  1.00  0.00     0.049 C 
HETATM   20  C16 UNL     1      15.056  23.372  47.611  1.00  0.00     0.049 C 
HETATM   21  O4  UNL     1      16.273  24.283  45.773  1.00  0.00    -0.230 OA
HETATM   22  O5  UNL     1      17.054  23.931  44.778  1.00  0.00    -0.239 OA
HETATM   23  C17 UNL     1      16.242  23.714  43.670  1.00  0.00     0.222 C 
HETATM   24  C19 UNL     1      16.043  21.314  43.610  1.00  0.00     0.021 C 
BRANCH  13  25
HETATM   25  O3  UNL     1      11.959  23.504  42.422  1.00  0.00    -0.393 OA
ATOM     26  H3  UNL     1      12.326  23.403  41.552  1.00  0.00     0.210 HD
ENDBRANCH  13  25
ENDBRANCH  10  11
ENDBRANCH   8  10
ENDBRANCH   1   8
TORSDOF 5
ENDMDL
MODEL 5
REMARK VINA RESULT: -6.704276650      1.217      2.301
REMARK  5 active torsions:
REMARK  status: ('A' for Active; 'I' for Inactive)
REMARK    1  A    between atoms: C4_4  and  C5_5 
REMARK    2  A    between atoms: C5_5  and  C7_8 
REMARK    3  A    between atoms: C7_8  and  O2_10 
REMARK    4  A    between atoms: O2_10  and  C8_11 
REMARK    5  A    between atoms: C10_13  and  O3_14 
ROOT
HETATM    1  C5  UNL     1      18.776  21.866  44.551  1.00  0.00     0.215 C 
HETATM    2  C6  UNL     1      18.365  22.066  43.206  1.00  0.00     0.078 C 
HETATM    3  N1  UNL     1      18.008  22.198  42.101  1.00  0.00    -0.196 NA
ENDROOT
BRANCH   1   4
HETATM    4  C4  UNL     1      19.753  22.804  45.111  1.00  0.00     0.004 C 
HETATM    5  C2  UNL     1      20.919  22.599  45.661  1.00  0.00    -0.090 C 
HETATM    6  C1  UNL     1      21.680  23.824  46.144  1.00  0.00     0.042 C 
HETATM    7  C3  UNL     1      21.612  21.320  45.875  1.00  0.00     0.042 C 
ENDBRANCH   1   4
BRANCH   1   8
HETATM    8  C7  UNL     1      17.560  21.833  45.455  1.00  0.00     0.281 C 
HETATM    9  O1  UNL     1      17.739  21.811  46.681  1.00  0.00    -0.263 OA
BRANCH   8  10
HETATM   10  O2  UNL     1      16.306  21.828  44.957  1.00  0.00    -0.306 OA
BRANCH  10  11
HETATM   11  C8  UNL     1      15.408  22.905  44.925  1.00  0.00     0.102 C 
HETATM   12  C9  UNL     1      15.984  24.196  45.418  1.00  0.00     0.050 C 
HETATM   13  C10 UNL     1      14.494  22.498  46.134  1.00  0.00     0.153 C 
HETATM   14  C11 UNL     1      13.343  23.438  46.239  1.00  0.00     0.035 C 
HETATM   15  C12 UNL     1      12.462  23.034  45.085  1.00  0.00     0.011 C 
HETATM   16  C13 UNL     1      13.165  23.399  43.817  1.00  0.00     0.036 C 
HETATM   17  C14 UNL     1      12.254  22.781  42.737  1.00  0.00     0.093 C 
HETATM   18  C18 UNL     1      14.591  22.984  43.676  1.00  0.00     0.021 C 
HETATM   19  C15 UNL     1      12.320  23.490  41.428  1.00  0.00     0.049 C 
HETATM   20  C16 UNL     1      10.796  22.906  43.203  1.00  0.00     0.049 C 
HETATM   21  O4  UNL     1      12.583  21.457  42.574  1.00  0.00    -0.230 OA
HETATM   22  O5  UNL     1      13.750  21.460  41.972  1.00  0.00    -0.239 OA
HETATM   23  C17 UNL     1      14.720  21.644  42.951  1.00  0.00     0.222 C 
HETATM   24  C19 UNL     1      15.251  23.985  42.750  1.00  0.00     0.021 C 
BRANCH  13  25
HETATM   25  O3  UNL     1      15.221  22.516  47.303  1.00  0.00    -0.393 OA
ATOM     26  H3  UNL     1      15.002  23.288  47.810  1.00  0.00     0.210 HD
ENDBRANCH  13  25
ENDBRANCH  10  11
ENDBRANCH   8  10
ENDBRANCH   1   8
TORSDOF 5
ENDMDL
