MODEL 1
REMARK VINA RESULT: -7.525466915      0.000      0.000
REMARK  6 active torsions:
REMARK  status: ('A' for Active; 'I' for Inactive)
REMARK    1  A    between atoms: C3_3  and  N1_4 
REMARK    2  A    between atoms: N1_4  and  N2_5 
REMARK    3  A    between atoms: C4_6  and  S1_7 
REMARK    4  A    between atoms: C6_13  and  C7_14 
REMARK       I    between atoms: C7_14  and  N5_16 
REMARK    5  A    between atoms: N5_16  and  C8_18 
REMARK    6  A    between atoms: C17_27  and  O2_28 
ROOT
HETATM    1  N2  UNL     1      16.217  23.141  45.353  1.00  0.00    -0.143 N 
HETATM    2  C4  UNL     1      15.197  23.463  46.208  1.00  0.00     0.194 A 
HETATM    3  N3  UNL     1      15.607  23.397  47.469  1.00  0.00    -0.276 N 
ATOM      4  H3  UNL     1      15.040  23.591  48.295  1.00  0.00     0.189 HD
HETATM    5  N4  UNL     1      16.857  23.044  47.466  1.00  0.00    -0.277 N 
ATOM      6  H4  UNL     1      17.436  22.912  48.295  1.00  0.00     0.189 HD
HETATM    7  C6  UNL     1      17.264  22.878  46.190  1.00  0.00     0.225 A 
ENDROOT
BRANCH   1   8
HETATM    8  N1  UNL     1      16.176  23.102  44.065  1.00  0.00    -0.319 NA
BRANCH   8   9
HETATM    9  C3  UNL     1      16.316  23.103  42.890  1.00  0.00     0.118 C 
HETATM   10  C2  UNL     1      15.413  23.846  41.976  1.00  0.00    -0.000 C 
HETATM   11  C1  UNL     1      14.826  24.967  42.371  1.00  0.00     0.024 C 
HETATM   12  C17 UNL     1      15.210  23.271  40.624  1.00  0.00     0.154 C 
HETATM   13  C16 UNL     1      16.463  22.782  39.968  1.00  0.00     0.045 C 
HETATM   14  C13 UNL     1      17.690  22.933  40.862  1.00  0.00    -0.039 C 
HETATM   15  C12 UNL     1      17.437  22.339  42.224  1.00  0.00     0.084 C 
HETATM   16  C14 UNL     1      18.803  22.159  40.177  1.00  0.00     0.015 C 
HETATM   17  C15 UNL     1      18.084  24.376  40.886  1.00  0.00     0.015 C 
BRANCH  12  18
HETATM   18  O2  UNL     1      14.281  22.231  40.640  1.00  0.00    -0.391 OA
ATOM     19  H2  UNL     1      14.703  21.381  40.617  1.00  0.00     0.210 HD
ENDBRANCH  12  18
ENDBRANCH   8   9
ENDBRANCH   1   8
BRANCH   2  20
HETATM   20  S1  UNL     1      13.568  23.903  45.677  1.00  0.00    -0.094 SA
HETATM   21  C5  UNL     1      12.952  22.642  44.543  1.00  0.00     0.099 C 
ENDBRANCH   2  20
BRANCH   7  22
HETATM   22  C7  UNL     1      18.588  22.485  45.751  1.00  0.00     0.290 C 
HETATM   23  O1  UNL     1      18.742  21.345  45.262  1.00  0.00    -0.264 OA
HETATM   24  N5  UNL     1      19.660  23.399  45.887  1.00  0.00    -0.346 N 
ATOM     25  H5  UNL     1      19.475  24.316  46.293  1.00  0.00     0.163 HD
BRANCH  24  26
HETATM   26  C8  UNL     1      21.014  23.079  45.470  1.00  0.00     0.022 C 
HETATM   27  C9  UNL     1      21.253  23.374  44.014  1.00  0.00     0.037 C 
HETATM   28  C10 UNL     1      21.994  23.920  46.259  1.00  0.00     0.037 C 
HETATM   29  C11 UNL     1      21.347  21.629  45.764  1.00  0.00     0.037 C 
ENDBRANCH  24  26
ENDBRANCH   7  22
TORSDOF 6
ENDMDL
MODEL 2
REMARK VINA RESULT: -7.210140226      1.765      2.402
REMARK  6 active torsions:
REMARK  status: ('A' for Active; 'I' for Inactive)
REMARK    1  A    between atoms: C3_3  and  N1_4 
REMARK    2  A    between atoms: N1_4  and  N2_5 
REMARK    3  A    between atoms: C4_6  and  S1_7 
REMARK    4  A    between atoms: C6_13  and  C7_14 
REMARK       I    between atoms: C7_14  and  N5_16 
REMARK    5  A    between atoms: N5_16  and  C8_18 
REMARK    6  A    between atoms: C17_27  and  O2_28 
ROOT
HETATM    1  N2  UNL     1      15.740  22.763  43.513  1.00  0.00    -0.143 N 
HETATM    2  C4  UNL     1      14.509  22.837  44.108  1.00  0.00     0.194 A 
HETATM    3  N3  UNL     1      14.610  22.631  45.416  1.00  0.00    -0.276 N 
ATOM      4  H3  UNL     1      13.839  22.634  46.085  1.00  0.00     0.189 HD
HETATM    5  N4  UNL     1      15.862  22.426  45.694  1.00  0.00    -0.277 N 
ATOM      6  H4  UNL     1      16.239  22.239  46.623  1.00  0.00     0.189 HD
HETATM    7  C6  UNL     1      16.583  22.499  44.556  1.00  0.00     0.225 A 
ENDROOT
BRANCH   1   8
HETATM    8  N1  UNL     1      16.015  22.912  42.262  1.00  0.00    -0.319 NA
BRANCH   8   9
HETATM    9  C3  UNL     1      16.205  23.217  41.135  1.00  0.00     0.118 C 
HETATM   10  C2  UNL     1      17.235  24.210  40.737  1.00  0.00    -0.000 C 
HETATM   11  C1  UNL     1      18.345  24.352  41.446  1.00  0.00     0.024 C 
HETATM   12  C17 UNL     1      16.952  25.016  39.525  1.00  0.00     0.154 C 
HETATM   13  C16 UNL     1      16.395  24.232  38.378  1.00  0.00     0.045 C 
HETATM   14  C13 UNL     1      16.185  22.761  38.723  1.00  0.00    -0.039 C 
HETATM   15  C12 UNL     1      15.404  22.616  40.004  1.00  0.00     0.084 C 
HETATM   16  C14 UNL     1      15.379  22.175  37.576  1.00  0.00     0.015 C 
HETATM   17  C15 UNL     1      17.518  22.082  38.737  1.00  0.00     0.015 C 
BRANCH  12  18
HETATM   18  O2  UNL     1      16.088  26.076  39.800  1.00  0.00    -0.391 OA
ATOM     19  H2  UNL     1      15.536  25.894  40.551  1.00  0.00     0.210 HD
ENDBRANCH  12  18
ENDBRANCH   8   9
ENDBRANCH   1   8
BRANCH   2  20
HETATM   20  S1  UNL     1      13.008  23.163  43.230  1.00  0.00    -0.094 SA
HETATM   21  C5  UNL     1      12.535  21.695  42.297  1.00  0.00     0.099 C 
ENDBRANCH   2  20
BRANCH   7  22
HETATM   22  C7  UNL     1      18.016  22.328  44.429  1.00  0.00     0.290 C 
HETATM   23  O1  UNL     1      18.448  21.456  43.644  1.00  0.00    -0.264 OA
HETATM   24  N5  UNL     1      18.879  23.149  45.193  1.00  0.00    -0.346 N 
ATOM     25  H5  UNL     1      18.470  23.845  45.817  1.00  0.00     0.163 HD
BRANCH  24  26
HETATM   26  C8  UNL     1      20.326  23.039  45.122  1.00  0.00     0.022 C 
HETATM   27  C9  UNL     1      20.861  23.365  43.754  1.00  0.00     0.037 C 
HETATM   28  C10 UNL     1      20.953  24.019  46.088  1.00  0.00     0.037 C 
HETATM   29  C11 UNL     1      20.788  21.656  45.540  1.00  0.00     0.037 C 
ENDBRANCH  24  26
ENDBRANCH   7  22
TORSDOF 6
ENDMDL
MODEL 3
REMARK VINA RESULT: -7.012077236      1.347      2.086
REMARK  6 active torsions:
REMARK  status: ('A' for Active; 'I' for Inactive)
REMARK    1  A    between atoms: C3_3  and  N1_4 
REMARK    2  A    between atoms: N1_4  and  N2_5 
REMARK    3  A    between atoms: C4_6  and  S1_7 
REMARK    4  A    between atoms: C6_13  and  C7_14 
REMARK       I    between atoms: C7_14  and  N5_16 
REMARK    5  A    between atoms: N5_16  and  C8_18 
REMARK    6  A    between atoms: C17_27  and  O2_28 
ROOT
HETATM    1  N2  UNL     1      16.458  23.400  44.807  1.00  0.00    -0.143 N 
HETATM    2  C4  UNL     1      15.391  23.614  45.637  1.00  0.00     0.194 A 
HETATM    3  N3  UNL     1      15.720  23.355  46.897  1.00  0.00    -0.276 N 
ATOM      4  H3  UNL     1      15.105  23.437  47.707  1.00  0.00     0.189 HD
HETATM    5  N4  UNL     1      16.964  22.979  46.917  1.00  0.00    -0.277 N 
ATOM      6  H4  UNL     1      17.489  22.715  47.750  1.00  0.00     0.189 HD
HETATM    7  C6  UNL     1      17.448  22.995  45.657  1.00  0.00     0.225 A 
ENDROOT
BRANCH   1   8
HETATM    8  N1  UNL     1      16.497  23.551  43.527  1.00  0.00    -0.319 NA
BRANCH   8   9
HETATM    9  C3  UNL     1      16.368  23.765  42.370  1.00  0.00     0.118 C 
HETATM   10  C2  UNL     1      17.470  24.288  41.524  1.00  0.00    -0.000 C 
HETATM   11  C1  UNL     1      18.732  23.991  41.800  1.00  0.00     0.024 C 
HETATM   12  C17 UNL     1      17.082  25.146  40.378  1.00  0.00     0.154 C 
HETATM   13  C16 UNL     1      15.911  24.639  39.597  1.00  0.00     0.045 C 
HETATM   14  C13 UNL     1      15.325  23.359  40.185  1.00  0.00    -0.039 C 
HETATM   15  C12 UNL     1      15.057  23.520  41.660  1.00  0.00     0.084 C 
HETATM   16  C14 UNL     1      14.010  23.131  39.459  1.00  0.00     0.015 C 
HETATM   17  C15 UNL     1      16.236  22.221  39.848  1.00  0.00     0.015 C 
BRANCH  12  18
HETATM   18  O2  UNL     1      16.817  26.455  40.780  1.00  0.00    -0.391 OA
ATOM     19  H2  UNL     1      17.314  27.086  40.273  1.00  0.00     0.210 HD
ENDBRANCH  12  18
ENDBRANCH   8   9
ENDBRANCH   1   8
BRANCH   2  20
HETATM   20  S1  UNL     1      13.803  24.162  45.080  1.00  0.00    -0.094 SA
HETATM   21  C5  UNL     1      12.867  22.746  44.470  1.00  0.00     0.099 C 
ENDBRANCH   2  20
BRANCH   7  22
HETATM   22  C7  UNL     1      18.791  22.642  45.244  1.00  0.00     0.290 C 
HETATM   23  O1  UNL     1      18.939  21.727  44.406  1.00  0.00    -0.264 OA
HETATM   24  N5  UNL     1      19.890  23.341  45.799  1.00  0.00    -0.346 N 
ATOM     25  H5  UNL     1      19.708  24.080  46.479  1.00  0.00     0.163 HD
BRANCH  24  26
HETATM   26  C8  UNL     1      21.265  23.047  45.436  1.00  0.00     0.022 C 
HETATM   27  C9  UNL     1      21.574  23.410  44.009  1.00  0.00     0.037 C 
HETATM   28  C10 UNL     1      22.199  23.853  46.311  1.00  0.00     0.037 C 
HETATM   29  C11 UNL     1      21.592  21.585  45.678  1.00  0.00     0.037 C 
ENDBRANCH  24  26
ENDBRANCH   7  22
TORSDOF 6
ENDMDL
MODEL 4
REMARK VINA RESULT: -6.949252624      2.907      5.529
REMARK  6 active torsions:
REMARK  status: ('A' for Active; 'I' for Inactive)
REMARK    1  A    between atoms: C3_3  and  N1_4 
REMARK    2  A    between atoms: N1_4  and  N2_5 
REMARK    3  A    between atoms: C4_6  and  S1_7 
REMARK    4  A    between atoms: C6_13  and  C7_14 
REMARK       I    between atoms: C7_14  and  N5_16 
REMARK    5  A    between atoms: N5_16  and  C8_18 
REMARK    6  A    between atoms: C17_27  and  O2_28 
ROOT
HETATM    1  N2  UNL     1      17.382  22.930  43.073  1.00  0.00    -0.143 N 
HETATM    2  C4  UNL     1      18.286  22.726  44.080  1.00  0.00     0.194 A 
HETATM    3  N3  UNL     1      19.496  23.131  43.711  1.00  0.00    -0.276 N 
ATOM      4  H3  UNL     1      20.342  23.088  44.279  1.00  0.00     0.189 HD
HETATM    5  N4  UNL     1      19.411  23.591  42.499  1.00  0.00    -0.277 N 
ATOM      6  H4  UNL     1      20.185  23.970  41.955  1.00  0.00     0.189 HD
HETATM    7  C6  UNL     1      18.134  23.484  42.076  1.00  0.00     0.225 A 
ENDROOT
BRANCH   1   8
HETATM    8  N1  UNL     1      16.122  22.655  43.084  1.00  0.00    -0.319 NA
BRANCH   8   9
HETATM    9  C3  UNL     1      14.951  22.530  42.964  1.00  0.00     0.118 C 
HETATM   10  C2  UNL     1      14.003  23.659  43.138  1.00  0.00    -0.000 C 
HETATM   11  C1  UNL     1      14.367  24.898  42.842  1.00  0.00     0.024 C 
HETATM   12  C17 UNL     1      12.654  23.323  43.655  1.00  0.00     0.154 C 
HETATM   13  C16 UNL     1      12.039  22.109  43.032  1.00  0.00     0.045 C 
HETATM   14  C13 UNL     1      12.965  21.437  42.023  1.00  0.00    -0.039 C 
HETATM   15  C12 UNL     1      14.328  21.197  42.621  1.00  0.00     0.084 C 
HETATM   16  C14 UNL     1      12.321  20.101  41.692  1.00  0.00     0.015 C 
HETATM   17  C15 UNL     1      12.980  22.258  40.772  1.00  0.00     0.015 C 
BRANCH  12  18
HETATM   18  O2  UNL     1      12.658  23.158  45.040  1.00  0.00    -0.391 OA
ATOM     19  H2  UNL     1      13.367  23.640  45.450  1.00  0.00     0.210 HD
ENDBRANCH  12  18
ENDBRANCH   8   9
ENDBRANCH   1   8
BRANCH   2  20
HETATM   20  S1  UNL     1      17.872  22.019  45.648  1.00  0.00    -0.094 SA
HETATM   21  C5  UNL     1      16.820  23.167  46.558  1.00  0.00     0.099 C 
ENDBRANCH   2  20
BRANCH   7  22
HETATM   22  C7  UNL     1      17.617  23.881  40.782  1.00  0.00     0.290 C 
HETATM   23  O1  UNL     1      17.757  25.069  40.420  1.00  0.00    -0.264 OA
HETATM   24  N5  UNL     1      16.974  22.916  39.971  1.00  0.00    -0.346 N 
ATOM     25  H5  UNL     1      16.889  21.961  40.318  1.00  0.00     0.163 HD
BRANCH  24  26
HETATM   26  C8  UNL     1      16.429  23.236  38.663  1.00  0.00     0.022 C 
HETATM   27  C9  UNL     1      17.498  23.595  37.666  1.00  0.00     0.037 C 
HETATM   28  C10 UNL     1      15.699  22.030  38.114  1.00  0.00     0.037 C 
HETATM   29  C11 UNL     1      15.412  24.358  38.754  1.00  0.00     0.037 C 
ENDBRANCH  24  26
ENDBRANCH   7  22
TORSDOF 6
ENDMDL
MODEL 5
REMARK VINA RESULT: -6.867907283      2.284      5.517
REMARK  6 active torsions:
REMARK  status: ('A' for Active; 'I' for Inactive)
REMARK    1  A    between atoms: C3_3  and  N1_4 
REMARK    2  A    between atoms: N1_4  and  N2_5 
REMARK    3  A    between atoms: C4_6  and  S1_7 
REMARK    4  A    between atoms: C6_13  and  C7_14 
REMARK       I    between atoms: C7_14  and  N5_16 
REMARK    5  A    between atoms: N5_16  and  C8_18 
REMARK    6  A    between atoms: C17_27  and  O2_28 
ROOT
HETATM    1  N2  UNL     1      14.134  22.766  43.591  1.00  0.00    -0.143 N 
HETATM    2  C4  UNL     1      13.293  23.014  44.642  1.00  0.00     0.194 A 
HETATM    3  N3  UNL     1      12.077  23.322  44.204  1.00  0.00    -0.276 N 
ATOM      4  H3  UNL     1      11.270  23.548  44.785  1.00  0.00     0.189 HD
HETATM    5  N4  UNL     1      12.098  23.283  42.906  1.00  0.00    -0.277 N 
ATOM      6  H4  UNL     1      11.304  23.476  42.296  1.00  0.00     0.189 HD
HETATM    7  C6  UNL     1      13.338  22.946  42.495  1.00  0.00     0.225 A 
ENDROOT
BRANCH   1   8
HETATM    8  N1  UNL     1      15.381  22.441  43.646  1.00  0.00    -0.319 NA
BRANCH   8   9
HETATM    9  C3  UNL     1      16.552  22.312  43.756  1.00  0.00     0.118 C 
HETATM   10  C2  UNL     1      17.170  21.126  44.403  1.00  0.00    -0.000 C 
HETATM   11  C1  UNL     1      16.578  19.941  44.346  1.00  0.00     0.024 C 
HETATM   12  C17 UNL     1      18.459  21.344  45.103  1.00  0.00     0.154 C 
HETATM   13  C16 UNL     1      19.432  22.197  44.352  1.00  0.00     0.045 C 
HETATM   14  C13 UNL     1      18.864  22.711  43.033  1.00  0.00    -0.039 C 
HETATM   15  C12 UNL     1      17.517  23.355  43.243  1.00  0.00     0.084 C 
HETATM   16  C14 UNL     1      19.846  23.757  42.535  1.00  0.00     0.015 C 
HETATM   17  C15 UNL     1      18.857  21.584  42.048  1.00  0.00     0.015 C 
BRANCH  12  18
HETATM   18  O2  UNL     1      18.271  21.894  46.371  1.00  0.00    -0.391 OA
ATOM     19  H2  UNL     1      18.599  22.784  46.420  1.00  0.00     0.210 HD
ENDBRANCH  12  18
ENDBRANCH   8   9
ENDBRANCH   1   8
BRANCH   2  20
HETATM   20  S1  UNL     1      13.785  22.930  46.339  1.00  0.00    -0.094 SA
HETATM   21  C5  UNL     1      15.269  23.926  46.578  1.00  0.00     0.099 C 
ENDBRANCH   2  20
BRANCH   7  22
HETATM   22  C7  UNL     1      13.783  22.796  41.124  1.00  0.00     0.290 C 
HETATM   23  O1  UNL     1      13.088  22.115  40.340  1.00  0.00    -0.264 OA
HETATM   24  N5  UNL     1      14.985  23.422  40.717  1.00  0.00    -0.346 N 
ATOM     25  H5  UNL     1      15.511  23.967  41.400  1.00  0.00     0.163 HD
BRANCH  24  26
HETATM   26  C8  UNL     1      15.497  23.319  39.361  1.00  0.00     0.022 C 
HETATM   27  C9  UNL     1      14.984  24.415  38.467  1.00  0.00     0.037 C 
HETATM   28  C10 UNL     1      17.005  23.436  39.383  1.00  0.00     0.037 C 
HETATM   29  C11 UNL     1      15.172  21.966  38.757  1.00  0.00     0.037 C 
ENDBRANCH  24  26
ENDBRANCH   7  22
TORSDOF 6
ENDMDL
