MODEL 1
REMARK VINA RESULT: -7.659733528      0.000      0.000
REMARK  12 active torsions:
REMARK  status: ('A' for Active; 'I' for Inactive)
REMARK    1  A    between atoms: C2_3  and  C3_4 
REMARK       I    between atoms: C3_4  and  N2_6 
REMARK    2  A    between atoms: N2_6  and  O2_8 
REMARK    3  A    between atoms: O2_8  and  C4_9 
REMARK    4  A    between atoms: C4_9  and  O3_11 
REMARK    5  A    between atoms: C4_9  and  C6_13 
REMARK    6  A    between atoms: C6_13  and  O4_14 
REMARK    7  A    between atoms: C8_22  and  C9_23 
REMARK    8  A    between atoms: C9_23  and  O5_25 
REMARK    9  A    between atoms: C9_23  and  C11_27 
REMARK   10  A    between atoms: C11_27  and  N6_28 
REMARK   11  A    between atoms: C13_36  and  N10_37 
REMARK   12  A    between atoms: C14_42  and  N12_43 
ROOT
HETATM    1  C6  UNL     1      15.143   3.289  15.608  1.00  0.00     0.288 C 
HETATM    2  C7  UNL     1      13.840   3.878  15.306  1.00  0.00     0.096 C 
HETATM    3  N3  UNL     1      12.832   4.357  15.077  1.00  0.00    -0.194 NA
ENDROOT
BRANCH   1   4
HETATM    4  C4  UNL     1      16.203   4.070  14.819  1.00  0.00     0.223 C 
HETATM    5  C5  UNL     1      15.890   3.802  13.371  1.00  0.00     0.085 C 
BRANCH   4   6
HETATM    6  O2  UNL     1      16.048   5.396  15.196  1.00  0.00    -0.234 OA
BRANCH   6   7
HETATM    7  N2  UNL     1      17.151   5.926  15.744  1.00  0.00    -0.225 N 
HETATM    8  C3  UNL     1      17.114   6.369  17.109  1.00  0.00     0.310 C 
HETATM    9  O1  UNL     1      16.028   6.224  17.715  1.00  0.00    -0.262 OA
ATOM     10  H2  UNL     1      18.008   6.014  15.197  1.00  0.00     0.198 HD
BRANCH   8  11
HETATM   11  C2  UNL     1      18.319   6.951  17.695  1.00  0.00     0.194 A 
HETATM   12  N1  UNL     1      18.766   8.204  17.605  1.00  0.00    -0.318 N 
HETATM   13  C1  UNL     1      18.060   9.288  16.969  1.00  0.00     0.159 C 
HETATM   14  C8  UNL     1      19.987   8.339  18.254  1.00  0.00     0.140 A 
HETATM   15  N5  UNL     1      20.201   7.110  18.716  1.00  0.00    -0.284 N 
HETATM   16  N4  UNL     1      19.252   6.270  18.411  1.00  0.00    -0.279 N 
ATOM     17  H5  UNL     1      21.027   6.851  19.256  1.00  0.00     0.188 HD
ATOM     18  H4  UNL     1      19.216   5.282  18.663  1.00  0.00     0.189 HD
BRANCH  14  19
HETATM   19  C9  UNL     1      20.769   9.569  18.310  1.00  0.00     0.147 C 
HETATM   20  C10 UNL     1      22.141   9.152  18.925  1.00  0.00     0.060 C 
BRANCH  19  21
HETATM   21  O5  UNL     1      21.054  10.022  16.997  1.00  0.00    -0.377 OA
ATOM     22  H5  UNL     1      21.807  10.600  17.010  1.00  0.00     0.211 HD
ENDBRANCH  19  21
BRANCH  19  23
HETATM   23  C11 UNL     1      20.282  10.677  19.156  1.00  0.00     0.136 C 
BRANCH  23  24
HETATM   24  N6  UNL     1      20.042  11.952  18.608  1.00  0.00    -0.246 N 
HETATM   25  N7  UNL     1      18.874  12.171  17.922  1.00  0.00    -0.234 N 
HETATM   26  N8  UNL     1      18.791  13.394  17.550  1.00  0.00    -0.268 N 
ATOM     27  H7  UNL     1      18.169  11.459  17.735  1.00  0.00     0.209 HD
HETATM   28  C12 UNL     1      19.922  14.052  17.981  1.00  0.00     0.169 A 
ATOM     29  H8  UNL     1      18.021  13.809  17.026  1.00  0.00     0.190 HD
HETATM   30  N9  UNL     1      20.309  15.306  17.832  1.00  0.00    -0.173 N 
HETATM   31  C15 UNL     1      20.673  13.103  18.637  1.00  0.00     0.146 A 
HETATM   32  C13 UNL     1      21.513  15.767  18.332  1.00  0.00     0.679 A 
ATOM     33  H9  UNL     1      19.701  15.955  17.333  1.00  0.00     0.186 HD
HETATM   34  N11 UNL     1      22.264  14.867  18.972  1.00  0.00    -0.175 N 
HETATM   35  C14 UNL     1      21.899  13.578  19.140  1.00  0.00     0.147 A 
ATOM     36  H11 UNL     1      23.160  15.170  19.354  1.00  0.00     0.186 HD
BRANCH  32  37
HETATM   37  N10 UNL     1      21.918  16.954  18.212  1.00  0.00    -0.234 N 
ATOM     38 2H10 UNL     1      22.791  17.148  17.723  1.00  0.00     0.174 HD
ATOM     39 1H10 UNL     1      21.420  17.766  18.576  1.00  0.00     0.174 HD
ENDBRANCH  32  37
BRANCH  35  40
HETATM   40  N12 UNL     1      22.699  12.833  19.714  1.00  0.00    -0.383 N 
ATOM     41 2H12 UNL     1      23.600  12.591  19.301  1.00  0.00     0.157 HD
ATOM     42 1H12 UNL     1      22.439  12.491  20.639  1.00  0.00     0.157 HD
ENDBRANCH  35  40
ENDBRANCH  23  24
ENDBRANCH  19  23
ENDBRANCH  14  19
ENDBRANCH   8  11
ENDBRANCH   6   7
ENDBRANCH   4   6
BRANCH   4  43
HETATM   43  O3  UNL     1      17.427   3.530  15.121  1.00  0.00    -0.361 OA
ATOM     44  H3  UNL     1      17.516   2.607  14.913  1.00  0.00     0.213 HD
ENDBRANCH   4  43
ENDBRANCH   1   4
BRANCH   1  45
HETATM   45  O4  UNL     1      15.451   3.441  16.952  1.00  0.00    -0.376 OA
ATOM     46  H4  UNL     1      14.972   2.767  17.421  1.00  0.00     0.211 HD
ENDBRANCH   1  45
TORSDOF 12
ENDMDL
MODEL 2
REMARK VINA RESULT: -7.386808267      1.227      1.621
REMARK  12 active torsions:
REMARK  status: ('A' for Active; 'I' for Inactive)
REMARK    1  A    between atoms: C2_3  and  C3_4 
REMARK       I    between atoms: C3_4  and  N2_6 
REMARK    2  A    between atoms: N2_6  and  O2_8 
REMARK    3  A    between atoms: O2_8  and  C4_9 
REMARK    4  A    between atoms: C4_9  and  O3_11 
REMARK    5  A    between atoms: C4_9  and  C6_13 
REMARK    6  A    between atoms: C6_13  and  O4_14 
REMARK    7  A    between atoms: C8_22  and  C9_23 
REMARK    8  A    between atoms: C9_23  and  O5_25 
REMARK    9  A    between atoms: C9_23  and  C11_27 
REMARK   10  A    between atoms: C11_27  and  N6_28 
REMARK   11  A    between atoms: C13_36  and  N10_37 
REMARK   12  A    between atoms: C14_42  and  N12_43 
ROOT
HETATM    1  C6  UNL     1      13.853   4.330  14.042  1.00  0.00     0.288 C 
HETATM    2  C7  UNL     1      12.469   4.792  14.122  1.00  0.00     0.096 C 
HETATM    3  N3  UNL     1      11.389   5.143  14.204  1.00  0.00    -0.194 NA
ENDROOT
BRANCH   1   4
HETATM    4  C4  UNL     1      14.598   4.871  15.271  1.00  0.00     0.223 C 
HETATM    5  C5  UNL     1      14.742   3.689  16.193  1.00  0.00     0.085 C 
BRANCH   4   6
HETATM    6  O2  UNL     1      15.802   5.364  14.791  1.00  0.00    -0.234 OA
BRANCH   6   7
HETATM    7  N2  UNL     1      16.548   5.958  15.734  1.00  0.00    -0.225 N 
HETATM    8  C3  UNL     1      17.979   5.892  15.643  1.00  0.00     0.310 C 
HETATM    9  O1  UNL     1      18.449   5.273  14.663  1.00  0.00    -0.262 OA
ATOM     10  H2  UNL     1      16.103   6.451  16.509  1.00  0.00     0.198 HD
BRANCH   8  11
HETATM   11  C2  UNL     1      18.782   6.537  16.679  1.00  0.00     0.194 A 
HETATM   12  N1  UNL     1      19.237   7.791  16.719  1.00  0.00    -0.318 N 
HETATM   13  C1  UNL     1      18.920   8.814  15.755  1.00  0.00     0.159 C 
HETATM   14  C8  UNL     1      20.019   7.994  17.848  1.00  0.00     0.140 A 
HETATM   15  N5  UNL     1      19.979   6.804  18.442  1.00  0.00    -0.284 N 
HETATM   16  N4  UNL     1      19.269   5.925  17.791  1.00  0.00    -0.279 N 
ATOM     17  H5  UNL     1      20.457   6.599  19.319  1.00  0.00     0.188 HD
ATOM     18  H4  UNL     1      19.107   4.956  18.066  1.00  0.00     0.189 HD
BRANCH  14  19
HETATM   19  C9  UNL     1      20.703   9.241  18.175  1.00  0.00     0.147 C 
HETATM   20  C10 UNL     1      21.941   8.817  19.025  1.00  0.00     0.060 C 
BRANCH  19  21
HETATM   21  O5  UNL     1      21.225   9.830  16.996  1.00  0.00    -0.377 OA
ATOM     22  H5  UNL     1      20.703  10.585  16.753  1.00  0.00     0.211 HD
ENDBRANCH  19  21
BRANCH  19  23
HETATM   23  C11 UNL     1      19.991  10.243  18.994  1.00  0.00     0.136 C 
BRANCH  23  24
HETATM   24  N6  UNL     1      19.794  11.554  18.520  1.00  0.00    -0.246 N 
HETATM   25  N7  UNL     1      18.646  11.845  17.828  1.00  0.00    -0.234 N 
HETATM   26  N8  UNL     1      18.601  13.090  17.530  1.00  0.00    -0.268 N 
ATOM     27  H7  UNL     1      17.927  11.165  17.585  1.00  0.00     0.209 HD
HETATM   28  C12 UNL     1      19.740  13.691  18.020  1.00  0.00     0.169 A 
ATOM     29  H8  UNL     1      17.853  13.556  17.018  1.00  0.00     0.190 HD
HETATM   30  N9  UNL     1      20.162  14.940  17.955  1.00  0.00    -0.173 N 
HETATM   31  C15 UNL     1      20.453  12.684  18.631  1.00  0.00     0.146 A 
HETATM   32  C13 UNL     1      21.367  15.338  18.504  1.00  0.00     0.679 A 
ATOM     33  H9  UNL     1      19.580  15.634  17.485  1.00  0.00     0.186 HD
HETATM   34  N11 UNL     1      22.082  14.382  19.101  1.00  0.00    -0.175 N 
HETATM   35  C14 UNL     1      21.681  13.095  19.183  1.00  0.00     0.147 A 
ATOM     36  H11 UNL     1      22.978  14.636  19.517  1.00  0.00     0.186 HD
BRANCH  32  37
HETATM   37  N10 UNL     1      21.804  16.519  18.463  1.00  0.00    -0.234 N 
ATOM     38 2H10 UNL     1      21.204  17.274  18.132  1.00  0.00     0.174 HD
ATOM     39 1H10 UNL     1      22.745  16.789  18.749  1.00  0.00     0.174 HD
ENDBRANCH  32  37
BRANCH  35  40
HETATM   40  N12 UNL     1      22.451  12.296  19.725  1.00  0.00    -0.383 N 
ATOM     41 2H12 UNL     1      23.113  11.737  19.186  1.00  0.00     0.157 HD
ATOM     42 1H12 UNL     1      22.423  12.237  20.743  1.00  0.00     0.157 HD
ENDBRANCH  35  40
ENDBRANCH  23  24
ENDBRANCH  19  23
ENDBRANCH  14  19
ENDBRANCH   8  11
ENDBRANCH   6   7
ENDBRANCH   4   6
BRANCH   4  43
HETATM   43  O3  UNL     1      13.792   5.808  15.866  1.00  0.00    -0.361 OA
ATOM     44  H3  UNL     1      13.125   5.451  16.440  1.00  0.00     0.213 HD
ENDBRANCH   4  43
ENDBRANCH   1   4
BRANCH   1  45
HETATM   45  O4  UNL     1      13.913   2.945  14.114  1.00  0.00    -0.376 OA
ATOM     46  H4  UNL     1      14.829   2.715  14.218  1.00  0.00     0.211 HD
ENDBRANCH   1  45
TORSDOF 12
ENDMDL
MODEL 3
REMARK VINA RESULT: -7.381803226      2.801      9.981
REMARK  12 active torsions:
REMARK  status: ('A' for Active; 'I' for Inactive)
REMARK    1  A    between atoms: C2_3  and  C3_4 
REMARK       I    between atoms: C3_4  and  N2_6 
REMARK    2  A    between atoms: N2_6  and  O2_8 
REMARK    3  A    between atoms: O2_8  and  C4_9 
REMARK    4  A    between atoms: C4_9  and  O3_11 
REMARK    5  A    between atoms: C4_9  and  C6_13 
REMARK    6  A    between atoms: C6_13  and  O4_14 
REMARK    7  A    between atoms: C8_22  and  C9_23 
REMARK    8  A    between atoms: C9_23  and  O5_25 
REMARK    9  A    between atoms: C9_23  and  C11_27 
REMARK   10  A    between atoms: C11_27  and  N6_28 
REMARK   11  A    between atoms: C13_36  and  N10_37 
REMARK   12  A    between atoms: C14_42  and  N12_43 
ROOT
HETATM    1  C6  UNL     1      20.310  10.803  18.406  1.00  0.00     0.288 C 
HETATM    2  C7  UNL     1      20.783  10.659  19.781  1.00  0.00     0.096 C 
HETATM    3  N3  UNL     1      21.148  10.567  20.856  1.00  0.00    -0.194 NA
ENDROOT
BRANCH   1   4
HETATM    4  C4  UNL     1      18.888  11.382  18.459  1.00  0.00     0.223 C 
HETATM    5  C5  UNL     1      19.042  12.832  18.083  1.00  0.00     0.085 C 
BRANCH   4   6
HETATM    6  O2  UNL     1      18.148  10.638  17.553  1.00  0.00    -0.234 OA
BRANCH   6   7
HETATM    7  N2  UNL     1      18.382   9.320  17.629  1.00  0.00    -0.225 N 
HETATM    8  C3  UNL     1      18.122   8.493  16.485  1.00  0.00     0.310 C 
HETATM    9  O1  UNL     1      17.687   9.070  15.464  1.00  0.00    -0.262 OA
ATOM     10  H2  UNL     1      18.741   8.909  18.491  1.00  0.00     0.198 HD
BRANCH   8  11
HETATM   11  C2  UNL     1      18.375   7.057  16.580  1.00  0.00     0.194 A 
HETATM   12  N1  UNL     1      17.505   6.072  16.811  1.00  0.00    -0.318 N 
HETATM   13  C1  UNL     1      16.077   6.241  16.913  1.00  0.00     0.159 C 
HETATM   14  C8  UNL     1      18.157   4.848  16.890  1.00  0.00     0.140 A 
HETATM   15  N5  UNL     1      19.427   5.188  16.687  1.00  0.00    -0.284 N 
HETATM   16  N4  UNL     1      19.598   6.468  16.503  1.00  0.00    -0.279 N 
ATOM     17  H5  UNL     1      20.193   4.514  16.676  1.00  0.00     0.188 HD
ATOM     18  H4  UNL     1      20.485   6.940  16.333  1.00  0.00     0.189 HD
BRANCH  14  19
HETATM   19  C9  UNL     1      17.506   3.574  17.174  1.00  0.00     0.147 C 
HETATM   20  C10 UNL     1      18.640   2.647  17.710  1.00  0.00     0.060 C 
BRANCH  19  21
HETATM   21  O5  UNL     1      16.590   3.727  18.244  1.00  0.00    -0.377 OA
ATOM     22  H5  UNL     1      16.360   2.876  18.598  1.00  0.00     0.211 HD
ENDBRANCH  19  21
BRANCH  19  23
HETATM   23  C11 UNL     1      16.891   2.832  16.054  1.00  0.00     0.136 C 
BRANCH  23  24
HETATM   24  N6  UNL     1      15.514   2.533  16.056  1.00  0.00    -0.246 N 
HETATM   25  N7  UNL     1      15.048   1.552  16.893  1.00  0.00    -0.234 N 
HETATM   26  N8  UNL     1      13.773   1.456  16.812  1.00  0.00    -0.268 N 
ATOM     27  H7  UNL     1      15.635   0.976  17.496  1.00  0.00     0.209 HD
HETATM   28  C12 UNL     1      13.330   2.389  15.900  1.00  0.00     0.169 A 
ATOM     29  H8  UNL     1      13.188   0.804  17.332  1.00  0.00     0.190 HD
HETATM   30  N9  UNL     1      12.116   2.668  15.462  1.00  0.00    -0.173 N 
HETATM   31  C15 UNL     1      14.460   3.036  15.456  1.00  0.00     0.146 A 
HETATM   32  C13 UNL     1      11.885   3.645  14.511  1.00  0.00     0.679 A 
ATOM     33  H9  UNL     1      11.323   2.146  15.836  1.00  0.00     0.186 HD
HETATM   34  N11 UNL     1      12.965   4.288  14.059  1.00  0.00    -0.175 N 
HETATM   35  C14 UNL     1      14.219   4.026  14.485  1.00  0.00     0.147 A 
ATOM     36  H11 UNL     1      12.835   5.015  13.356  1.00  0.00     0.186 HD
BRANCH  32  37
HETATM   37  N10 UNL     1      10.744   3.941  14.067  1.00  0.00    -0.234 N 
ATOM     38 2H10 UNL     1       9.921   3.822  14.657  1.00  0.00     0.174 HD
ATOM     39 1H10 UNL     1      10.574   4.307  13.131  1.00  0.00     0.174 HD
ENDBRANCH  32  37
BRANCH  35  40
HETATM   40  N12 UNL     1      15.139   4.661  13.961  1.00  0.00    -0.383 N 
ATOM     41 2H12 UNL     1      15.022   5.629  13.661  1.00  0.00     0.157 HD
ATOM     42 1H12 UNL     1      16.039   4.190  13.866  1.00  0.00     0.157 HD
ENDBRANCH  35  40
ENDBRANCH  23  24
ENDBRANCH  19  23
ENDBRANCH  14  19
ENDBRANCH   8  11
ENDBRANCH   6   7
ENDBRANCH   4   6
BRANCH   4  43
HETATM   43  O3  UNL     1      18.454  11.298  19.757  1.00  0.00    -0.361 OA
ATOM     44  H3  UNL     1      19.002  10.768  20.325  1.00  0.00     0.213 HD
ENDBRANCH   4  43
ENDBRANCH   1   4
BRANCH   1  45
HETATM   45  O4  UNL     1      21.089  11.718  17.712  1.00  0.00    -0.376 OA
ATOM     46  H4  UNL     1      21.461  11.255  16.970  1.00  0.00     0.211 HD
ENDBRANCH   1  45
TORSDOF 12
ENDMDL
MODEL 4
REMARK VINA RESULT: -7.246888485      1.575      2.107
REMARK  12 active torsions:
REMARK  status: ('A' for Active; 'I' for Inactive)
REMARK    1  A    between atoms: C2_3  and  C3_4 
REMARK       I    between atoms: C3_4  and  N2_6 
REMARK    2  A    between atoms: N2_6  and  O2_8 
REMARK    3  A    between atoms: O2_8  and  C4_9 
REMARK    4  A    between atoms: C4_9  and  O3_11 
REMARK    5  A    between atoms: C4_9  and  C6_13 
REMARK    6  A    between atoms: C6_13  and  O4_14 
REMARK    7  A    between atoms: C8_22  and  C9_23 
REMARK    8  A    between atoms: C9_23  and  O5_25 
REMARK    9  A    between atoms: C9_23  and  C11_27 
REMARK   10  A    between atoms: C11_27  and  N6_28 
REMARK   11  A    between atoms: C13_36  and  N10_37 
REMARK   12  A    between atoms: C14_42  and  N12_43 
ROOT
HETATM    1  C6  UNL     1      13.592   5.121  15.296  1.00  0.00     0.288 C 
HETATM    2  C7  UNL     1      12.306   5.068  14.605  1.00  0.00     0.096 C 
HETATM    3  N3  UNL     1      11.314   5.021  14.047  1.00  0.00    -0.194 NA
ENDROOT
BRANCH   1   4
HETATM    4  C4  UNL     1      14.313   3.788  15.047  1.00  0.00     0.223 C 
HETATM    5  C5  UNL     1      15.077   3.990  13.765  1.00  0.00     0.085 C 
BRANCH   4   6
HETATM    6  O2  UNL     1      15.116   3.584  16.159  1.00  0.00    -0.234 OA
BRANCH   6   7
HETATM    7  N2  UNL     1      16.259   4.284  16.126  1.00  0.00    -0.225 N 
HETATM    8  C3  UNL     1      17.062   4.374  17.312  1.00  0.00     0.310 C 
HETATM    9  O1  UNL     1      16.635   3.774  18.324  1.00  0.00    -0.262 OA
ATOM     10  H2  UNL     1      16.554   4.749  15.266  1.00  0.00     0.198 HD
BRANCH   8  11
HETATM   11  C2  UNL     1      18.303   5.144  17.267  1.00  0.00     0.194 A 
HETATM   12  N1  UNL     1      18.467   6.464  17.372  1.00  0.00    -0.318 N 
HETATM   13  C1  UNL     1      17.415   7.405  17.663  1.00  0.00     0.159 C 
HETATM   14  C8  UNL     1      19.804   6.807  17.214  1.00  0.00     0.140 A 
HETATM   15  N5  UNL     1      20.381   5.624  17.022  1.00  0.00    -0.284 N 
HETATM   16  N4  UNL     1      19.540   4.628  17.044  1.00  0.00    -0.279 N 
ATOM     17  H5  UNL     1      21.384   5.508  16.872  1.00  0.00     0.188 HD
ATOM     18  H4  UNL     1      19.769   3.642  16.918  1.00  0.00     0.189 HD
BRANCH  14  19
HETATM   19  C9  UNL     1      20.321   8.171  17.231  1.00  0.00     0.147 C 
HETATM   20  C10 UNL     1      21.869   8.021  17.112  1.00  0.00     0.060 C 
BRANCH  19  21
HETATM   21  O5  UNL     1      19.906   8.860  16.064  1.00  0.00    -0.377 OA
ATOM     22  H5  UNL     1      19.605   9.731  16.292  1.00  0.00     0.211 HD
ENDBRANCH  19  21
BRANCH  19  23
HETATM   23  C11 UNL     1      20.099   8.995  18.437  1.00  0.00     0.136 C 
BRANCH  23  24
HETATM   24  N6  UNL     1      19.925  10.389  18.337  1.00  0.00    -0.246 N 
HETATM   25  N7  UNL     1      18.743  10.877  17.841  1.00  0.00    -0.234 N 
HETATM   26  N8  UNL     1      18.730  12.157  17.880  1.00  0.00    -0.268 N 
ATOM     27  H7  UNL     1      17.979  10.300  17.490  1.00  0.00     0.209 HD
HETATM   28  C12 UNL     1      19.927  12.582  18.414  1.00  0.00     0.169 A 
ATOM     29  H8  UNL     1      17.967  12.758  17.569  1.00  0.00     0.190 HD
HETATM   30  N9  UNL     1      20.397  13.796  18.640  1.00  0.00    -0.173 N 
HETATM   31  C15 UNL     1      20.639  11.435  18.682  1.00  0.00     0.146 A 
HETATM   32  C13 UNL     1      21.655  14.008  19.172  1.00  0.00     0.679 A 
ATOM     33  H9  UNL     1      19.813  14.601  18.415  1.00  0.00     0.186 HD
HETATM   34  N11 UNL     1      22.370  12.913  19.440  1.00  0.00    -0.175 N 
HETATM   35  C14 UNL     1      21.921  11.659  19.219  1.00  0.00     0.147 A 
ATOM     36  H11 UNL     1      23.303  13.030  19.833  1.00  0.00     0.186 HD
BRANCH  32  37
HETATM   37  N10 UNL     1      22.139  15.149  19.403  1.00  0.00    -0.234 N 
ATOM     38 2H10 UNL     1      21.673  15.777  20.057  1.00  0.00     0.174 HD
ATOM     39 1H10 UNL     1      22.992  15.504  18.973  1.00  0.00     0.174 HD
ENDBRANCH  32  37
BRANCH  35  40
HETATM   40  N12 UNL     1      22.692  10.729  19.470  1.00  0.00    -0.383 N 
ATOM     41 2H12 UNL     1      22.659  10.228  20.358  1.00  0.00     0.157 HD
ATOM     42 1H12 UNL     1      23.349  10.455  18.739  1.00  0.00     0.157 HD
ENDBRANCH  35  40
ENDBRANCH  23  24
ENDBRANCH  19  23
ENDBRANCH  14  19
ENDBRANCH   8  11
ENDBRANCH   6   7
ENDBRANCH   4   6
BRANCH   4  43
HETATM   43  O3  UNL     1      13.353   2.828  14.850  1.00  0.00    -0.361 OA
ATOM     44  H3  UNL     1      13.209   2.591  13.941  1.00  0.00     0.213 HD
ENDBRANCH   4  43
ENDBRANCH   1   4
BRANCH   1  45
HETATM   45  O4  UNL     1      14.396   6.118  14.761  1.00  0.00    -0.376 OA
ATOM     46  H4  UNL     1      14.531   5.900  13.846  1.00  0.00     0.211 HD
ENDBRANCH   1  45
TORSDOF 12
ENDMDL
MODEL 5
REMARK VINA RESULT: -7.198021913      0.977      1.939
REMARK  12 active torsions:
REMARK  status: ('A' for Active; 'I' for Inactive)
REMARK    1  A    between atoms: C2_3  and  C3_4 
REMARK       I    between atoms: C3_4  and  N2_6 
REMARK    2  A    between atoms: N2_6  and  O2_8 
REMARK    3  A    between atoms: O2_8  and  C4_9 
REMARK    4  A    between atoms: C4_9  and  O3_11 
REMARK    5  A    between atoms: C4_9  and  C6_13 
REMARK    6  A    between atoms: C6_13  and  O4_14 
REMARK    7  A    between atoms: C8_22  and  C9_23 
REMARK    8  A    between atoms: C9_23  and  O5_25 
REMARK    9  A    between atoms: C9_23  and  C11_27 
REMARK   10  A    between atoms: C11_27  and  N6_28 
REMARK   11  A    between atoms: C13_36  and  N10_37 
REMARK   12  A    between atoms: C14_42  and  N12_43 
ROOT
HETATM    1  C6  UNL     1      14.434   3.975  14.056  1.00  0.00     0.288 C 
HETATM    2  C7  UNL     1      13.224   4.779  14.212  1.00  0.00     0.096 C 
HETATM    3  N3  UNL     1      12.277   5.397  14.353  1.00  0.00    -0.194 NA
ENDROOT
BRANCH   1   4
HETATM    4  C4  UNL     1      15.358   4.286  15.243  1.00  0.00     0.223 C 
HETATM    5  C5  UNL     1      16.635   3.545  14.950  1.00  0.00     0.085 C 
BRANCH   4   6
HETATM    6  O2  UNL     1      15.495   5.666  15.257  1.00  0.00    -0.234 OA
BRANCH   6   7
HETATM    7  N2  UNL     1      16.706   6.077  15.663  1.00  0.00    -0.225 N 
HETATM    8  C3  UNL     1      16.908   6.413  17.043  1.00  0.00     0.310 C 
HETATM    9  O1  UNL     1      15.917   6.295  17.799  1.00  0.00    -0.262 OA
ATOM     10  H2  UNL     1      17.475   6.149  14.996  1.00  0.00     0.198 HD
BRANCH   8  11
HETATM   11  C2  UNL     1      18.228   6.865  17.474  1.00  0.00     0.194 A 
HETATM   12  N1  UNL     1      18.681   8.114  17.600  1.00  0.00    -0.318 N 
HETATM   13  C1  UNL     1      17.882   9.301  17.425  1.00  0.00     0.159 C 
HETATM   14  C8  UNL     1      20.018   8.117  17.975  1.00  0.00     0.140 A 
HETATM   15  N5  UNL     1      20.294   6.819  18.060  1.00  0.00    -0.284 N 
HETATM   16  N4  UNL     1      19.277   6.054  17.773  1.00  0.00    -0.279 N 
ATOM     17  H5  UNL     1      21.211   6.457  18.322  1.00  0.00     0.188 HD
ATOM     18  H4  UNL     1      19.270   5.034  17.775  1.00  0.00     0.189 HD
BRANCH  14  19
HETATM   19  C9  UNL     1      20.828   9.317  18.159  1.00  0.00     0.147 C 
HETATM   20  C10 UNL     1      22.285   8.796  18.362  1.00  0.00     0.060 C 
BRANCH  19  21
HETATM   21  O5  UNL     1      20.849  10.075  16.963  1.00  0.00    -0.377 OA
ATOM     22  H5  UNL     1      20.804  11.001  17.165  1.00  0.00     0.211 HD
ENDBRANCH  19  21
BRANCH  19  23
HETATM   23  C11 UNL     1      20.555  10.180  19.327  1.00  0.00     0.136 C 
BRANCH  23  24
HETATM   24  N6  UNL     1      21.262  11.383  19.515  1.00  0.00    -0.246 N 
HETATM   25  N7  UNL     1      22.405  11.372  20.273  1.00  0.00    -0.234 N 
HETATM   26  N8  UNL     1      22.951  12.531  20.286  1.00  0.00    -0.268 N 
ATOM     27  H7  UNL     1      22.771  10.553  20.759  1.00  0.00     0.209 HD
HETATM   28  C12 UNL     1      22.178  13.378  19.523  1.00  0.00     0.169 A 
ATOM     29  H8  UNL     1      23.808  12.782  20.777  1.00  0.00     0.190 HD
HETATM   30  N9  UNL     1      22.309  14.663  19.247  1.00  0.00    -0.173 N 
HETATM   31  C15 UNL     1      21.133  12.610  19.064  1.00  0.00     0.146 A 
HETATM   32  C13 UNL     1      21.394  15.342  18.464  1.00  0.00     0.679 A 
ATOM     33  H9  UNL     1      23.110  15.170  19.623  1.00  0.00     0.186 HD
HETATM   34  N11 UNL     1      20.367  14.623  18.006  1.00  0.00    -0.175 N 
HETATM   35  C14 UNL     1      20.202  13.309  18.272  1.00  0.00     0.147 A 
ATOM     36  H11 UNL     1      19.670  15.089  17.426  1.00  0.00     0.186 HD
BRANCH  32  37
HETATM   37  N10 UNL     1      21.483  16.566  18.178  1.00  0.00    -0.234 N 
ATOM     38 2H10 UNL     1      22.112  17.169  18.707  1.00  0.00     0.174 HD
ATOM     39 1H10 UNL     1      20.957  17.016  17.429  1.00  0.00     0.174 HD
ENDBRANCH  32  37
BRANCH  35  40
HETATM   40  N12 UNL     1      19.189  12.763  17.824  1.00  0.00    -0.383 N 
ATOM     41 2H12 UNL     1      19.205  11.808  17.469  1.00  0.00     0.157 HD
ATOM     42 1H12 UNL     1      18.319  13.296  17.853  1.00  0.00     0.157 HD
ENDBRANCH  35  40
ENDBRANCH  23  24
ENDBRANCH  19  23
ENDBRANCH  14  19
ENDBRANCH   8  11
ENDBRANCH   6   7
ENDBRANCH   4   6
BRANCH   4  43
HETATM   43  O3  UNL     1      14.780   3.757  16.369  1.00  0.00    -0.361 OA
ATOM     44  H3  UNL     1      13.832   3.698  16.338  1.00  0.00     0.213 HD
ENDBRANCH   4  43
ENDBRANCH   1   4
BRANCH   1  45
HETATM   45  O4  UNL     1      14.137   2.621  14.124  1.00  0.00    -0.376 OA
ATOM     46  H4  UNL     1      14.962   2.155  14.056  1.00  0.00     0.211 HD
ENDBRANCH   1  45
TORSDOF 12
ENDMDL
