MODEL 1
REMARK VINA RESULT: -8.467458779      0.000      0.000
REMARK  10 active torsions:
REMARK  status: ('A' for Active; 'I' for Inactive)
REMARK    1  A    between atoms: N1_1  and  C1_4 
REMARK    2  A    between atoms: N6_16  and  C4_17 
REMARK    3  A    between atoms: C4_17  and  C5_18 
REMARK    4  A    between atoms: N7_20  and  C7_21 
REMARK    5  A    between atoms: C7_21  and  O1_22 
REMARK    6  A    between atoms: C7_21  and  C8_24 
REMARK    7  A    between atoms: C8_24  and  O2_25 
REMARK    8  A    between atoms: C8_24  and  C9_27 
REMARK    9  A    between atoms: C9_27  and  N8_28 
REMARK   10  A    between atoms: C12_33  and  N10_34 
ROOT
HETATM    1  C5  UNL     1      19.321   8.601  17.592  1.00  0.00     0.064 A 
HETATM    2  C6  UNL     1      18.380   7.728  18.090  1.00  0.00     0.143 A 
HETATM    3  N7  UNL     1      17.680   7.244  17.050  1.00  0.00    -0.255 N 
HETATM    4  N13 UNL     1      18.181   7.803  15.976  1.00  0.00    -0.238 N 
ATOM      5  H13 UNL     1      17.846   7.625  15.029  1.00  0.00     0.208 HD
HETATM    6  N14 UNL     1      19.159   8.617  16.263  1.00  0.00    -0.287 N 
ATOM      7  H14 UNL     1      19.703   9.165  15.596  1.00  0.00     0.188 HD
ENDROOT
BRANCH   3   8
HETATM    8  C7  UNL     1      16.591   6.300  17.059  1.00  0.00     0.272 C 
BRANCH   8   9
HETATM    9  O1  UNL     1      16.562   5.652  18.308  1.00  0.00    -0.372 OA
ATOM     10  H1  UNL     1      15.884   4.986  18.293  1.00  0.00     0.212 HD
ENDBRANCH   8   9
BRANCH   8  11
HETATM   11  C8  UNL     1      16.806   5.296  15.947  1.00  0.00     0.186 C 
BRANCH  11  12
HETATM   12  O2  UNL     1      18.126   4.831  16.065  1.00  0.00    -0.389 OA
ATOM     13  H2  UNL     1      18.637   5.278  15.401  1.00  0.00     0.210 HD
ENDBRANCH  11  12
BRANCH  11  14
HETATM   14  C9  UNL     1      15.898   4.095  16.115  1.00  0.00     0.167 C 
BRANCH  14  15
HETATM   15  N8  UNL     1      14.608   4.338  15.479  1.00  0.00    -0.325 N 
HETATM   16  C10 UNL     1      14.210   5.460  14.855  1.00  0.00     0.185 A 
HETATM   17  N9  UNL     1      12.972   5.309  14.401  1.00  0.00    -0.346 N 
HETATM   18  C11 UNL     1      12.517   4.082  14.713  1.00  0.00     0.122 A 
ATOM     19  H9  UNL     1      12.444   6.017  13.892  1.00  0.00     0.167 HD
HETATM   20  C12 UNL     1      11.344   3.396  14.504  1.00  0.00     0.131 A 
HETATM   21  C14 UNL     1      13.572   3.480  15.398  1.00  0.00     0.140 A 
HETATM   22  N11 UNL     1      11.238   2.147  14.970  1.00  0.00    -0.337 N 
HETATM   23  C13 UNL     1      12.256   1.567  15.630  1.00  0.00     0.183 A 
ATOM     24  H11 UNL     1      10.373   1.627  14.822  1.00  0.00     0.168 HD
HETATM   25  N12 UNL     1      13.404   2.223  15.840  1.00  0.00    -0.336 N 
ATOM     26  H12 UNL     1      14.162   1.762  16.343  1.00  0.00     0.168 HD
BRANCH  20  27
HETATM   27  N10 UNL     1      10.352   3.919  13.876  1.00  0.00    -0.383 N 
ATOM     28 2H10 UNL     1      10.503   4.758  13.316  1.00  0.00     0.157 HD
ATOM     29 1H10 UNL     1       9.414   3.521  13.921  1.00  0.00     0.157 HD
ENDBRANCH  20  27
ENDBRANCH  14  15
ENDBRANCH  11  14
ENDBRANCH   8  11
ENDBRANCH   3   8
BRANCH   1  30
HETATM   30  C4  UNL     1      20.339   9.398  18.308  1.00  0.00     0.212 C 
BRANCH  30  31
HETATM   31  N6  UNL     1      20.045  10.818  18.277  1.00  0.00    -0.254 N 
HETATM   32  N5  UNL     1      18.884  11.390  18.044  1.00  0.00    -0.238 N 
HETATM   33  N4  UNL     1      18.988  12.716  18.095  1.00  0.00    -0.279 N 
ATOM     34  H5  UNL     1      18.019  10.885  17.850  1.00  0.00     0.208 HD
HETATM   35  C3  UNL     1      20.264  13.045  18.373  1.00  0.00     0.140 A 
ATOM     36  H4  UNL     1      18.224  13.375  17.948  1.00  0.00     0.189 HD
HETATM   37  C2  UNL     1      20.925  14.244  18.539  1.00  0.00     0.147 A 
HETATM   38  C15 UNL     1      20.921  11.822  18.484  1.00  0.00     0.171 A 
HETATM   39  N2  UNL     1      22.240  14.198  18.816  1.00  0.00    -0.175 N 
HETATM   40  N3  UNL     1      20.319  15.367  18.436  1.00  0.00    -0.383 N 
HETATM   41  C1  UNL     1      22.885  13.010  18.927  1.00  0.00     0.679 A 
ATOM     42  H2  UNL     1      22.759  15.066  18.944  1.00  0.00     0.186 HD
HETATM   43  N15 UNL     1      22.240  11.840  18.764  1.00  0.00    -0.173 N 
ATOM     44  H15 UNL     1      22.752  10.962  18.852  1.00  0.00     0.186 HD
ATOM     45  H32 UNL     1      20.808  16.254  18.559  1.00  0.00     0.157 HD
ATOM     46  H31 UNL     1      19.322  15.403  18.226  1.00  0.00     0.157 HD
BRANCH  41  47
HETATM   47  N1  UNL     1      24.159  13.022  19.196  1.00  0.00    -0.234 N 
ATOM     48  H12 UNL     1      24.805  12.460  18.640  1.00  0.00     0.174 HD
ATOM     49  H11 UNL     1      24.485  13.602  19.969  1.00  0.00     0.174 HD
ENDBRANCH  41  47
ENDBRANCH  30  31
ENDBRANCH   1  30
TORSDOF 10
ENDMDL
MODEL 2
REMARK VINA RESULT: -8.464770552      1.560     10.796
REMARK  10 active torsions:
REMARK  status: ('A' for Active; 'I' for Inactive)
REMARK    1  A    between atoms: N1_1  and  C1_4 
REMARK    2  A    between atoms: N6_16  and  C4_17 
REMARK    3  A    between atoms: C4_17  and  C5_18 
REMARK    4  A    between atoms: N7_20  and  C7_21 
REMARK    5  A    between atoms: C7_21  and  O1_22 
REMARK    6  A    between atoms: C7_21  and  C8_24 
REMARK    7  A    between atoms: C8_24  and  O2_25 
REMARK    8  A    between atoms: C8_24  and  C9_27 
REMARK    9  A    between atoms: C9_27  and  N8_28 
REMARK   10  A    between atoms: C12_33  and  N10_34 
ROOT
HETATM    1  C5  UNL     1      17.027   4.728  15.916  1.00  0.00     0.064 A 
HETATM    2  C6  UNL     1      17.678   5.598  16.760  1.00  0.00     0.143 A 
HETATM    3  N7  UNL     1      18.572   6.286  16.029  1.00  0.00    -0.255 N 
HETATM    4  N13 UNL     1      18.459   5.845  14.799  1.00  0.00    -0.238 N 
ATOM      5  H13 UNL     1      19.017   6.187  14.016  1.00  0.00     0.208 HD
HETATM    6  N14 UNL     1      17.548   4.918  14.697  1.00  0.00    -0.287 N 
ATOM      7  H14 UNL     1      17.281   4.426  13.844  1.00  0.00     0.188 HD
ENDROOT
BRANCH   3   8
HETATM    8  C7  UNL     1      19.491   7.309  16.459  1.00  0.00     0.272 C 
BRANCH   8   9
HETATM    9  O1  UNL     1      19.841   7.070  17.800  1.00  0.00    -0.372 OA
ATOM     10  H1  UNL     1      20.494   6.380  17.829  1.00  0.00     0.212 HD
ENDBRANCH   8   9
BRANCH   8  11
HETATM   11  C8  UNL     1      18.820   8.659  16.318  1.00  0.00     0.186 C 
BRANCH  11  12
HETATM   12  O2  UNL     1      17.723   8.483  15.459  1.00  0.00    -0.389 OA
ATOM     13  H2  UNL     1      18.059   8.109  14.653  1.00  0.00     0.210 HD
ENDBRANCH  11  12
BRANCH  11  14
HETATM   14  C9  UNL     1      18.269   9.134  17.647  1.00  0.00     0.167 C 
BRANCH  14  15
HETATM   15  N8  UNL     1      18.902  10.388  18.043  1.00  0.00    -0.325 N 
HETATM   16  C10 UNL     1      18.350  11.614  18.028  1.00  0.00     0.185 A 
HETATM   17  N9  UNL     1      19.231  12.509  18.459  1.00  0.00    -0.346 N 
HETATM   18  C11 UNL     1      20.388  11.899  18.769  1.00  0.00     0.122 A 
ATOM     19  H9  UNL     1      19.055  13.510  18.542  1.00  0.00     0.167 HD
HETATM   20  C12 UNL     1      21.609  12.313  19.249  1.00  0.00     0.131 A 
HETATM   21  C14 UNL     1      20.159  10.551  18.498  1.00  0.00     0.140 A 
HETATM   22  N11 UNL     1      22.565  11.399  19.447  1.00  0.00    -0.337 N 
HETATM   23  C13 UNL     1      22.342  10.099  19.185  1.00  0.00     0.183 A 
ATOM     24  H11 UNL     1      23.475  11.692  19.802  1.00  0.00     0.168 HD
HETATM   25  N12 UNL     1      21.159   9.682  18.719  1.00  0.00    -0.336 N 
ATOM     26  H12 UNL     1      21.014   8.690  18.528  1.00  0.00     0.168 HD
BRANCH  20  27
HETATM   27  N10 UNL     1      21.855  13.547  19.510  1.00  0.00    -0.383 N 
ATOM     28 2H10 UNL     1      21.107  14.138  19.871  1.00  0.00     0.157 HD
ATOM     29 1H10 UNL     1      22.778  13.956  19.367  1.00  0.00     0.157 HD
ENDBRANCH  20  27
ENDBRANCH  14  15
ENDBRANCH  11  14
ENDBRANCH   8  11
ENDBRANCH   3   8
BRANCH   1  30
HETATM   30  C4  UNL     1      15.958   3.751  16.212  1.00  0.00     0.212 C 
BRANCH  30  31
HETATM   31  N6  UNL     1      14.677   4.159  15.667  1.00  0.00    -0.254 N 
HETATM   32  N5  UNL     1      14.278   5.380  15.390  1.00  0.00    -0.238 N 
HETATM   33  N4  UNL     1      13.040   5.377  14.902  1.00  0.00    -0.279 N 
ATOM     34  H5  UNL     1      14.842   6.219  15.530  1.00  0.00     0.208 HD
HETATM   35  C3  UNL     1      12.593   4.108  14.849  1.00  0.00     0.140 A 
ATOM     36  H4  UNL     1      12.515   6.202  14.614  1.00  0.00     0.189 HD
HETATM   37  C2  UNL     1      11.409   3.530  14.440  1.00  0.00     0.147 A 
HETATM   38  C15 UNL     1      13.650   3.347  15.341  1.00  0.00     0.171 A 
HETATM   39  N2  UNL     1      11.305   2.192  14.530  1.00  0.00    -0.175 N 
HETATM   40  N3  UNL     1      10.438   4.230  13.987  1.00  0.00    -0.383 N 
HETATM   41  C1  UNL     1      12.332   1.446  15.007  1.00  0.00     0.679 A 
ATOM     42  H2  UNL     1      10.444   1.733  14.235  1.00  0.00     0.186 HD
HETATM   43  N15 UNL     1      13.486   2.010  15.408  1.00  0.00    -0.173 N 
ATOM     44  H15 UNL     1      14.241   1.424  15.763  1.00  0.00     0.186 HD
ATOM     45  H32 UNL     1       9.563   3.803  13.684  1.00  0.00     0.157 HD
ATOM     46  H31 UNL     1      10.516   5.244  13.919  1.00  0.00     0.157 HD
BRANCH  41  47
HETATM   47  N1  UNL     1      12.179   0.154  15.073  1.00  0.00    -0.234 N 
ATOM     48  H12 UNL     1      12.561  -0.366  15.863  1.00  0.00     0.174 HD
ATOM     49  H11 UNL     1      11.672  -0.312  14.321  1.00  0.00     0.174 HD
ENDBRANCH  41  47
ENDBRANCH  30  31
ENDBRANCH   1  30
TORSDOF 10
ENDMDL
MODEL 3
REMARK VINA RESULT: -8.455844795      0.951      1.774
REMARK  10 active torsions:
REMARK  status: ('A' for Active; 'I' for Inactive)
REMARK    1  A    between atoms: N1_1  and  C1_4 
REMARK    2  A    between atoms: N6_16  and  C4_17 
REMARK    3  A    between atoms: C4_17  and  C5_18 
REMARK    4  A    between atoms: N7_20  and  C7_21 
REMARK    5  A    between atoms: C7_21  and  O1_22 
REMARK    6  A    between atoms: C7_21  and  C8_24 
REMARK    7  A    between atoms: C8_24  and  O2_25 
REMARK    8  A    between atoms: C8_24  and  C9_27 
REMARK    9  A    between atoms: C9_27  and  N8_28 
REMARK   10  A    between atoms: C12_33  and  N10_34 
ROOT
HETATM    1  C5  UNL     1      18.977   9.020  18.077  1.00  0.00     0.064 A 
HETATM    2  C6  UNL     1      19.023   7.646  18.007  1.00  0.00     0.143 A 
HETATM    3  N7  UNL     1      18.240   7.262  16.983  1.00  0.00    -0.255 N 
HETATM    4  N13 UNL     1      17.747   8.360  16.464  1.00  0.00    -0.238 N 
ATOM      5  H13 UNL     1      17.112   8.381  15.666  1.00  0.00     0.208 HD
HETATM    6  N14 UNL     1      18.166   9.425  17.092  1.00  0.00    -0.287 N 
ATOM      7  H14 UNL     1      17.920  10.390  16.871  1.00  0.00     0.188 HD
ENDROOT
BRANCH   3   8
HETATM    8  C7  UNL     1      17.964   5.929  16.511  1.00  0.00     0.272 C 
BRANCH   8   9
HETATM    9  O1  UNL     1      18.023   5.924  15.105  1.00  0.00    -0.372 OA
ATOM     10  H1  UNL     1      18.806   5.459  14.833  1.00  0.00     0.212 HD
ENDBRANCH   8   9
BRANCH   8  11
HETATM   11  C8  UNL     1      16.587   5.517  16.985  1.00  0.00     0.186 C 
BRANCH  11  12
HETATM   12  O2  UNL     1      16.177   6.473  17.930  1.00  0.00    -0.389 OA
ATOM     13  H2  UNL     1      15.231   6.412  17.993  1.00  0.00     0.210 HD
ENDBRANCH  11  12
BRANCH  11  14
HETATM   14  C9  UNL     1      15.585   5.560  15.850  1.00  0.00     0.167 C 
BRANCH  14  15
HETATM   15  N8  UNL     1      14.808   4.326  15.809  1.00  0.00    -0.325 N 
HETATM   16  C10 UNL     1      15.180   3.117  16.266  1.00  0.00     0.185 A 
HETATM   17  N9  UNL     1      14.209   2.237  16.055  1.00  0.00    -0.346 N 
HETATM   18  C11 UNL     1      13.169   2.840  15.453  1.00  0.00     0.122 A 
ATOM     19  H9  UNL     1      14.247   1.251  16.311  1.00  0.00     0.167 HD
HETATM   20  C12 UNL     1      11.932   2.434  15.010  1.00  0.00     0.131 A 
HETATM   21  C14 UNL     1      13.569   4.167  15.305  1.00  0.00     0.140 A 
HETATM   22  N11 UNL     1      11.126   3.335  14.438  1.00  0.00    -0.337 N 
HETATM   23  C13 UNL     1      11.513   4.616  14.297  1.00  0.00     0.183 A 
ATOM     24  H11 UNL     1      10.206   3.048  14.105  1.00  0.00     0.168 HD
HETATM   25  N12 UNL     1      12.714   5.025  14.723  1.00  0.00    -0.336 N 
ATOM     26  H12 UNL     1      12.985   6.001  14.605  1.00  0.00     0.168 HD
BRANCH  20  27
HETATM   27  N10 UNL     1      11.530   1.219  15.130  1.00  0.00    -0.383 N 
ATOM     28 2H10 UNL     1      11.821   0.528  14.440  1.00  0.00     0.157 HD
ATOM     29 1H10 UNL     1      10.927   0.923  15.897  1.00  0.00     0.157 HD
ENDBRANCH  20  27
ENDBRANCH  14  15
ENDBRANCH  11  14
ENDBRANCH   8  11
ENDBRANCH   3   8
BRANCH   1  30
HETATM   30  C4  UNL     1      19.654   9.938  19.016  1.00  0.00     0.212 C 
BRANCH  30  31
HETATM   31  N6  UNL     1      19.597  11.317  18.571  1.00  0.00    -0.254 N 
HETATM   32  N5  UNL     1      18.664  11.884  17.839  1.00  0.00    -0.238 N 
HETATM   33  N4  UNL     1      18.941  13.168  17.624  1.00  0.00    -0.279 N 
ATOM     34  H5  UNL     1      17.837  11.404  17.483  1.00  0.00     0.208 HD
HETATM   35  C3  UNL     1      20.102  13.474  18.235  1.00  0.00     0.140 A 
ATOM     36  H4  UNL     1      18.367  13.815  17.085  1.00  0.00     0.189 HD
HETATM   37  C2  UNL     1      20.848  14.629  18.341  1.00  0.00     0.147 A 
HETATM   38  C15 UNL     1      20.504  12.282  18.832  1.00  0.00     0.171 A 
HETATM   39  N2  UNL     1      21.990  14.570  19.049  1.00  0.00    -0.175 N 
HETATM   40  N3  UNL     1      20.477  15.724  17.792  1.00  0.00    -0.383 N 
HETATM   41  C1  UNL     1      22.386  13.412  19.633  1.00  0.00     0.679 A 
ATOM     42  H2  UNL     1      22.566  15.406  19.147  1.00  0.00     0.186 HD
HETATM   43  N15 UNL     1      21.659  12.285  19.528  1.00  0.00    -0.173 N 
ATOM     44  H15 UNL     1      21.982  11.428  19.978  1.00  0.00     0.186 HD
ATOM     45  H32 UNL     1      21.028  16.578  17.871  1.00  0.00     0.157 HD
ATOM     46  H31 UNL     1      19.611  15.769  17.255  1.00  0.00     0.157 HD
BRANCH  41  47
HETATM   47  N1  UNL     1      23.501  13.410  20.306  1.00  0.00    -0.234 N 
ATOM     48  H12 UNL     1      24.383  13.614  19.836  1.00  0.00     0.174 HD
ATOM     49  H11 UNL     1      23.463  13.201  21.304  1.00  0.00     0.174 HD
ENDBRANCH  41  47
ENDBRANCH  30  31
ENDBRANCH   1  30
TORSDOF 10
ENDMDL
MODEL 4
REMARK VINA RESULT: -8.403963188      1.550     11.017
REMARK  10 active torsions:
REMARK  status: ('A' for Active; 'I' for Inactive)
REMARK    1  A    between atoms: N1_1  and  C1_4 
REMARK    2  A    between atoms: N6_16  and  C4_17 
REMARK    3  A    between atoms: C4_17  and  C5_18 
REMARK    4  A    between atoms: N7_20  and  C7_21 
REMARK    5  A    between atoms: C7_21  and  O1_22 
REMARK    6  A    between atoms: C7_21  and  C8_24 
REMARK    7  A    between atoms: C8_24  and  O2_25 
REMARK    8  A    between atoms: C8_24  and  C9_27 
REMARK    9  A    between atoms: C9_27  and  N8_28 
REMARK   10  A    between atoms: C12_33  and  N10_34 
ROOT
HETATM    1  C5  UNL     1      16.952   5.642  16.260  1.00  0.00     0.064 A 
HETATM    2  C6  UNL     1      16.922   6.602  17.246  1.00  0.00     0.143 A 
HETATM    3  N7  UNL     1      17.826   7.545  16.927  1.00  0.00    -0.255 N 
HETATM    4  N13 UNL     1      18.373   7.164  15.798  1.00  0.00    -0.238 N 
ATOM      5  H13 UNL     1      19.100   7.687  15.310  1.00  0.00     0.208 HD
HETATM    6  N14 UNL     1      17.875   6.035  15.373  1.00  0.00    -0.287 N 
ATOM      7  H14 UNL     1      18.140   5.542  14.520  1.00  0.00     0.188 HD
ENDROOT
BRANCH   3   8
HETATM    8  C7  UNL     1      18.165   8.747  17.645  1.00  0.00     0.272 C 
BRANCH   8   9
HETATM    9  O1  UNL     1      17.802   9.860  16.863  1.00  0.00    -0.372 OA
ATOM     10  H1  UNL     1      18.111  10.650  17.292  1.00  0.00     0.212 HD
ENDBRANCH   8   9
BRANCH   8  11
HETATM   11  C8  UNL     1      19.654   8.753  17.914  1.00  0.00     0.186 C 
BRANCH  11  12
HETATM   12  O2  UNL     1      20.228   9.677  17.025  1.00  0.00    -0.389 OA
ATOM     13  H2  UNL     1      19.830  10.520  17.207  1.00  0.00     0.210 HD
ENDBRANCH  11  12
BRANCH  11  14
HETATM   14  C9  UNL     1      19.952   9.245  19.316  1.00  0.00     0.167 C 
BRANCH  14  15
HETATM   15  N8  UNL     1      20.781  10.445  19.269  1.00  0.00    -0.325 N 
HETATM   16  C10 UNL     1      22.076  10.550  19.613  1.00  0.00     0.185 A 
HETATM   17  N9  UNL     1      22.490  11.798  19.436  1.00  0.00    -0.346 N 
HETATM   18  C11 UNL     1      21.479  12.554  18.972  1.00  0.00     0.122 A 
ATOM     19  H9  UNL     1      23.434  12.135  19.625  1.00  0.00     0.167 HD
HETATM   20  C12 UNL     1      21.333  13.875  18.619  1.00  0.00     0.131 A 
HETATM   21  C14 UNL     1      20.401  11.675  18.872  1.00  0.00     0.140 A 
HETATM   22  N11 UNL     1      20.142  14.295  18.181  1.00  0.00    -0.337 N 
HETATM   23  C13 UNL     1      19.103  13.447  18.085  1.00  0.00     0.183 A 
ATOM     24  H11 UNL     1      20.019  15.273  17.916  1.00  0.00     0.168 HD
HETATM   25  N12 UNL     1      19.231  12.158  18.425  1.00  0.00    -0.336 N 
ATOM     26  H12 UNL     1      18.428  11.534  18.343  1.00  0.00     0.168 HD
BRANCH  20  27
HETATM   27  N10 UNL     1      22.305  14.712  18.697  1.00  0.00    -0.383 N 
ATOM     28 2H10 UNL     1      23.264  14.366  18.672  1.00  0.00     0.157 HD
ATOM     29 1H10 UNL     1      22.148  15.716  18.784  1.00  0.00     0.157 HD
ENDBRANCH  20  27
ENDBRANCH  14  15
ENDBRANCH  11  14
ENDBRANCH   8  11
ENDBRANCH   3   8
BRANCH   1  30
HETATM   30  C4  UNL     1      16.159   4.401  16.129  1.00  0.00     0.212 C 
BRANCH  30  31
HETATM   31  N6  UNL     1      14.863   4.640  15.526  1.00  0.00    -0.254 N 
HETATM   32  N5  UNL     1      14.435   5.748  14.961  1.00  0.00    -0.238 N 
HETATM   33  N4  UNL     1      13.190   5.604  14.514  1.00  0.00    -0.279 N 
ATOM     34  H5  UNL     1      14.984   6.604  14.877  1.00  0.00     0.208 HD
HETATM   35  C3  UNL     1      12.767   4.355  14.788  1.00  0.00     0.140 A 
ATOM     36  H4  UNL     1      12.644   6.323  14.040  1.00  0.00     0.189 HD
HETATM   37  C2  UNL     1      11.589   3.675  14.559  1.00  0.00     0.147 A 
HETATM   38  C15 UNL     1      13.847   3.757  15.433  1.00  0.00     0.171 A 
HETATM   39  N2  UNL     1      11.514   2.400  14.982  1.00  0.00    -0.175 N 
HETATM   40  N3  UNL     1      10.597   4.225  13.966  1.00  0.00    -0.383 N 
HETATM   41  C1  UNL     1      12.562   1.813  15.609  1.00  0.00     0.679 A 
ATOM     42  H2  UNL     1      10.657   1.868  14.828  1.00  0.00     0.186 HD
HETATM   43  N15 UNL     1      13.711   2.477  15.834  1.00  0.00    -0.173 N 
ATOM     44  H15 UNL     1      14.483   2.010  16.309  1.00  0.00     0.186 HD
ATOM     45  H32 UNL     1       9.727   3.722  13.796  1.00  0.00     0.157 HD
ATOM     46  H31 UNL     1      10.654   5.191  13.646  1.00  0.00     0.157 HD
BRANCH  41  47
HETATM   47  N1  UNL     1      12.436   0.576  15.998  1.00  0.00    -0.234 N 
ATOM     48  H12 UNL     1      11.510   0.155  16.071  1.00  0.00     0.174 HD
ATOM     49  H11 UNL     1      13.281   0.051  16.223  1.00  0.00     0.174 HD
ENDBRANCH  41  47
ENDBRANCH  30  31
ENDBRANCH   1  30
TORSDOF 10
ENDMDL
MODEL 5
REMARK VINA RESULT: -8.342157712      1.393     11.086
REMARK  10 active torsions:
REMARK  status: ('A' for Active; 'I' for Inactive)
REMARK    1  A    between atoms: N1_1  and  C1_4 
REMARK    2  A    between atoms: N6_16  and  C4_17 
REMARK    3  A    between atoms: C4_17  and  C5_18 
REMARK    4  A    between atoms: N7_20  and  C7_21 
REMARK    5  A    between atoms: C7_21  and  O1_22 
REMARK    6  A    between atoms: C7_21  and  C8_24 
REMARK    7  A    between atoms: C8_24  and  O2_25 
REMARK    8  A    between atoms: C8_24  and  C9_27 
REMARK    9  A    between atoms: C9_27  and  N8_28 
REMARK   10  A    between atoms: C12_33  and  N10_34 
ROOT
HETATM    1  C5  UNL     1      17.079   4.937  15.515  1.00  0.00     0.064 A 
HETATM    2  C6  UNL     1      16.948   5.729  16.632  1.00  0.00     0.143 A 
HETATM    3  N7  UNL     1      17.924   6.653  16.596  1.00  0.00    -0.255 N 
HETATM    4  N13 UNL     1      18.610   6.422  15.502  1.00  0.00    -0.238 N 
ATOM      5  H13 UNL     1      19.418   6.970  15.208  1.00  0.00     0.208 HD
HETATM    6  N14 UNL     1      18.133   5.407  14.836  1.00  0.00    -0.287 N 
ATOM      7  H14 UNL     1      18.497   5.039  13.956  1.00  0.00     0.188 HD
ENDROOT
BRANCH   3   8
HETATM    8  C7  UNL     1      18.204   7.705  17.540  1.00  0.00     0.272 C 
BRANCH   8   9
HETATM    9  O1  UNL     1      17.085   7.875  18.376  1.00  0.00    -0.372 OA
ATOM     10  H1  UNL     1      16.740   8.752  18.252  1.00  0.00     0.212 HD
ENDBRANCH   8   9
BRANCH   8  11
HETATM   11  C8  UNL     1      18.495   8.980  16.779  1.00  0.00     0.186 C 
BRANCH  11  12
HETATM   12  O2  UNL     1      17.637   8.998  15.667  1.00  0.00    -0.389 OA
ATOM     13  H2  UNL     1      17.005   9.691  15.816  1.00  0.00     0.210 HD
ENDBRANCH  11  12
BRANCH  11  14
HETATM   14  C9  UNL     1      18.163  10.200  17.613  1.00  0.00     0.167 C 
BRANCH  14  15
HETATM   15  N8  UNL     1      19.368  10.732  18.241  1.00  0.00    -0.325 N 
HETATM   16  C10 UNL     1      20.321  10.036  18.886  1.00  0.00     0.185 A 
HETATM   17  N9  UNL     1      21.264  10.862  19.323  1.00  0.00    -0.346 N 
HETATM   18  C11 UNL     1      20.960  12.126  18.980  1.00  0.00     0.122 A 
ATOM     19  H9  UNL     1      22.095  10.579  19.841  1.00  0.00     0.167 HD
HETATM   20  C12 UNL     1      21.552  13.353  19.160  1.00  0.00     0.131 A 
HETATM   21  C14 UNL     1      19.750  12.023  18.293  1.00  0.00     0.140 A 
HETATM   22  N11 UNL     1      20.947  14.438  18.667  1.00  0.00    -0.337 N 
HETATM   23  C13 UNL     1      19.781  14.338  18.004  1.00  0.00     0.183 A 
ATOM     24  H11 UNL     1      21.376  15.355  18.794  1.00  0.00     0.168 HD
HETATM   25  N12 UNL     1      19.193  13.149  17.820  1.00  0.00    -0.336 N 
ATOM     26  H12 UNL     1      18.309  13.098  17.314  1.00  0.00     0.168 HD
BRANCH  20  27
HETATM   27  N10 UNL     1      22.667  13.486  19.788  1.00  0.00    -0.383 N 
ATOM     28 2H10 UNL     1      23.374  12.756  19.707  1.00  0.00     0.157 HD
ATOM     29 1H10 UNL     1      22.867  14.301  20.367  1.00  0.00     0.157 HD
ENDBRANCH  20  27
ENDBRANCH  14  15
ENDBRANCH  11  14
ENDBRANCH   8  11
ENDBRANCH   3   8
BRANCH   1  30
HETATM   30  C4  UNL     1      16.266   3.783  15.078  1.00  0.00     0.212 C 
BRANCH  30  31
HETATM   31  N6  UNL     1      14.901   4.161  14.768  1.00  0.00    -0.254 N 
HETATM   32  N5  UNL     1      14.462   5.344  14.400  1.00  0.00    -0.238 N 
HETATM   33  N4  UNL     1      13.146   5.323  14.198  1.00  0.00    -0.279 N 
ATOM     34  H5  UNL     1      15.051   6.169  14.284  1.00  0.00     0.208 HD
HETATM   35  C3  UNL     1      12.686   4.080  14.439  1.00  0.00     0.140 A 
ATOM     36  H4  UNL     1      12.579   6.119  13.909  1.00  0.00     0.189 HD
HETATM   37  C2  UNL     1      11.436   3.500  14.389  1.00  0.00     0.147 A 
HETATM   38  C15 UNL     1      13.819   3.355  14.800  1.00  0.00     0.171 A 
HETATM   39  N2  UNL     1      11.342   2.195  14.703  1.00  0.00    -0.175 N 
HETATM   40  N3  UNL     1      10.396   4.168  14.056  1.00  0.00    -0.383 N 
HETATM   41  C1  UNL     1      12.441   1.485  15.055  1.00  0.00     0.679 A 
ATOM     42  H2  UNL     1      10.432   1.736  14.676  1.00  0.00     0.186 HD
HETATM   43  N15 UNL     1      13.661   2.051  15.104  1.00  0.00    -0.173 N 
ATOM     44  H15 UNL     1      14.470   1.491  15.373  1.00  0.00     0.186 HD
ATOM     45  H32 UNL     1       9.471   3.738  14.019  1.00  0.00     0.157 HD
ATOM     46  H31 UNL     1      10.467   5.156  13.818  1.00  0.00     0.157 HD
BRANCH  41  47
HETATM   47  N1  UNL     1      12.294   0.224  15.350  1.00  0.00    -0.234 N 
ATOM     48  H12 UNL     1      12.519  -0.111  16.287  1.00  0.00     0.174 HD
ATOM     49  H11 UNL     1      11.950  -0.405  14.624  1.00  0.00     0.174 HD
ENDBRANCH  41  47
ENDBRANCH  30  31
ENDBRANCH   1  30
TORSDOF 10
ENDMDL
