MODEL 1
REMARK VINA RESULT: -6.981337551      0.000      0.000
REMARK  11 active torsions:
REMARK  status: ('A' for Active; 'I' for Inactive)
REMARK    1  A    between atoms: N1_1  and  N2_4 
REMARK    2  A    between atoms: C2_9  and  N4_10 
REMARK    3  A    between atoms: C2_9  and  O2_14 
REMARK    4  A    between atoms: N5_17  and  N6_19 
REMARK    5  A    between atoms: C4_21  and  C5_22 
REMARK    6  A    between atoms: C6_23  and  O3_24 
REMARK    7  A    between atoms: C7_26  and  O4_27 
REMARK    8  A    between atoms: C8_29  and  O5_30 
REMARK    9  A    between atoms: C12_37  and  C13_38 
REMARK   10  A    between atoms: C13_38  and  N8_39 
REMARK   11  A    between atoms: N8_39  and  N9_41 
ROOT
HETATM    1  C5  UNL     1      14.688   3.777  15.863  1.00  0.00     0.029 A 
HETATM    2  C6  UNL     1      14.581   5.131  15.458  1.00  0.00     0.114 A 
HETATM    3  C7  UNL     1      13.439   5.586  14.856  1.00  0.00     0.134 A 
HETATM    4  C8  UNL     1      12.402   4.710  14.651  1.00  0.00     0.114 A 
HETATM    5  C9  UNL     1      12.492   3.383  15.042  1.00  0.00     0.027 A 
HETATM    6  C10 UNL     1      11.431   2.541  14.816  1.00  0.00     0.102 A 
HETATM    7  N7  UNL     1      11.472   1.263  15.170  1.00  0.00    -0.374 N 
ATOM      8  H7  UNL     1      10.678   0.647  14.997  1.00  0.00     0.164 HD
HETATM    9  C11 UNL     1      12.583   0.804  15.762  1.00  0.00     0.097 A 
HETATM   10  C12 UNL     1      13.718   1.563  16.043  1.00  0.00    -0.011 A 
HETATM   11  C16 UNL     1      13.645   2.904  15.656  1.00  0.00     0.002 A 
ENDROOT
BRANCH   1  12
HETATM   12  C4  UNL     1      15.911   3.421  16.458  1.00  0.00     0.122 C 
HETATM   13  N6  UNL     1      17.014   3.736  15.742  1.00  0.00    -0.309 N 
ATOM     14  H6  UNL     1      16.898   4.199  14.841  1.00  0.00     0.186 HD
BRANCH  13  15
HETATM   15  N5  UNL     1      18.283   3.458  16.181  1.00  0.00    -0.282 N 
HETATM   16  C3  UNL     1      19.058   4.236  16.820  1.00  0.00     0.209 C 
HETATM   17  N2  UNL     1      20.371   3.935  17.269  1.00  0.00    -0.181 N 
HETATM   18  C2  UNL     1      18.777   5.613  17.239  1.00  0.00     0.368 C 
HETATM   19  N3  UNL     1      20.830   4.964  18.122  1.00  0.00    -0.243 N 
HETATM   20  C1  UNL     1      19.827   5.960  18.250  1.00  0.00     0.309 C 
ATOM     21  H3  UNL     1      21.743   4.988  18.576  1.00  0.00     0.192 HD
HETATM   22  O1  UNL     1      19.775   6.940  19.019  1.00  0.00    -0.266 OA
ATOM     23  H5  UNL     1      18.643   2.527  15.971  1.00  0.00     0.188 HD
BRANCH  17  24
HETATM   24  N1  UNL     1      21.147   2.799  16.946  1.00  0.00    -0.322 N 
ATOM     25  H12 UNL     1      21.209   2.331  16.041  1.00  0.00     0.179 HD
ATOM     26  H11 UNL     1      21.745   2.323  17.621  1.00  0.00     0.179 HD
ENDBRANCH  17  24
BRANCH  18  27
HETATM   27  N4  UNL     1      18.921   6.575  16.162  1.00  0.00    -0.030 N 
ATOM     28  H43 UNL     1      18.401   7.439  16.316  1.00  0.00     0.279 HD
ATOM     29  H42 UNL     1      19.849   6.996  16.114  1.00  0.00     0.279 HD
ATOM     30  H41 UNL     1      18.652   6.086  15.309  1.00  0.00     0.279 HD
ENDBRANCH  18  27
BRANCH  18  31
HETATM   31  O2  UNL     1      17.541   5.742  17.846  1.00  0.00    -0.352 OA
ATOM     32  H2  UNL     1      17.325   4.911  18.253  1.00  0.00     0.213 HD
ENDBRANCH  18  31
ENDBRANCH  13  15
ENDBRANCH   1  12
BRANCH   2  33
HETATM   33  O3  UNL     1      15.628   6.028  15.660  1.00  0.00    -0.357 OA
ATOM     34  H3  UNL     1      16.081   6.428  14.926  1.00  0.00     0.217 HD
ENDBRANCH   2  33
BRANCH   3  35
HETATM   35  O4  UNL     1      13.302   6.901  14.447  1.00  0.00    -0.356 OA
ATOM     36  H4  UNL     1      13.946   7.324  13.891  1.00  0.00     0.218 HD
ENDBRANCH   3  35
BRANCH  10  37
HETATM   37  C13 UNL     1      14.891   0.993  16.669  1.00  0.00     0.180 C 
BRANCH  37  38
HETATM   38  N8  UNL     1      14.417   0.318  17.903  1.00  0.00    -0.324 N 
ATOM     39  H8  UNL     1      13.807  -0.496  17.834  1.00  0.00     0.181 HD
BRANCH  38  40
HETATM   40  N9  UNL     1      14.810   0.799  19.176  1.00  0.00    -0.249 N 
HETATM   41  C14 UNL     1      14.056   0.790  20.272  1.00  0.00     0.223 A 
HETATM   42  N10 UNL     1      14.790   1.318  21.264  1.00  0.00    -0.293 N 
HETATM   43  N11 UNL     1      15.974   1.646  20.786  1.00  0.00    -0.293 N 
ATOM     44  H10 UNL     1      14.482   1.443  22.228  1.00  0.00     0.187 HD
HETATM   45  C15 UNL     1      16.007   1.331  19.491  1.00  0.00     0.223 A 
ATOM     46  H11 UNL     1      16.735   2.070  21.317  1.00  0.00     0.187 HD
ENDBRANCH  38  40
ENDBRANCH  37  38
ENDBRANCH  10  37
BRANCH   4  47
HETATM   47  O5  UNL     1      11.228   5.146  14.039  1.00  0.00    -0.357 OA
ATOM     48  H5  UNL     1      10.814   4.615  13.368  1.00  0.00     0.217 HD
ENDBRANCH   4  47
TORSDOF 11
ENDMDL
MODEL 2
REMARK VINA RESULT: -6.957330341      1.194      1.465
REMARK  11 active torsions:
REMARK  status: ('A' for Active; 'I' for Inactive)
REMARK    1  A    between atoms: N1_1  and  N2_4 
REMARK    2  A    between atoms: C2_9  and  N4_10 
REMARK    3  A    between atoms: C2_9  and  O2_14 
REMARK    4  A    between atoms: N5_17  and  N6_19 
REMARK    5  A    between atoms: C4_21  and  C5_22 
REMARK    6  A    between atoms: C6_23  and  O3_24 
REMARK    7  A    between atoms: C7_26  and  O4_27 
REMARK    8  A    between atoms: C8_29  and  O5_30 
REMARK    9  A    between atoms: C12_37  and  C13_38 
REMARK   10  A    between atoms: C13_38  and  N8_39 
REMARK   11  A    between atoms: N8_39  and  N9_41 
ROOT
HETATM    1  C5  UNL     1      14.466   3.730  15.890  1.00  0.00     0.029 A 
HETATM    2  C6  UNL     1      13.984   4.902  15.254  1.00  0.00     0.114 A 
HETATM    3  C7  UNL     1      12.786   4.888  14.592  1.00  0.00     0.134 A 
HETATM    4  C8  UNL     1      12.061   3.723  14.555  1.00  0.00     0.114 A 
HETATM    5  C9  UNL     1      12.520   2.570  15.173  1.00  0.00     0.027 A 
HETATM    6  C10 UNL     1      11.763   1.426  15.108  1.00  0.00     0.102 A 
HETATM    7  N7  UNL     1      12.161   0.298  15.682  1.00  0.00    -0.374 N 
ATOM      8  H7  UNL     1      11.591  -0.546  15.627  1.00  0.00     0.164 HD
HETATM    9  C11 UNL     1      13.332   0.296  16.334  1.00  0.00     0.097 A 
HETATM   10  C12 UNL     1      14.180   1.393  16.466  1.00  0.00    -0.011 A 
HETATM   11  C16 UNL     1      13.734   2.565  15.850  1.00  0.00     0.002 A 
ENDROOT
BRANCH   1  12
HETATM   12  C4  UNL     1      15.713   3.860  16.527  1.00  0.00     0.122 C 
HETATM   13  N6  UNL     1      16.687   4.423  15.778  1.00  0.00    -0.309 N 
ATOM     14  H6  UNL     1      16.467   4.713  14.824  1.00  0.00     0.186 HD
BRANCH  13  15
HETATM   15  N5  UNL     1      17.959   4.622  16.249  1.00  0.00    -0.282 N 
HETATM   16  C3  UNL     1      18.425   5.685  16.766  1.00  0.00     0.209 C 
HETATM   17  N2  UNL     1      19.746   5.877  17.251  1.00  0.00    -0.181 N 
HETATM   18  C2  UNL     1      17.712   6.948  16.980  1.00  0.00     0.368 C 
HETATM   19  N3  UNL     1      19.824   7.107  17.943  1.00  0.00    -0.243 N 
HETATM   20  C1  UNL     1      18.557   7.745  17.926  1.00  0.00     0.309 C 
ATOM     21  H3  UNL     1      20.664   7.479  18.387  1.00  0.00     0.192 HD
HETATM   22  O1  UNL     1      18.169   8.757  18.544  1.00  0.00    -0.266 OA
ATOM     23  H5  UNL     1      18.600   3.831  16.177  1.00  0.00     0.188 HD
BRANCH  17  24
HETATM   24  N1  UNL     1      20.850   5.009  17.096  1.00  0.00    -0.322 N 
ATOM     25  H12 UNL     1      21.768   5.092  17.533  1.00  0.00     0.179 HD
ATOM     26  H11 UNL     1      20.825   4.179  16.503  1.00  0.00     0.179 HD
ENDBRANCH  17  24
BRANCH  18  27
HETATM   27  N4  UNL     1      17.597   7.746  15.773  1.00  0.00    -0.030 N 
ATOM     28  H43 UNL     1      17.109   8.631  15.916  1.00  0.00     0.279 HD
ATOM     29  H42 UNL     1      18.483   8.143  15.461  1.00  0.00     0.279 HD
ATOM     30  H41 UNL     1      17.154   7.145  15.078  1.00  0.00     0.279 HD
ENDBRANCH  18  27
BRANCH  18  31
HETATM   31  O2  UNL     1      16.472   6.766  17.564  1.00  0.00    -0.352 OA
ATOM     32  H2  UNL     1      16.511   5.983  18.100  1.00  0.00     0.213 HD
ENDBRANCH  18  31
ENDBRANCH  13  15
ENDBRANCH   1  12
BRANCH   2  33
HETATM   33  O3  UNL     1      14.712   6.090  15.285  1.00  0.00    -0.357 OA
ATOM     34  H3  UNL     1      14.478   6.824  14.730  1.00  0.00     0.217 HD
ENDBRANCH   2  33
BRANCH   3  35
HETATM   35  O4  UNL     1      12.287   6.014  13.960  1.00  0.00    -0.356 OA
ATOM     36  H4  UNL     1      11.425   6.024  13.560  1.00  0.00     0.218 HD
ENDBRANCH   3  35
BRANCH  10  37
HETATM   37  C13 UNL     1      15.441   1.312  17.172  1.00  0.00     0.180 C 
BRANCH  37  38
HETATM   38  N8  UNL     1      15.231   0.360  18.290  1.00  0.00    -0.324 N 
ATOM     39  H8  UNL     1      15.277  -0.644  18.118  1.00  0.00     0.181 HD
BRANCH  38  40
HETATM   40  N9  UNL     1      14.967   0.839  19.596  1.00  0.00    -0.249 N 
HETATM   41  C14 UNL     1      15.866   1.371  20.421  1.00  0.00     0.223 A 
HETATM   42  N10 UNL     1      15.220   1.707  21.549  1.00  0.00    -0.293 N 
HETATM   43  N11 UNL     1      13.947   1.387  21.420  1.00  0.00    -0.293 N 
ATOM     44  H10 UNL     1      15.644   2.140  22.370  1.00  0.00     0.187 HD
HETATM   45  C15 UNL     1      13.769   0.848  20.214  1.00  0.00     0.223 A 
ATOM     46  H11 UNL     1      13.222   1.528  22.124  1.00  0.00     0.187 HD
ENDBRANCH  38  40
ENDBRANCH  37  38
ENDBRANCH  10  37
BRANCH   4  47
HETATM   47  O5  UNL     1      10.839   3.680  13.887  1.00  0.00    -0.357 OA
ATOM     48  H5  UNL     1      10.070   3.325  14.319  1.00  0.00     0.217 HD
ENDBRANCH   4  47
TORSDOF 11
ENDMDL
MODEL 3
REMARK VINA RESULT: -6.889211042      0.831      1.064
REMARK  11 active torsions:
REMARK  status: ('A' for Active; 'I' for Inactive)
REMARK    1  A    between atoms: N1_1  and  N2_4 
REMARK    2  A    between atoms: C2_9  and  N4_10 
REMARK    3  A    between atoms: C2_9  and  O2_14 
REMARK    4  A    between atoms: N5_17  and  N6_19 
REMARK    5  A    between atoms: C4_21  and  C5_22 
REMARK    6  A    between atoms: C6_23  and  O3_24 
REMARK    7  A    between atoms: C7_26  and  O4_27 
REMARK    8  A    between atoms: C8_29  and  O5_30 
REMARK    9  A    between atoms: C12_37  and  C13_38 
REMARK   10  A    between atoms: C13_38  and  N8_39 
REMARK   11  A    between atoms: N8_39  and  N9_41 
ROOT
HETATM    1  C5  UNL     1      14.685   3.760  15.544  1.00  0.00     0.029 A 
HETATM    2  C6  UNL     1      14.480   5.110  15.161  1.00  0.00     0.114 A 
HETATM    3  C7  UNL     1      13.258   5.521  14.703  1.00  0.00     0.134 A 
HETATM    4  C8  UNL     1      12.236   4.609  14.621  1.00  0.00     0.114 A 
HETATM    5  C9  UNL     1      12.422   3.285  14.993  1.00  0.00     0.027 A 
HETATM    6  C10 UNL     1      11.373   2.405  14.892  1.00  0.00     0.102 A 
HETATM    7  N7  UNL     1      11.503   1.130  15.234  1.00  0.00    -0.374 N 
ATOM      8  H7  UNL     1      10.717   0.484  15.155  1.00  0.00     0.164 HD
HETATM    9  C11 UNL     1      12.694   0.711  15.685  1.00  0.00     0.097 A 
HETATM   10  C12 UNL     1      13.825   1.512  15.830  1.00  0.00    -0.011 A 
HETATM   11  C16 UNL     1      13.657   2.849  15.461  1.00  0.00     0.002 A 
ENDROOT
BRANCH   1  12
HETATM   12  C4  UNL     1      15.983   3.450  15.985  1.00  0.00     0.122 C 
HETATM   13  N6  UNL     1      16.530   4.340  16.843  1.00  0.00    -0.309 N 
ATOM     14  H6  UNL     1      15.985   5.159  17.112  1.00  0.00     0.186 HD
BRANCH  13  15
HETATM   15  N5  UNL     1      17.788   4.185  17.366  1.00  0.00    -0.282 N 
HETATM   16  C3  UNL     1      18.708   5.059  17.414  1.00  0.00     0.209 C 
HETATM   17  N2  UNL     1      20.008   4.885  17.960  1.00  0.00    -0.181 N 
HETATM   18  C2  UNL     1      18.641   6.439  16.923  1.00  0.00     0.368 C 
HETATM   19  N3  UNL     1      20.667   6.134  18.026  1.00  0.00    -0.243 N 
HETATM   20  C1  UNL     1      19.813   7.151  17.527  1.00  0.00     0.309 C 
ATOM     21  H3  UNL     1      21.613   6.281  18.380  1.00  0.00     0.192 HD
HETATM   22  O1  UNL     1      19.954   8.390  17.555  1.00  0.00    -0.266 OA
ATOM     23  H5  UNL     1      18.008   3.270  17.759  1.00  0.00     0.188 HD
BRANCH  17  24
HETATM   24  N1  UNL     1      20.603   3.676  18.386  1.00  0.00    -0.322 N 
ATOM     25  H12 UNL     1      21.561   3.368  18.220  1.00  0.00     0.179 HD
ATOM     26  H11 UNL     1      20.102   2.970  18.924  1.00  0.00     0.179 HD
ENDBRANCH  17  24
BRANCH  18  27
HETATM   27  N4  UNL     1      18.809   6.538  15.484  1.00  0.00    -0.030 N 
ATOM     28  H43 UNL     1      17.937   6.716  14.985  1.00  0.00     0.279 HD
ATOM     29  H42 UNL     1      19.296   7.384  15.189  1.00  0.00     0.279 HD
ATOM     30  H41 UNL     1      19.275   5.678  15.195  1.00  0.00     0.279 HD
ENDBRANCH  18  27
BRANCH  18  31
HETATM   31  O2  UNL     1      17.490   7.092  17.326  1.00  0.00    -0.352 OA
ATOM     32  H2  UNL     1      17.024   6.522  17.926  1.00  0.00     0.213 HD
ENDBRANCH  18  31
ENDBRANCH  13  15
ENDBRANCH   1  12
BRANCH   2  33
HETATM   33  O3  UNL     1      15.510   6.045  15.239  1.00  0.00    -0.357 OA
ATOM     34  H3  UNL     1      15.351   6.966  15.069  1.00  0.00     0.217 HD
ENDBRANCH   2  33
BRANCH   3  35
HETATM   35  O4  UNL     1      13.024   6.831  14.320  1.00  0.00    -0.356 OA
ATOM     36  H4  UNL     1      12.202   7.270  14.507  1.00  0.00     0.218 HD
ENDBRANCH   3  35
BRANCH  10  37
HETATM   37  C13 UNL     1      15.085   0.986  16.307  1.00  0.00     0.180 C 
BRANCH  37  38
HETATM   38  N8  UNL     1      14.776   0.221  17.540  1.00  0.00    -0.324 N 
ATOM     39  H8  UNL     1      14.316  -0.687  17.473  1.00  0.00     0.181 HD
BRANCH  38  40
HETATM   40  N9  UNL     1      15.118   0.745  18.811  1.00  0.00    -0.249 N 
HETATM   41  C14 UNL     1      16.239   1.402  19.100  1.00  0.00     0.223 A 
HETATM   42  N10 UNL     1      16.178   1.739  20.398  1.00  0.00    -0.293 N 
HETATM   43  N11 UNL     1      15.041   1.295  20.899  1.00  0.00    -0.293 N 
ATOM     44  H10 UNL     1      16.893   2.253  20.912  1.00  0.00     0.187 HD
HETATM   45  C15 UNL     1      14.368   0.676  19.928  1.00  0.00     0.223 A 
ATOM     46  H11 UNL     1      14.730   1.407  21.864  1.00  0.00     0.187 HD
ENDBRANCH  38  40
ENDBRANCH  37  38
ENDBRANCH  10  37
BRANCH   4  47
HETATM   47  O5  UNL     1      10.982   5.000  14.157  1.00  0.00    -0.357 OA
ATOM     48  H5  UNL     1      10.887   5.363  13.284  1.00  0.00     0.217 HD
ENDBRANCH   4  47
TORSDOF 11
ENDMDL
MODEL 4
REMARK VINA RESULT: -6.837083862      1.261      1.263
REMARK  11 active torsions:
REMARK  status: ('A' for Active; 'I' for Inactive)
REMARK    1  A    between atoms: N1_1  and  N2_4 
REMARK    2  A    between atoms: C2_9  and  N4_10 
REMARK    3  A    between atoms: C2_9  and  O2_14 
REMARK    4  A    between atoms: N5_17  and  N6_19 
REMARK    5  A    between atoms: C4_21  and  C5_22 
REMARK    6  A    between atoms: C6_23  and  O3_24 
REMARK    7  A    between atoms: C7_26  and  O4_27 
REMARK    8  A    between atoms: C8_29  and  O5_30 
REMARK    9  A    between atoms: C12_37  and  C13_38 
REMARK   10  A    between atoms: C13_38  and  N8_39 
REMARK   11  A    between atoms: N8_39  and  N9_41 
ROOT
HETATM    1  C5  UNL     1      14.662   3.814  15.724  1.00  0.00     0.029 A 
HETATM    2  C6  UNL     1      14.485   5.159  15.313  1.00  0.00     0.114 A 
HETATM    3  C7  UNL     1      13.297   5.566  14.770  1.00  0.00     0.134 A 
HETATM    4  C8  UNL     1      12.282   4.653  14.629  1.00  0.00     0.114 A 
HETATM    5  C9  UNL     1      12.441   3.334  15.026  1.00  0.00     0.027 A 
HETATM    6  C10 UNL     1      11.400   2.453  14.865  1.00  0.00     0.102 A 
HETATM    7  N7  UNL     1      11.506   1.181  15.228  1.00  0.00    -0.374 N 
ATOM      8  H7  UNL     1      10.726   0.535  15.103  1.00  0.00     0.164 HD
HETATM    9  C11 UNL     1      12.663   0.767  15.763  1.00  0.00     0.097 A 
HETATM   10  C12 UNL     1      13.782   1.569  15.975  1.00  0.00    -0.011 A 
HETATM   11  C16 UNL     1      13.641   2.902  15.581  1.00  0.00     0.002 A 
ENDROOT
BRANCH   1  12
HETATM   12  C4  UNL     1      15.927   3.508  16.255  1.00  0.00     0.122 C 
HETATM   13  N6  UNL     1      16.968   3.702  15.414  1.00  0.00    -0.309 N 
ATOM     14  H6  UNL     1      16.780   4.049  14.474  1.00  0.00     0.186 HD
BRANCH  13  15
HETATM   15  N5  UNL     1      18.267   3.452  15.777  1.00  0.00    -0.282 N 
HETATM   16  C3  UNL     1      19.259   4.234  15.650  1.00  0.00     0.209 C 
HETATM   17  N2  UNL     1      20.601   3.963  16.031  1.00  0.00    -0.181 N 
HETATM   18  C2  UNL     1      19.249   5.588  15.087  1.00  0.00     0.368 C 
HETATM   19  N3  UNL     1      21.371   5.144  15.933  1.00  0.00    -0.243 N 
HETATM   20  C1  UNL     1      20.551   6.212  15.487  1.00  0.00     0.309 C 
ATOM     21  H3  UNL     1      22.366   5.216  16.150  1.00  0.00     0.192 HD
HETATM   22  O1  UNL     1      20.805   7.432  15.419  1.00  0.00    -0.266 OA
ATOM     23  H5  UNL     1      18.455   2.540  16.194  1.00  0.00     0.188 HD
BRANCH  17  24
HETATM   24  N1  UNL     1      21.137   2.725  16.449  1.00  0.00    -0.322 N 
ATOM     25  H12 UNL     1      20.798   1.793  16.212  1.00  0.00     0.179 HD
ATOM     26  H11 UNL     1      21.954   2.649  17.056  1.00  0.00     0.179 HD
ENDBRANCH  17  24
BRANCH  18  27
HETATM   27  N4  UNL     1      19.228   5.599  13.635  1.00  0.00    -0.030 N 
ATOM     28  H43 UNL     1      19.977   5.049  13.214  1.00  0.00     0.279 HD
ATOM     29  H42 UNL     1      18.449   5.075  13.236  1.00  0.00     0.279 HD
ATOM     30  H41 UNL     1      19.241   6.581  13.360  1.00  0.00     0.279 HD
ENDBRANCH  18  27
BRANCH  18  31
HETATM   31  O2  UNL     1      18.227   6.368  15.595  1.00  0.00    -0.352 OA
ATOM     32  H2  UNL     1      17.431   6.155  15.122  1.00  0.00     0.213 HD
ENDBRANCH  18  31
ENDBRANCH  13  15
ENDBRANCH   1  12
BRANCH   2  33
HETATM   33  O3  UNL     1      15.509   6.094  15.450  1.00  0.00    -0.357 OA
ATOM     34  H3  UNL     1      15.420   6.974  15.102  1.00  0.00     0.217 HD
ENDBRANCH   2  33
BRANCH   3  35
HETATM   35  O4  UNL     1      13.091   6.872  14.357  1.00  0.00    -0.356 OA
ATOM     36  H4  UNL     1      13.185   7.132  13.448  1.00  0.00     0.218 HD
ENDBRANCH   3  35
BRANCH  10  37
HETATM   37  C13 UNL     1      15.007   1.048  16.542  1.00  0.00     0.180 C 
BRANCH  37  38
HETATM   38  N8  UNL     1      14.634   0.421  17.834  1.00  0.00    -0.324 N 
ATOM     39  H8  UNL     1      14.005  -0.382  17.847  1.00  0.00     0.181 HD
BRANCH  38  40
HETATM   40  N9  UNL     1      15.147   0.933  19.051  1.00  0.00    -0.249 N 
HETATM   41  C14 UNL     1      14.509   0.936  20.219  1.00  0.00     0.223 A 
HETATM   42  N10 UNL     1      15.332   1.495  21.120  1.00  0.00    -0.293 N 
HETATM   43  N11 UNL     1      16.455   1.831  20.517  1.00  0.00    -0.293 N 
ATOM     44  H10 UNL     1      15.124   1.635  22.109  1.00  0.00     0.187 HD
HETATM   45  C15 UNL     1      16.361   1.490  19.232  1.00  0.00     0.223 A 
ATOM     46  H11 UNL     1      17.260   2.277  20.959  1.00  0.00     0.187 HD
ENDBRANCH  38  40
ENDBRANCH  37  38
ENDBRANCH  10  37
BRANCH   4  47
HETATM   47  O5  UNL     1      11.062   5.040  14.077  1.00  0.00    -0.357 OA
ATOM     48  H5  UNL     1      11.040   5.646  13.346  1.00  0.00     0.217 HD
ENDBRANCH   4  47
TORSDOF 11
ENDMDL
MODEL 5
REMARK VINA RESULT: -6.660114929      1.897      2.814
REMARK  11 active torsions:
REMARK  status: ('A' for Active; 'I' for Inactive)
REMARK    1  A    between atoms: N1_1  and  N2_4 
REMARK    2  A    between atoms: C2_9  and  N4_10 
REMARK    3  A    between atoms: C2_9  and  O2_14 
REMARK    4  A    between atoms: N5_17  and  N6_19 
REMARK    5  A    between atoms: C4_21  and  C5_22 
REMARK    6  A    between atoms: C6_23  and  O3_24 
REMARK    7  A    between atoms: C7_26  and  O4_27 
REMARK    8  A    between atoms: C8_29  and  O5_30 
REMARK    9  A    between atoms: C12_37  and  C13_38 
REMARK   10  A    between atoms: C13_38  and  N8_39 
REMARK   11  A    between atoms: N8_39  and  N9_41 
ROOT
HETATM    1  C5  UNL     1      14.682   3.763  15.763  1.00  0.00     0.029 A 
HETATM    2  C6  UNL     1      14.554   5.130  15.410  1.00  0.00     0.114 A 
HETATM    3  C7  UNL     1      13.393   5.595  14.853  1.00  0.00     0.134 A 
HETATM    4  C8  UNL     1      12.358   4.718  14.644  1.00  0.00     0.114 A 
HETATM    5  C9  UNL     1      12.469   3.379  14.985  1.00  0.00     0.027 A 
HETATM    6  C10 UNL     1      11.410   2.536  14.755  1.00  0.00     0.102 A 
HETATM    7  N7  UNL     1      11.470   1.247  15.063  1.00  0.00    -0.374 N 
ATOM      8  H7  UNL     1      10.677   0.630  14.888  1.00  0.00     0.164 HD
HETATM    9  C11 UNL     1      12.600   0.776  15.609  1.00  0.00     0.097 A 
HETATM   10  C12 UNL     1      13.735   1.535  15.888  1.00  0.00    -0.011 A 
HETATM   11  C16 UNL     1      13.641   2.888  15.551  1.00  0.00     0.002 A 
ENDROOT
BRANCH   1  12
HETATM   12  C4  UNL     1      15.923   3.397  16.313  1.00  0.00     0.122 C 
HETATM   13  N6  UNL     1      17.005   3.755  15.586  1.00  0.00    -0.309 N 
ATOM     14  H6  UNL     1      16.862   4.253  14.707  1.00  0.00     0.186 HD
BRANCH  13  15
HETATM   15  N5  UNL     1      18.287   3.474  15.982  1.00  0.00    -0.282 N 
HETATM   16  C3  UNL     1      19.061   4.225  16.653  1.00  0.00     0.209 C 
HETATM   17  N2  UNL     1      20.388   3.922  17.058  1.00  0.00    -0.181 N 
HETATM   18  C2  UNL     1      18.765   5.569  17.161  1.00  0.00     0.368 C 
HETATM   19  N3  UNL     1      20.846   4.905  17.963  1.00  0.00    -0.243 N 
HETATM   20  C1  UNL     1      19.830   5.873  18.170  1.00  0.00     0.309 C 
ATOM     21  H3  UNL     1      21.768   4.918  18.400  1.00  0.00     0.192 HD
HETATM   22  O1  UNL     1      19.777   6.804  18.999  1.00  0.00    -0.266 OA
ATOM     23  H5  UNL     1      18.659   2.564  15.709  1.00  0.00     0.188 HD
BRANCH  17  24
HETATM   24  N1  UNL     1      21.177   2.822  16.651  1.00  0.00    -0.322 N 
ATOM     25  H12 UNL     1      21.807   2.777  15.850  1.00  0.00     0.179 HD
ATOM     26  H11 UNL     1      21.186   1.931  17.146  1.00  0.00     0.179 HD
ENDBRANCH  17  24
BRANCH  18  27
HETATM   27  N4  UNL     1      18.871   6.597  16.142  1.00  0.00    -0.030 N 
ATOM     28  H43 UNL     1      18.137   6.546  15.435  1.00  0.00     0.279 HD
ATOM     29  H42 UNL     1      18.650   7.532  16.483  1.00  0.00     0.279 HD
ATOM     30  H41 UNL     1      19.812   6.517  15.757  1.00  0.00     0.279 HD
ENDBRANCH  18  27
BRANCH  18  31
HETATM   31  O2  UNL     1      17.540   5.638  17.798  1.00  0.00    -0.352 OA
ATOM     32  H2  UNL     1      17.108   4.798  17.697  1.00  0.00     0.213 HD
ENDBRANCH  18  31
ENDBRANCH  13  15
ENDBRANCH   1  12
BRANCH   2  33
HETATM   33  O3  UNL     1      15.598   6.029  15.617  1.00  0.00    -0.357 OA
ATOM     34  H3  UNL     1      16.389   5.993  15.091  1.00  0.00     0.217 HD
ENDBRANCH   2  33
BRANCH   3  35
HETATM   35  O4  UNL     1      13.235   6.923  14.496  1.00  0.00    -0.356 OA
ATOM     36  H4  UNL     1      12.802   7.548  15.066  1.00  0.00     0.218 HD
ENDBRANCH   3  35
BRANCH  10  37
HETATM   37  C13 UNL     1      14.928   0.954  16.464  1.00  0.00     0.180 C 
BRANCH  37  38
HETATM   38  N8  UNL     1      15.431  -0.029  15.473  1.00  0.00    -0.324 N 
ATOM     39  H8  UNL     1      15.057  -0.978  15.464  1.00  0.00     0.181 HD
BRANCH  38  40
HETATM   40  N9  UNL     1      16.429   0.344  14.540  1.00  0.00    -0.249 N 
HETATM   41  C14 UNL     1      17.738   0.154  14.690  1.00  0.00     0.223 A 
HETATM   42  N10 UNL     1      18.337   0.633  13.589  1.00  0.00    -0.293 N 
HETATM   43  N11 UNL     1      17.415   1.109  12.777  1.00  0.00    -0.293 N 
ATOM     44  H10 UNL     1      19.342   0.628  13.410  1.00  0.00     0.187 HD
HETATM   45  C15 UNL     1      16.223   0.938  13.348  1.00  0.00     0.223 A 
ATOM     46  H11 UNL     1      17.584   1.536  11.866  1.00  0.00     0.187 HD
ENDBRANCH  38  40
ENDBRANCH  37  38
ENDBRANCH  10  37
BRANCH   4  47
HETATM   47  O5  UNL     1      11.165   5.165  14.078  1.00  0.00    -0.357 OA
ATOM     48  H5  UNL     1      10.841   6.037  14.272  1.00  0.00     0.217 HD
ENDBRANCH   4  47
TORSDOF 11
ENDMDL
