MODEL 1
REMARK VINA RESULT: -6.903451683      0.000      0.000
REMARK  10 active torsions:
REMARK  status: ('A' for Active; 'I' for Inactive)
REMARK    1  A    between atoms: N1_1  and  C1_4 
REMARK    2  A    between atoms: N5_12  and  C3_13 
REMARK    3  A    between atoms: C3_13  and  C4_14 
REMARK    4  A    between atoms: C4_14  and  C5_15 
REMARK    5  A    between atoms: C6_16  and  C7_17 
REMARK    6  A    between atoms: C7_17  and  C8_19 
REMARK    7  A    between atoms: C11_27  and  C12_28 
REMARK    8  A    between atoms: N9_31  and  N10_32 
REMARK    9  A    between atoms: N10_32  and  N11_34 
REMARK   10  A    between atoms: C14_40  and  N14_41 
ROOT
HETATM    1  C5  UNL     1      18.668   4.581  16.722  1.00  0.00     0.001 A 
HETATM    2  C6  UNL     1      19.811   5.029  16.143  1.00  0.00     0.089 A 
HETATM    3  N6  UNL     1      20.081   6.367  16.204  1.00  0.00    -0.336 N 
ATOM      4  H6  UNL     1      20.943   6.696  15.768  1.00  0.00     0.168 HD
HETATM    5  C9  UNL     1      19.306   7.265  16.789  1.00  0.00     0.160 A 
HETATM    6  C10 UNL     1      18.132   6.806  17.379  1.00  0.00     0.105 A 
HETATM    7  N7  UNL     1      17.543   7.911  17.889  1.00  0.00    -0.332 N 
ATOM      8  H7  UNL     1      16.655   7.906  18.391  1.00  0.00     0.168 HD
HETATM    9  C11 UNL     1      18.269   9.016  17.655  1.00  0.00     0.197 A 
HETATM   10  N9  UNL     1      19.366   8.596  16.967  1.00  0.00    -0.202 N 
HETATM   11  C13 UNL     1      17.784   5.483  17.365  1.00  0.00     0.085 A 
HETATM   12  N12 UNL     1      16.585   5.046  17.973  1.00  0.00    -0.099 NA
ENDROOT
BRANCH   1  13
HETATM   13  C4  UNL     1      18.271   3.174  16.863  1.00  0.00     0.066 C 
BRANCH  13  14
HETATM   14  C3  UNL     1      17.578   2.615  15.623  1.00  0.00     0.177 C 
BRANCH  14  15
HETATM   15  N5  UNL     1      16.151   2.463  15.799  1.00  0.00    -0.183 N 
HETATM   16  N4  UNL     1      15.609   1.428  16.510  1.00  0.00    -0.210 N 
HETATM   17  N3  UNL     1      14.311   1.506  16.483  1.00  0.00    -0.113 N 
ATOM     18  H4  UNL     1      16.142   0.703  16.991  1.00  0.00     0.210 HD
HETATM   19  C2  UNL     1      13.960   2.582  15.760  1.00  0.00     0.750 A 
ATOM     20  H3  UNL     1      13.666   0.858  16.936  1.00  0.00     0.207 HD
HETATM   21  N2  UNL     1      12.779   3.116  15.401  1.00  0.00    -0.018 N 
HETATM   22  N13 UNL     1      15.135   3.147  15.352  1.00  0.00     0.110 N 
HETATM   23  C1  UNL     1      12.664   4.211  14.634  1.00  0.00     0.705 A 
ATOM     24  H2  UNL     1      11.925   2.664  15.729  1.00  0.00     0.203 HD
HETATM   25  N15 UNL     1      13.808   4.771  14.227  1.00  0.00    -0.020 N 
HETATM   26  C14 UNL     1      15.007   4.247  14.579  1.00  0.00     0.728 A 
ATOM     27  H15 UNL     1      13.778   5.606  13.642  1.00  0.00     0.203 HD
BRANCH  23  28
HETATM   28  N1  UNL     1      11.502   4.694  14.311  1.00  0.00    -0.234 N 
ATOM     29  H12 UNL     1      10.928   5.218  14.970  1.00  0.00     0.174 HD
ATOM     30  H11 UNL     1      11.114   4.566  13.377  1.00  0.00     0.174 HD
ENDBRANCH  23  28
BRANCH  26  31
HETATM   31  N14 UNL     1      16.093   4.783  14.127  1.00  0.00    -0.232 N 
ATOM     32 2H14 UNL     1      16.652   4.279  13.439  1.00  0.00     0.174 HD
ATOM     33 1H14 UNL     1      16.365   5.686  14.516  1.00  0.00     0.174 HD
ENDBRANCH  26  31
ENDBRANCH  14  15
ENDBRANCH  13  14
ENDBRANCH   1  13
BRANCH   2  34
HETATM   34  C7  UNL     1      20.768   4.241  15.402  1.00  0.00     0.186 C 
HETATM   35  O1  UNL     1      21.847   3.843  15.965  1.00  0.00    -0.290 OA
BRANCH  34  36
HETATM   36  C8  UNL     1      20.638   3.822  13.998  1.00  0.00     0.171 C 
HETATM   37  S1  UNL     1      19.661   4.902  12.956  1.00  0.00    -0.089 SA
ENDBRANCH  34  36
ENDBRANCH   2  34
BRANCH  10  38
HETATM   38  N10 UNL     1      20.379   9.458  16.531  1.00  0.00    -0.239 N 
ATOM     39  H10 UNL     1      20.438   9.696  15.541  1.00  0.00     0.208 HD
BRANCH  38  40
HETATM   40  N11 UNL     1      21.308   9.998  17.414  1.00  0.00    -0.330 N 
ATOM     41 2H11 UNL     1      21.460   9.522  18.303  1.00  0.00     0.178 HD
ATOM     42 1H11 UNL     1      21.829  10.846  17.191  1.00  0.00     0.178 HD
ENDBRANCH  38  40
ENDBRANCH  10  38
BRANCH   9  43
HETATM   43  C12 UNL     1      17.971  10.392  18.044  1.00  0.00     0.300 C 
HETATM   44  N8  UNL     1      17.001  10.636  19.048  1.00  0.00    -0.054 NA
HETATM   45  O2  UNL     1      18.542  11.375  17.521  1.00  0.00    -0.268 OA
ENDBRANCH   9  43
TORSDOF 10
ENDMDL
MODEL 2
REMARK VINA RESULT: -6.850029296      3.659      9.005
REMARK  10 active torsions:
REMARK  status: ('A' for Active; 'I' for Inactive)
REMARK    1  A    between atoms: N1_1  and  C1_4 
REMARK    2  A    between atoms: N5_12  and  C3_13 
REMARK    3  A    between atoms: C3_13  and  C4_14 
REMARK    4  A    between atoms: C4_14  and  C5_15 
REMARK    5  A    between atoms: C6_16  and  C7_17 
REMARK    6  A    between atoms: C7_17  and  C8_19 
REMARK    7  A    between atoms: C11_27  and  C12_28 
REMARK    8  A    between atoms: N9_31  and  N10_32 
REMARK    9  A    between atoms: N10_32  and  N11_34 
REMARK   10  A    between atoms: C14_40  and  N14_41 
ROOT
HETATM    1  C5  UNL     1      19.301   8.453  17.680  1.00  0.00     0.001 A 
HETATM    2  C6  UNL     1      19.706   7.392  18.422  1.00  0.00     0.089 A 
HETATM    3  N6  UNL     1      19.053   6.203  18.254  1.00  0.00    -0.336 N 
ATOM      4  H6  UNL     1      19.364   5.409  18.815  1.00  0.00     0.168 HD
HETATM    5  C9  UNL     1      18.047   6.009  17.418  1.00  0.00     0.160 A 
HETATM    6  C10 UNL     1      17.629   7.099  16.660  1.00  0.00     0.105 A 
HETATM    7  N7  UNL     1      16.608   6.630  15.908  1.00  0.00    -0.332 N 
ATOM      8  H7  UNL     1      16.084   7.194  15.239  1.00  0.00     0.168 HD
HETATM    9  C11 UNL     1      16.367   5.331  16.149  1.00  0.00     0.197 A 
HETATM   10  N9  UNL     1      17.273   4.958  17.094  1.00  0.00    -0.202 N 
HETATM   11  C13 UNL     1      18.228   8.325  16.763  1.00  0.00     0.085 A 
HETATM   12  N12 UNL     1      17.782   9.414  15.981  1.00  0.00    -0.099 NA
ENDROOT
BRANCH   1  13
HETATM   13  C4  UNL     1      19.954   9.768  17.634  1.00  0.00     0.066 C 
BRANCH  13  14
HETATM   14  C3  UNL     1      19.591  10.664  18.815  1.00  0.00     0.177 C 
BRANCH  14  15
HETATM   15  N5  UNL     1      20.609  11.647  19.108  1.00  0.00    -0.183 N 
HETATM   16  N4  UNL     1      21.682  11.371  19.911  1.00  0.00    -0.210 N 
HETATM   17  N3  UNL     1      22.422  12.433  20.038  1.00  0.00    -0.113 N 
ATOM     18  H4  UNL     1      21.874  10.468  20.344  1.00  0.00     0.210 HD
HETATM   19  C2  UNL     1      21.866  13.432  19.334  1.00  0.00     0.750 A 
ATOM     20  H3  UNL     1      23.282  12.498  20.583  1.00  0.00     0.207 HD
HETATM   21  N2  UNL     1      22.192  14.721  19.132  1.00  0.00    -0.018 N 
HETATM   22  N13 UNL     1      20.739  12.900  18.773  1.00  0.00     0.110 N 
HETATM   23  C1  UNL     1      21.457  15.563  18.389  1.00  0.00     0.705 A 
ATOM     24  H2  UNL     1      23.042  15.078  19.568  1.00  0.00     0.203 HD
HETATM   25  N15 UNL     1      20.351  15.053  17.837  1.00  0.00    -0.020 N 
HETATM   26  C14 UNL     1      20.007  13.757  18.029  1.00  0.00     0.728 A 
ATOM     27  H15 UNL     1      19.756  15.650  17.263  1.00  0.00     0.203 HD
BRANCH  23  28
HETATM   28  N1  UNL     1      21.809  16.802  18.221  1.00  0.00    -0.234 N 
ATOM     29  H12 UNL     1      22.322  17.324  18.931  1.00  0.00     0.174 HD
ATOM     30  H11 UNL     1      21.584  17.307  17.364  1.00  0.00     0.174 HD
ENDBRANCH  23  28
BRANCH  26  31
HETATM   31  N14 UNL     1      18.905  13.309  17.523  1.00  0.00    -0.232 N 
ATOM     32 2H14 UNL     1      18.824  12.318  17.295  1.00  0.00     0.174 HD
ATOM     33 1H14 UNL     1      18.167  13.988  17.338  1.00  0.00     0.174 HD
ENDBRANCH  26  31
ENDBRANCH  14  15
ENDBRANCH  13  14
ENDBRANCH   1  13
BRANCH   2  34
HETATM   34  C7  UNL     1      20.736   7.390  19.435  1.00  0.00     0.186 C 
HETATM   35  O1  UNL     1      20.482   7.826  20.612  1.00  0.00    -0.290 OA
BRANCH  34  36
HETATM   36  C8  UNL     1      22.119   6.921  19.258  1.00  0.00     0.171 C 
HETATM   37  S1  UNL     1      23.278   8.142  18.650  1.00  0.00    -0.089 SA
ENDBRANCH  34  36
ENDBRANCH   2  34
BRANCH  10  38
HETATM   38  N10 UNL     1      17.351   3.663  17.619  1.00  0.00    -0.239 N 
ATOM     39  H10 UNL     1      16.911   3.464  18.518  1.00  0.00     0.208 HD
BRANCH  38  40
HETATM   40  N11 UNL     1      18.012   2.641  16.948  1.00  0.00    -0.330 N 
ATOM     41 2H11 UNL     1      17.691   2.395  16.011  1.00  0.00     0.178 HD
ATOM     42 1H11 UNL     1      18.796   2.143  17.369  1.00  0.00     0.178 HD
ENDBRANCH  38  40
ENDBRANCH  10  38
BRANCH   9  43
HETATM   43  C12 UNL     1      15.353   4.473  15.542  1.00  0.00     0.300 C 
HETATM   44  N8  UNL     1      14.753   4.864  14.319  1.00  0.00    -0.054 NA
HETATM   45  O2  UNL     1      14.989   3.394  16.062  1.00  0.00    -0.268 OA
ENDBRANCH   9  43
TORSDOF 10
ENDMDL
MODEL 3
REMARK VINA RESULT: -6.835056983      3.365      8.614
REMARK  10 active torsions:
REMARK  status: ('A' for Active; 'I' for Inactive)
REMARK    1  A    between atoms: N1_1  and  C1_4 
REMARK    2  A    between atoms: N5_12  and  C3_13 
REMARK    3  A    between atoms: C3_13  and  C4_14 
REMARK    4  A    between atoms: C4_14  and  C5_15 
REMARK    5  A    between atoms: C6_16  and  C7_17 
REMARK    6  A    between atoms: C7_17  and  C8_19 
REMARK    7  A    between atoms: C11_27  and  C12_28 
REMARK    8  A    between atoms: N9_31  and  N10_32 
REMARK    9  A    between atoms: N10_32  and  N11_34 
REMARK   10  A    between atoms: C14_40  and  N14_41 
ROOT
HETATM    1  C5  UNL     1      19.256   7.660  17.251  1.00  0.00     0.001 A 
HETATM    2  C6  UNL     1      19.542   6.473  17.844  1.00  0.00     0.089 A 
HETATM    3  N6  UNL     1      18.651   5.447  17.692  1.00  0.00    -0.336 N 
ATOM      4  H6  UNL     1      18.873   4.557  18.139  1.00  0.00     0.168 HD
HETATM    5  C9  UNL     1      17.523   5.527  17.007  1.00  0.00     0.160 A 
HETATM    6  C10 UNL     1      17.228   6.746  16.403  1.00  0.00     0.105 A 
HETATM    7  N7  UNL     1      16.042   6.550  15.784  1.00  0.00    -0.332 N 
ATOM      8  H7  UNL     1      15.553   7.266  15.245  1.00  0.00     0.168 HD
HETATM    9  C11 UNL     1      15.585   5.301  15.964  1.00  0.00     0.197 A 
HETATM   10  N9  UNL     1      16.520   4.675  16.729  1.00  0.00    -0.202 N 
HETATM   11  C13 UNL     1      18.064   7.824  16.503  1.00  0.00     0.085 A 
HETATM   12  N12 UNL     1      17.739   9.050  15.879  1.00  0.00    -0.099 NA
ENDROOT
BRANCH   1  13
HETATM   13  C4  UNL     1      20.143   8.830  17.202  1.00  0.00     0.066 C 
BRANCH  13  14
HETATM   14  C3  UNL     1      20.239   9.570  18.533  1.00  0.00     0.177 C 
BRANCH  14  15
HETATM   15  N5  UNL     1      19.965  10.984  18.410  1.00  0.00    -0.183 N 
HETATM   16  N4  UNL     1      18.827  11.458  17.816  1.00  0.00    -0.210 N 
HETATM   17  N3  UNL     1      18.845  12.759  17.805  1.00  0.00    -0.113 N 
ATOM     18  H4  UNL     1      18.077  10.879  17.438  1.00  0.00     0.210 HD
HETATM   19  C2  UNL     1      19.982  13.178  18.383  1.00  0.00     0.750 A 
ATOM     20  H3  UNL     1      18.116  13.360  17.421  1.00  0.00     0.207 HD
HETATM   21  N2  UNL     1      20.512  14.392  18.618  1.00  0.00    -0.018 N 
HETATM   22  N13 UNL     1      20.650  12.042  18.743  1.00  0.00     0.110 N 
HETATM   23  C1  UNL     1      21.705  14.577  19.205  1.00  0.00     0.705 A 
ATOM     24  H2  UNL     1      19.980  15.214  18.335  1.00  0.00     0.203 HD
HETATM   25  N15 UNL     1      22.368  13.472  19.559  1.00  0.00    -0.020 N 
HETATM   26  C14 UNL     1      21.849  12.241  19.331  1.00  0.00     0.728 A 
ATOM     27  H15 UNL     1      23.280  13.556  20.008  1.00  0.00     0.203 HD
BRANCH  23  28
HETATM   28  N1  UNL     1      22.180  15.768  19.413  1.00  0.00    -0.234 N 
ATOM     29  H12 UNL     1      22.236  16.469  18.674  1.00  0.00     0.174 HD
ATOM     30  H11 UNL     1      22.519  16.053  20.332  1.00  0.00     0.174 HD
ENDBRANCH  23  28
BRANCH  26  31
HETATM   31  N14 UNL     1      22.538  11.192  19.639  1.00  0.00    -0.232 N 
ATOM     32 2H14 UNL     1      22.378  10.320  19.135  1.00  0.00     0.174 HD
ATOM     33 1H14 UNL     1      23.198  11.278  20.413  1.00  0.00     0.174 HD
ENDBRANCH  26  31
ENDBRANCH  14  15
ENDBRANCH  13  14
ENDBRANCH   1  13
BRANCH   2  34
HETATM   34  C7  UNL     1      20.679   6.180  18.684  1.00  0.00     0.186 C 
HETATM   35  O1  UNL     1      20.571   6.243  19.959  1.00  0.00    -0.290 OA
BRANCH  34  36
HETATM   36  C8  UNL     1      22.021   5.798  18.218  1.00  0.00     0.171 C 
HETATM   37  S1  UNL     1      23.304   7.021  18.469  1.00  0.00    -0.089 SA
ENDBRANCH  34  36
ENDBRANCH   2  34
BRANCH  10  38
HETATM   38  N10 UNL     1      16.413   3.341  17.141  1.00  0.00    -0.239 N 
ATOM     39  H10 UNL     1      15.971   3.131  18.036  1.00  0.00     0.208 HD
BRANCH  38  40
HETATM   40  N11 UNL     1      16.893   2.295  16.361  1.00  0.00    -0.330 N 
ATOM     41 2H11 UNL     1      16.699   2.313  15.360  1.00  0.00     0.178 HD
ATOM     42 1H11 UNL     1      17.424   1.524  16.767  1.00  0.00     0.178 HD
ENDBRANCH  38  40
ENDBRANCH  10  38
BRANCH   9  43
HETATM   43  C12 UNL     1      14.350   4.709  15.458  1.00  0.00     0.300 C 
HETATM   44  N8  UNL     1      13.279   5.555  15.076  1.00  0.00    -0.054 NA
HETATM   45  O2  UNL     1      14.196   3.472  15.347  1.00  0.00    -0.268 OA
ENDBRANCH   9  43
TORSDOF 10
ENDMDL
MODEL 4
REMARK VINA RESULT: -6.818478049      1.081      1.129
REMARK  10 active torsions:
REMARK  status: ('A' for Active; 'I' for Inactive)
REMARK    1  A    between atoms: N1_1  and  C1_4 
REMARK    2  A    between atoms: N5_12  and  C3_13 
REMARK    3  A    between atoms: C3_13  and  C4_14 
REMARK    4  A    between atoms: C4_14  and  C5_15 
REMARK    5  A    between atoms: C6_16  and  C7_17 
REMARK    6  A    between atoms: C7_17  and  C8_19 
REMARK    7  A    between atoms: C11_27  and  C12_28 
REMARK    8  A    between atoms: N9_31  and  N10_32 
REMARK    9  A    between atoms: N10_32  and  N11_34 
REMARK   10  A    between atoms: C14_40  and  N14_41 
ROOT
HETATM    1  C5  UNL     1      18.665   4.564  16.745  1.00  0.00     0.001 A 
HETATM    2  C6  UNL     1      19.807   5.007  16.160  1.00  0.00     0.089 A 
HETATM    3  N6  UNL     1      20.080   6.345  16.214  1.00  0.00    -0.336 N 
ATOM      4  H6  UNL     1      20.941   6.670  15.773  1.00  0.00     0.168 HD
HETATM    5  C9  UNL     1      19.308   7.247  16.796  1.00  0.00     0.160 A 
HETATM    6  C10 UNL     1      18.134   6.793  17.392  1.00  0.00     0.105 A 
HETATM    7  N7  UNL     1      17.550   7.902  17.898  1.00  0.00    -0.332 N 
ATOM      8  H7  UNL     1      16.663   7.901  18.403  1.00  0.00     0.168 HD
HETATM    9  C11 UNL     1      18.276   9.005  17.656  1.00  0.00     0.197 A 
HETATM   10  N9  UNL     1      19.371   8.579  16.967  1.00  0.00    -0.202 N 
HETATM   11  C13 UNL     1      17.784   5.471  17.386  1.00  0.00     0.085 A 
HETATM   12  N12 UNL     1      16.586   5.039  18.000  1.00  0.00    -0.099 NA
ENDROOT
BRANCH   1  13
HETATM   13  C4  UNL     1      18.266   3.158  16.894  1.00  0.00     0.066 C 
BRANCH  13  14
HETATM   14  C3  UNL     1      17.583   2.590  15.653  1.00  0.00     0.177 C 
BRANCH  14  15
HETATM   15  N5  UNL     1      16.155   2.447  15.814  1.00  0.00    -0.183 N 
HETATM   16  N4  UNL     1      15.598   1.409  16.510  1.00  0.00    -0.210 N 
HETATM   17  N3  UNL     1      14.301   1.498  16.471  1.00  0.00    -0.113 N 
ATOM     18  H4  UNL     1      16.121   0.676  16.989  1.00  0.00     0.210 HD
HETATM   19  C2  UNL     1      13.965   2.583  15.755  1.00  0.00     0.750 A 
ATOM     20  H3  UNL     1      13.647   0.851  16.912  1.00  0.00     0.207 HD
HETATM   21  N2  UNL     1      12.791   3.129  15.390  1.00  0.00    -0.018 N 
HETATM   22  N13 UNL     1      15.148   3.143  15.363  1.00  0.00     0.110 N 
HETATM   23  C1  UNL     1      12.692   4.233  14.633  1.00  0.00     0.705 A 
ATOM     24  H2  UNL     1      11.931   2.681  15.706  1.00  0.00     0.203 HD
HETATM   25  N15 UNL     1      13.844   4.787  14.242  1.00  0.00    -0.020 N 
HETATM   26  C14 UNL     1      15.035   4.251  14.600  1.00  0.00     0.728 A 
ATOM     27  H15 UNL     1      13.826   5.628  13.664  1.00  0.00     0.203 HD
BRANCH  23  28
HETATM   28  N1  UNL     1      11.537   4.727  14.303  1.00  0.00    -0.234 N 
ATOM     29  H12 UNL     1      10.662   4.238  14.491  1.00  0.00     0.174 HD
ATOM     30  H11 UNL     1      11.457   5.632  13.840  1.00  0.00     0.174 HD
ENDBRANCH  23  28
BRANCH  26  31
HETATM   31  N14 UNL     1      16.130   4.783  14.164  1.00  0.00    -0.232 N 
ATOM     32 2H14 UNL     1      16.083   5.594  13.547  1.00  0.00     0.174 HD
ATOM     33 1H14 UNL     1      17.006   4.334  14.432  1.00  0.00     0.174 HD
ENDBRANCH  26  31
ENDBRANCH  14  15
ENDBRANCH  13  14
ENDBRANCH   1  13
BRANCH   2  34
HETATM   34  C7  UNL     1      20.760   4.213  15.421  1.00  0.00     0.186 C 
HETATM   35  O1  UNL     1      20.747   4.219  14.140  1.00  0.00    -0.290 OA
BRANCH  34  36
HETATM   36  C8  UNL     1      21.801   3.352  16.002  1.00  0.00     0.171 C 
HETATM   37  S1  UNL     1      22.319   3.777  17.663  1.00  0.00    -0.089 SA
ENDBRANCH  34  36
ENDBRANCH   2  34
BRANCH  10  38
HETATM   38  N10 UNL     1      20.385   9.437  16.525  1.00  0.00    -0.239 N 
ATOM     39  H10 UNL     1      20.445   9.664  15.532  1.00  0.00     0.208 HD
BRANCH  38  40
HETATM   40  N11 UNL     1      21.311   9.988  17.403  1.00  0.00    -0.330 N 
ATOM     41 2H11 UNL     1      21.082  10.002  18.397  1.00  0.00     0.178 HD
ATOM     42 1H11 UNL     1      22.198  10.371  17.076  1.00  0.00     0.178 HD
ENDBRANCH  38  40
ENDBRANCH  10  38
BRANCH   9  43
HETATM   43  C12 UNL     1      17.982  10.383  18.039  1.00  0.00     0.300 C 
HETATM   44  N8  UNL     1      17.016  10.634  19.045  1.00  0.00    -0.054 NA
HETATM   45  O2  UNL     1      18.554  11.363  17.509  1.00  0.00    -0.268 OA
ENDBRANCH   9  43
TORSDOF 10
ENDMDL
MODEL 5
REMARK VINA RESULT: -6.689919602      4.742      9.301
REMARK  10 active torsions:
REMARK  status: ('A' for Active; 'I' for Inactive)
REMARK    1  A    between atoms: N1_1  and  C1_4 
REMARK    2  A    between atoms: N5_12  and  C3_13 
REMARK    3  A    between atoms: C3_13  and  C4_14 
REMARK    4  A    between atoms: C4_14  and  C5_15 
REMARK    5  A    between atoms: C6_16  and  C7_17 
REMARK    6  A    between atoms: C7_17  and  C8_19 
REMARK    7  A    between atoms: C11_27  and  C12_28 
REMARK    8  A    between atoms: N9_31  and  N10_32 
REMARK    9  A    between atoms: N10_32  and  N11_34 
REMARK   10  A    between atoms: C14_40  and  N14_41 
ROOT
HETATM    1  C5  UNL     1      20.410   8.920  17.431  1.00  0.00     0.001 A 
HETATM    2  C6  UNL     1      19.383   8.217  16.889  1.00  0.00     0.089 A 
HETATM    3  N6  UNL     1      19.528   7.747  15.614  1.00  0.00    -0.336 N 
ATOM      4  H6  UNL     1      18.752   7.218  15.214  1.00  0.00     0.168 HD
HETATM    5  C9  UNL     1      20.601   7.929  14.863  1.00  0.00     0.160 A 
HETATM    6  C10 UNL     1      21.652   8.654  15.418  1.00  0.00     0.105 A 
HETATM    7  N7  UNL     1      22.598   8.688  14.453  1.00  0.00    -0.332 N 
ATOM      8  H7  UNL     1      23.502   9.152  14.554  1.00  0.00     0.168 HD
HETATM    9  C11 UNL     1      22.206   8.039  13.345  1.00  0.00     0.197 A 
HETATM   10  N9  UNL     1      20.957   7.571  13.617  1.00  0.00    -0.202 N 
HETATM   11  C13 UNL     1      21.592   9.159  16.687  1.00  0.00     0.085 A 
HETATM   12  N12 UNL     1      22.675   9.891  17.225  1.00  0.00    -0.099 NA
ENDROOT
BRANCH   1  13
HETATM   13  C4  UNL     1      20.486   9.396  18.819  1.00  0.00     0.066 C 
BRANCH  13  14
HETATM   14  C3  UNL     1      19.866  10.776  19.018  1.00  0.00     0.177 C 
BRANCH  14  15
HETATM   15  N5  UNL     1      20.854  11.811  19.222  1.00  0.00    -0.183 N 
HETATM   16  N4  UNL     1      21.973  11.613  19.985  1.00  0.00    -0.210 N 
HETATM   17  N3  UNL     1      22.673  12.708  20.033  1.00  0.00    -0.113 N 
ATOM     18  H4  UNL     1      22.222  10.737  20.445  1.00  0.00     0.210 HD
HETATM   19  C2  UNL     1      22.045  13.652  19.315  1.00  0.00     0.750 A 
ATOM     20  H3  UNL     1      23.553  12.830  20.534  1.00  0.00     0.207 HD
HETATM   21  N2  UNL     1      22.307  14.944  19.045  1.00  0.00    -0.018 N 
HETATM   22  N13 UNL     1      20.917  13.053  18.829  1.00  0.00     0.110 N 
HETATM   23  C1  UNL     1      21.505  15.723  18.303  1.00  0.00     0.705 A 
ATOM     24  H2  UNL     1      23.161  15.352  19.426  1.00  0.00     0.203 HD
HETATM   25  N15 UNL     1      20.398  15.147  17.825  1.00  0.00    -0.020 N 
HETATM   26  C14 UNL     1      20.118  13.847  18.085  1.00  0.00     0.728 A 
ATOM     27  H15 UNL     1      19.753  15.694  17.255  1.00  0.00     0.203 HD
BRANCH  23  28
HETATM   28  N1  UNL     1      21.798  16.966  18.067  1.00  0.00    -0.234 N 
ATOM     29  H12 UNL     1      22.554  17.450  18.552  1.00  0.00     0.174 HD
ATOM     30  H11 UNL     1      21.278  17.515  17.382  1.00  0.00     0.174 HD
ENDBRANCH  23  28
BRANCH  26  31
HETATM   31  N14 UNL     1      19.014  13.334  17.651  1.00  0.00    -0.232 N 
ATOM     32 2H14 UNL     1      18.361  12.913  18.312  1.00  0.00     0.174 HD
ATOM     33 1H14 UNL     1      18.860  13.343  16.642  1.00  0.00     0.174 HD
ENDBRANCH  26  31
ENDBRANCH  14  15
ENDBRANCH  13  14
ENDBRANCH   1  13
BRANCH   2  34
HETATM   34  C7  UNL     1      18.102   7.952  17.501  1.00  0.00     0.186 C 
HETATM   35  O1  UNL     1      17.336   8.921  17.836  1.00  0.00    -0.290 OA
BRANCH  34  36
HETATM   36  C8  UNL     1      17.547   6.622  17.799  1.00  0.00     0.171 C 
HETATM   37  S1  UNL     1      16.524   5.905  16.516  1.00  0.00    -0.089 SA
ENDBRANCH  34  36
ENDBRANCH   2  34
BRANCH  10  38
HETATM   38  N10 UNL     1      20.196   6.831  12.704  1.00  0.00    -0.239 N 
ATOM     39  H10 UNL     1      20.260   5.813  12.713  1.00  0.00     0.208 HD
BRANCH  38  40
HETATM   40  N11 UNL     1      19.353   7.448  11.787  1.00  0.00    -0.330 N 
ATOM     41 2H11 UNL     1      19.209   8.455  11.868  1.00  0.00     0.178 HD
ATOM     42 1H11 UNL     1      18.886   6.921  11.049  1.00  0.00     0.178 HD
ENDBRANCH  38  40
ENDBRANCH  10  38
BRANCH   9  43
HETATM   43  C12 UNL     1      22.942   7.856  12.097  1.00  0.00     0.300 C 
HETATM   44  N8  UNL     1      24.182   8.517  11.918  1.00  0.00    -0.054 NA
HETATM   45  O2  UNL     1      22.517   7.132  11.168  1.00  0.00    -0.268 OA
ENDBRANCH   9  43
TORSDOF 10
ENDMDL
