MODEL 1
REMARK VINA RESULT: -7.404238711      0.000      0.000
REMARK  12 active torsions:
REMARK  status: ('A' for Active; 'I' for Inactive)
REMARK    1  A    between atoms: N1_1  and  C1_4 
REMARK    2  A    between atoms: C2_9  and  S1_10 
REMARK    3  A    between atoms: S1_10  and  C3_11 
REMARK    4  A    between atoms: C3_11  and  O1_12 
REMARK    5  A    between atoms: O1_12  and  C4_13 
REMARK    6  A    between atoms: C4_13  and  C5_15 
REMARK    7  A    between atoms: C6_16  and  C7_17 
REMARK    8  A    between atoms: C9_24  and  O6_25 
REMARK    9  A    between atoms: C10_27  and  N5_28 
REMARK   10  A    between atoms: N5_28  and  O7_30 
REMARK   11  A    between atoms: C11_32  and  O8_33 
REMARK   12  A    between atoms: C11_32  and  C12_35 
ROOT
HETATM    1  C5  UNL     1      19.736   9.274  18.729  1.00  0.00     0.114 C 
HETATM    2  C6  UNL     1      18.600   9.562  18.138  1.00  0.00     0.125 C 
HETATM    3  N4  UNL     1      18.083   8.526  17.243  1.00  0.00    -0.354 N 
ATOM      4  H4  UNL     1      17.405   8.780  16.524  1.00  0.00     0.162 HD
HETATM    5  C8  UNL     1      18.509   7.160  17.354  1.00  0.00     0.273 C 
HETATM    6  O5  UNL     1      19.210   7.027  18.552  1.00  0.00    -0.320 OA
HETATM    7  C9  UNL     1      20.277   7.916  18.383  1.00  0.00     0.228 C 
HETATM    8  C10 UNL     1      20.683   7.838  16.907  1.00  0.00     0.223 C 
HETATM    9  C11 UNL     1      19.673   6.888  16.378  1.00  0.00     0.217 C 
ENDROOT
BRANCH   1  10
HETATM   10  C4  UNL     1      20.442  10.123  19.635  1.00  0.00     0.298 C 
HETATM   11  O2  UNL     1      20.108  10.699  20.673  1.00  0.00    -0.259 OA
BRANCH  10  12
HETATM   12  O1  UNL     1      21.800  10.372  19.298  1.00  0.00    -0.307 OA
BRANCH  12  13
HETATM   13  C3  UNL     1      22.753  10.374  20.351  1.00  0.00     0.260 C 
BRANCH  13  14
HETATM   14  S1  UNL     1      23.930  11.716  19.961  1.00  0.00    -0.077 SA
BRANCH  14  15
HETATM   15  C2  UNL     1      22.957  13.172  19.501  1.00  0.00     0.132 A 
HETATM   16  N3  UNL     1      21.640  13.316  19.510  1.00  0.00    -0.286 N 
HETATM   17  N2  UNL     1      21.117  14.416  19.154  1.00  0.00    -0.279 N 
ATOM     18  H3  UNL     1      21.046  12.540  19.804  1.00  0.00     0.188 HD
HETATM   19  C1  UNL     1      21.919  15.416  18.773  1.00  0.00     0.159 A 
ATOM     20  H2  UNL     1      20.104  14.535  19.159  1.00  0.00     0.189 HD
HETATM   21  S2  UNL     1      23.465  14.705  18.949  1.00  0.00    -0.027 SA
BRANCH  19  22
HETATM   22  N1  UNL     1      21.562  16.618  18.374  1.00  0.00    -0.379 N 
ATOM     23  H12 UNL     1      20.921  17.296  18.784  1.00  0.00     0.158 HD
ATOM     24  H11 UNL     1      21.879  17.113  17.540  1.00  0.00     0.158 HD
ENDBRANCH  19  22
ENDBRANCH  14  15
ENDBRANCH  13  14
ENDBRANCH  12  13
ENDBRANCH  10  12
ENDBRANCH   1  10
BRANCH   2  25
HETATM   25  C7  UNL     1      17.889  10.784  18.313  1.00  0.00     0.227 C 
HETATM   26  O3  UNL     1      18.079  11.880  17.814  1.00  0.00    -0.643 OA
HETATM   27  O4  UNL     1      16.782  10.728  19.209  1.00  0.00    -0.643 OA
ENDBRANCH   2  25
BRANCH   7  28
HETATM   28  O6  UNL     1      21.348   7.543  19.190  1.00  0.00    -0.359 OA
ATOM     29  H6  UNL     1      21.741   6.720  18.922  1.00  0.00     0.213 HD
ENDBRANCH   7  28
BRANCH   8  30
HETATM   30  N5  UNL     1      20.648   9.170  16.366  1.00  0.00    -0.291 N 
ATOM     31  H5  UNL     1      19.778   9.639  16.116  1.00  0.00     0.188 HD
BRANCH  30  32
HETATM   32  O7  UNL     1      21.850   9.749  16.215  1.00  0.00    -0.294 OA
ATOM     33  H7  UNL     1      21.828  10.627  15.855  1.00  0.00     0.244 HD
ENDBRANCH  30  32
ENDBRANCH   8  30
BRANCH   9  34
HETATM   34  O8  UNL     1      20.131   5.598  16.657  1.00  0.00    -0.373 OA
ATOM     35  H8  UNL     1      19.499   4.999  16.277  1.00  0.00     0.211 HD
ENDBRANCH   9  34
BRANCH   9  36
HETATM   36  C12 UNL     1      19.262   7.025  14.995  1.00  0.00     0.216 C 
HETATM   37  O9  UNL     1      19.228   5.966  14.273  1.00  0.00    -0.646 OA
HETATM   38  O10 UNL     1      18.898   8.176  14.363  1.00  0.00    -0.646 OA
ENDBRANCH   9  36
TORSDOF 12
ENDMDL
MODEL 2
REMARK VINA RESULT: -7.136139635      1.287      1.664
REMARK  12 active torsions:
REMARK  status: ('A' for Active; 'I' for Inactive)
REMARK    1  A    between atoms: N1_1  and  C1_4 
REMARK    2  A    between atoms: C2_9  and  S1_10 
REMARK    3  A    between atoms: S1_10  and  C3_11 
REMARK    4  A    between atoms: C3_11  and  O1_12 
REMARK    5  A    between atoms: O1_12  and  C4_13 
REMARK    6  A    between atoms: C4_13  and  C5_15 
REMARK    7  A    between atoms: C6_16  and  C7_17 
REMARK    8  A    between atoms: C9_24  and  O6_25 
REMARK    9  A    between atoms: C10_27  and  N5_28 
REMARK   10  A    between atoms: N5_28  and  O7_30 
REMARK   11  A    between atoms: C11_32  and  O8_33 
REMARK   12  A    between atoms: C11_32  and  C12_35 
ROOT
HETATM    1  C5  UNL     1      19.898   8.831  17.824  1.00  0.00     0.114 C 
HETATM    2  C6  UNL     1      18.619   9.118  17.897  1.00  0.00     0.125 C 
HETATM    3  N4  UNL     1      17.717   7.973  17.770  1.00  0.00    -0.354 N 
ATOM      4  H4  UNL     1      16.745   8.130  17.502  1.00  0.00     0.162 HD
HETATM    5  C8  UNL     1      18.169   6.632  18.014  1.00  0.00     0.273 C 
HETATM    6  O5  UNL     1      19.426   6.707  18.613  1.00  0.00    -0.320 OA
HETATM    7  C9  UNL     1      20.188   7.369  17.643  1.00  0.00     0.228 C 
HETATM    8  C10 UNL     1      19.695   6.868  16.281  1.00  0.00     0.223 C 
HETATM    9  C11 UNL     1      18.588   5.966  16.687  1.00  0.00     0.217 C 
ENDROOT
BRANCH   1  10
HETATM   10  C4  UNL     1      20.968   9.774  17.910  1.00  0.00     0.298 C 
HETATM   11  O2  UNL     1      21.501  10.512  17.077  1.00  0.00    -0.259 OA
BRANCH  10  12
HETATM   12  O1  UNL     1      21.555   9.909  19.197  1.00  0.00    -0.307 OA
BRANCH  12  13
HETATM   13  C3  UNL     1      22.962  10.084  19.268  1.00  0.00     0.260 C 
BRANCH  13  14
HETATM   14  S1  UNL     1      23.230  11.633  20.199  1.00  0.00    -0.077 SA
BRANCH  14  15
HETATM   15  C2  UNL     1      22.181  12.904  19.449  1.00  0.00     0.132 A 
HETATM   16  N3  UNL     1      20.896  12.828  19.139  1.00  0.00    -0.286 N 
HETATM   17  N2  UNL     1      20.308  13.823  18.613  1.00  0.00    -0.279 N 
ATOM     18  H3  UNL     1      20.377  11.969  19.323  1.00  0.00     0.188 HD
HETATM   19  C1  UNL     1      21.011  14.937  18.382  1.00  0.00     0.159 A 
ATOM     20  H2  UNL     1      19.318  13.773  18.372  1.00  0.00     0.189 HD
HETATM   21  S2  UNL     1      22.561  14.492  18.955  1.00  0.00    -0.027 SA
BRANCH  19  22
HETATM   22  N1  UNL     1      20.577  16.059  17.849  1.00  0.00    -0.379 N 
ATOM     23  H12 UNL     1      19.997  16.803  18.236  1.00  0.00     0.158 HD
ATOM     24  H11 UNL     1      20.752  16.404  16.905  1.00  0.00     0.158 HD
ENDBRANCH  19  22
ENDBRANCH  14  15
ENDBRANCH  13  14
ENDBRANCH  12  13
ENDBRANCH  10  12
ENDBRANCH   1  10
BRANCH   2  25
HETATM   25  C7  UNL     1      18.097  10.431  18.075  1.00  0.00     0.227 C 
HETATM   26  O3  UNL     1      18.443  11.486  17.572  1.00  0.00    -0.643 OA
HETATM   27  O4  UNL     1      17.001  10.540  18.980  1.00  0.00    -0.643 OA
ENDBRANCH   2  25
BRANCH   7  28
HETATM   28  O6  UNL     1      21.537   7.065  17.800  1.00  0.00    -0.359 OA
ATOM     29  H6  UNL     1      22.033   7.170  16.997  1.00  0.00     0.213 HD
ENDBRANCH   7  28
BRANCH   8  30
HETATM   30  N5  UNL     1      19.325   8.014  15.495  1.00  0.00    -0.291 N 
ATOM     31  H5  UNL     1      19.003   8.887  15.912  1.00  0.00     0.188 HD
BRANCH  30  32
HETATM   32  O7  UNL     1      19.436   7.845  14.167  1.00  0.00    -0.294 OA
ATOM     33  H7  UNL     1      19.388   8.645  13.659  1.00  0.00     0.244 HD
ENDBRANCH  30  32
ENDBRANCH   8  30
BRANCH   9  34
HETATM   34  O8  UNL     1      19.159   4.736  17.024  1.00  0.00    -0.373 OA
ATOM     35  H8  UNL     1      19.379   4.307  16.206  1.00  0.00     0.211 HD
ENDBRANCH   9  34
BRANCH   9  36
HETATM   36  C12 UNL     1      17.467   5.807  15.783  1.00  0.00     0.216 C 
HETATM   37  O9  UNL     1      17.703   5.344  14.612  1.00  0.00    -0.646 OA
HETATM   38  O10 UNL     1      16.161   6.099  16.045  1.00  0.00    -0.646 OA
ENDBRANCH   9  36
TORSDOF 12
ENDMDL
MODEL 3
REMARK VINA RESULT: -6.979639153      1.406      1.467
REMARK  12 active torsions:
REMARK  status: ('A' for Active; 'I' for Inactive)
REMARK    1  A    between atoms: N1_1  and  C1_4 
REMARK    2  A    between atoms: C2_9  and  S1_10 
REMARK    3  A    between atoms: S1_10  and  C3_11 
REMARK    4  A    between atoms: C3_11  and  O1_12 
REMARK    5  A    between atoms: O1_12  and  C4_13 
REMARK    6  A    between atoms: C4_13  and  C5_15 
REMARK    7  A    between atoms: C6_16  and  C7_17 
REMARK    8  A    between atoms: C9_24  and  O6_25 
REMARK    9  A    between atoms: C10_27  and  N5_28 
REMARK   10  A    between atoms: N5_28  and  O7_30 
REMARK   11  A    between atoms: C11_32  and  O8_33 
REMARK   12  A    between atoms: C11_32  and  C12_35 
ROOT
HETATM    1  C5  UNL     1      19.768   9.281  18.716  1.00  0.00     0.114 C 
HETATM    2  C6  UNL     1      18.616   9.551  18.148  1.00  0.00     0.125 C 
HETATM    3  N4  UNL     1      18.087   8.499  17.280  1.00  0.00    -0.354 N 
ATOM      4  H4  UNL     1      17.391   8.736  16.574  1.00  0.00     0.162 HD
HETATM    5  C8  UNL     1      18.528   7.138  17.400  1.00  0.00     0.273 C 
HETATM    6  O5  UNL     1      19.258   7.027  18.583  1.00  0.00    -0.320 OA
HETATM    7  C9  UNL     1      20.314   7.923  18.376  1.00  0.00     0.228 C 
HETATM    8  C10 UNL     1      20.685   7.828  16.893  1.00  0.00     0.223 C 
HETATM    9  C11 UNL     1      19.671   6.862  16.400  1.00  0.00     0.217 C 
ENDROOT
BRANCH   1  10
HETATM   10  C4  UNL     1      20.488  10.149  19.593  1.00  0.00     0.298 C 
HETATM   11  O2  UNL     1      20.259  10.563  20.732  1.00  0.00    -0.259 OA
BRANCH  10  12
HETATM   12  O1  UNL     1      21.714  10.651  19.077  1.00  0.00    -0.307 OA
BRANCH  12  13
HETATM   13  C3  UNL     1      21.710  11.953  18.512  1.00  0.00     0.260 C 
BRANCH  13  14
HETATM   14  S1  UNL     1      23.386  12.626  18.791  1.00  0.00    -0.077 SA
BRANCH  14  15
HETATM   15  C2  UNL     1      23.256  13.881  20.090  1.00  0.00     0.132 A 
HETATM   16  N3  UNL     1      23.719  13.829  21.330  1.00  0.00    -0.286 N 
HETATM   17  N2  UNL     1      23.538  14.807  22.118  1.00  0.00    -0.279 N 
ATOM     18  H3  UNL     1      24.221  13.002  21.651  1.00  0.00     0.188 HD
HETATM   19  C1  UNL     1      22.876  15.880  21.672  1.00  0.00     0.159 A 
ATOM     20  H2  UNL     1      23.892  14.775  23.074  1.00  0.00     0.189 HD
HETATM   21  S2  UNL     1      22.521  15.421  20.062  1.00  0.00    -0.027 SA
BRANCH  19  22
HETATM   22  N1  UNL     1      22.594  16.979  22.338  1.00  0.00    -0.379 N 
ATOM     23  H12 UNL     1      21.731  17.518  22.405  1.00  0.00     0.158 HD
ATOM     24  H11 UNL     1      23.219  17.516  22.938  1.00  0.00     0.158 HD
ENDBRANCH  19  22
ENDBRANCH  14  15
ENDBRANCH  13  14
ENDBRANCH  12  13
ENDBRANCH  10  12
ENDBRANCH   1  10
BRANCH   2  25
HETATM   25  C7  UNL     1      17.899  10.769  18.323  1.00  0.00     0.227 C 
HETATM   26  O3  UNL     1      18.075  11.863  17.813  1.00  0.00    -0.643 OA
HETATM   27  O4  UNL     1      16.803  10.713  19.233  1.00  0.00    -0.643 OA
ENDBRANCH   2  25
BRANCH   7  28
HETATM   28  O6  UNL     1      21.406   7.571  19.163  1.00  0.00    -0.359 OA
ATOM     29  H6  UNL     1      21.612   6.645  19.112  1.00  0.00     0.213 HD
ENDBRANCH   7  28
BRANCH   8  30
HETATM   30  N5  UNL     1      20.626   9.152  16.334  1.00  0.00    -0.291 N 
ATOM     31  H5  UNL     1      19.747   9.650  16.194  1.00  0.00     0.188 HD
BRANCH  30  32
HETATM   32  O7  UNL     1      21.817   9.681  16.011  1.00  0.00    -0.294 OA
ATOM     33  H7  UNL     1      22.097  10.399  16.564  1.00  0.00     0.244 HD
ENDBRANCH  30  32
ENDBRANCH   8  30
BRANCH   9  34
HETATM   34  O8  UNL     1      20.147   5.580  16.687  1.00  0.00    -0.373 OA
ATOM     35  H8  UNL     1      20.163   5.503  17.633  1.00  0.00     0.211 HD
ENDBRANCH   9  34
BRANCH   9  36
HETATM   36  C12 UNL     1      19.227   6.975  15.026  1.00  0.00     0.216 C 
HETATM   37  O9  UNL     1      19.114   5.897  14.342  1.00  0.00    -0.646 OA
HETATM   38  O10 UNL     1      18.906   8.124  14.365  1.00  0.00    -0.646 OA
ENDBRANCH   9  36
TORSDOF 12
ENDMDL
MODEL 4
REMARK VINA RESULT: -6.808335206      1.832      3.631
REMARK  12 active torsions:
REMARK  status: ('A' for Active; 'I' for Inactive)
REMARK    1  A    between atoms: N1_1  and  C1_4 
REMARK    2  A    between atoms: C2_9  and  S1_10 
REMARK    3  A    between atoms: S1_10  and  C3_11 
REMARK    4  A    between atoms: C3_11  and  O1_12 
REMARK    5  A    between atoms: O1_12  and  C4_13 
REMARK    6  A    between atoms: C4_13  and  C5_15 
REMARK    7  A    between atoms: C6_16  and  C7_17 
REMARK    8  A    between atoms: C9_24  and  O6_25 
REMARK    9  A    between atoms: C10_27  and  N5_28 
REMARK   10  A    between atoms: N5_28  and  O7_30 
REMARK   11  A    between atoms: C11_32  and  O8_33 
REMARK   12  A    between atoms: C11_32  and  C12_35 
ROOT
HETATM    1  C5  UNL     1      18.786   8.765  17.440  1.00  0.00     0.114 C 
HETATM    2  C6  UNL     1      19.812   8.176  18.008  1.00  0.00     0.125 C 
HETATM    3  N4  UNL     1      20.327   7.003  17.300  1.00  0.00    -0.354 N 
ATOM      4  H4  UNL     1      20.889   6.320  17.808  1.00  0.00     0.162 HD
HETATM    5  C8  UNL     1      20.057   6.792  15.906  1.00  0.00     0.273 C 
HETATM    6  O5  UNL     1      19.514   7.969  15.392  1.00  0.00    -0.320 OA
HETATM    7  C9  UNL     1      18.350   8.126  16.152  1.00  0.00     0.228 C 
HETATM    8  C10 UNL     1      17.789   6.720  16.391  1.00  0.00     0.223 C 
HETATM    9  C11 UNL     1      18.825   5.880  15.738  1.00  0.00     0.217 C 
ENDROOT
BRANCH   1  10
HETATM   10  C4  UNL     1      18.104   9.915  17.942  1.00  0.00     0.298 C 
HETATM   11  O2  UNL     1      17.156  10.053  18.718  1.00  0.00    -0.259 OA
BRANCH  10  12
HETATM   12  O1  UNL     1      18.594  11.164  17.470  1.00  0.00    -0.307 OA
BRANCH  12  13
HETATM   13  C3  UNL     1      19.089  12.086  18.429  1.00  0.00     0.260 C 
BRANCH  13  14
HETATM   14  S1  UNL     1      18.953  13.736  17.656  1.00  0.00    -0.077 SA
BRANCH  14  15
HETATM   15  C2  UNL     1      20.465  14.647  18.058  1.00  0.00     0.132 A 
HETATM   16  N3  UNL     1      20.709  15.940  17.903  1.00  0.00    -0.286 N 
HETATM   17  N2  UNL     1      21.834  16.420  18.241  1.00  0.00    -0.279 N 
ATOM     18  H3  UNL     1      19.991  16.550  17.512  1.00  0.00     0.188 HD
HETATM   19  C1  UNL     1      22.758  15.598  18.751  1.00  0.00     0.159 A 
ATOM     20  H2  UNL     1      22.030  17.414  18.125  1.00  0.00     0.189 HD
HETATM   21  S2  UNL     1      21.936  14.097  18.724  1.00  0.00    -0.027 SA
BRANCH  19  22
HETATM   22  N1  UNL     1      23.971  15.911  19.153  1.00  0.00    -0.379 N 
ATOM     23  H12 UNL     1      24.593  16.669  18.873  1.00  0.00     0.158 HD
ATOM     24  H11 UNL     1      24.535  15.429  19.852  1.00  0.00     0.158 HD
ENDBRANCH  19  22
ENDBRANCH  14  15
ENDBRANCH  13  14
ENDBRANCH  12  13
ENDBRANCH  10  12
ENDBRANCH   1  10
BRANCH   2  25
HETATM   25  C7  UNL     1      20.410   8.601  19.229  1.00  0.00     0.227 C 
HETATM   26  O3  UNL     1      20.183   8.254  20.375  1.00  0.00    -0.643 OA
HETATM   27  O4  UNL     1      21.434   9.585  19.103  1.00  0.00    -0.643 OA
ENDBRANCH   2  25
BRANCH   7  28
HETATM   28  O6  UNL     1      17.421   8.896  15.458  1.00  0.00    -0.359 OA
ATOM     29  H6  UNL     1      17.678   9.057  14.558  1.00  0.00     0.213 HD
ENDBRANCH   7  28
BRANCH   8  30
HETATM   30  N5  UNL     1      17.626   6.541  17.808  1.00  0.00    -0.291 N 
ATOM     31  H5  UNL     1      18.301   6.893  18.488  1.00  0.00     0.188 HD
BRANCH  30  32
HETATM   32  O7  UNL     1      16.518   5.875  18.168  1.00  0.00    -0.294 OA
ATOM     33  H7  UNL     1      16.604   4.929  18.170  1.00  0.00     0.244 HD
ENDBRANCH  30  32
ENDBRANCH   8  30
BRANCH   9  34
HETATM   34  O8  UNL     1      18.534   5.853  14.371  1.00  0.00    -0.373 OA
ATOM     35  H8  UNL     1      17.638   5.548  14.291  1.00  0.00     0.211 HD
ENDBRANCH   9  34
BRANCH   9  36
HETATM   36  C12 UNL     1      19.059   4.550  16.263  1.00  0.00     0.216 C 
HETATM   37  O9  UNL     1      20.254   4.091  16.218  1.00  0.00    -0.646 OA
HETATM   38  O10 UNL     1      18.132   3.716  16.815  1.00  0.00    -0.646 OA
ENDBRANCH   9  36
TORSDOF 12
ENDMDL
MODEL 5
REMARK VINA RESULT: -6.739234136      4.399      7.951
REMARK  12 active torsions:
REMARK  status: ('A' for Active; 'I' for Inactive)
REMARK    1  A    between atoms: N1_1  and  C1_4 
REMARK    2  A    between atoms: C2_9  and  S1_10 
REMARK    3  A    between atoms: S1_10  and  C3_11 
REMARK    4  A    between atoms: C3_11  and  O1_12 
REMARK    5  A    between atoms: O1_12  and  C4_13 
REMARK    6  A    between atoms: C4_13  and  C5_15 
REMARK    7  A    between atoms: C6_16  and  C7_17 
REMARK    8  A    between atoms: C9_24  and  O6_25 
REMARK    9  A    between atoms: C10_27  and  N5_28 
REMARK   10  A    between atoms: N5_28  and  O7_30 
REMARK   11  A    between atoms: C11_32  and  O8_33 
REMARK   12  A    between atoms: C11_32  and  C12_35 
ROOT
HETATM    1  C5  UNL     1      19.549   8.049  17.946  1.00  0.00     0.114 C 
HETATM    2  C6  UNL     1      19.773   8.643  16.798  1.00  0.00     0.125 C 
HETATM    3  N4  UNL     1      20.475   9.924  16.885  1.00  0.00    -0.354 N 
ATOM      4  H4  UNL     1      20.409  10.583  16.110  1.00  0.00     0.162 HD
HETATM    5  C8  UNL     1      21.253  10.274  18.039  1.00  0.00     0.273 C 
HETATM    6  O5  UNL     1      21.403   9.127  18.818  1.00  0.00    -0.320 OA
HETATM    7  C9  UNL     1      20.080   8.798  19.135  1.00  0.00     0.228 C 
HETATM    8  C10 UNL     1      19.335  10.122  19.337  1.00  0.00     0.223 C 
HETATM    9  C11 UNL     1      20.401  11.106  19.020  1.00  0.00     0.217 C 
ENDROOT
BRANCH   1  10
HETATM   10  C4  UNL     1      18.877   6.801  18.121  1.00  0.00     0.298 C 
HETATM   11  O2  UNL     1      19.271   5.677  18.439  1.00  0.00    -0.259 OA
BRANCH  10  12
HETATM   12  O1  UNL     1      17.475   6.830  17.888  1.00  0.00    -0.307 OA
BRANCH  12  13
HETATM   13  C3  UNL     1      16.806   5.589  17.722  1.00  0.00     0.260 C 
BRANCH  13  14
HETATM   14  S1  UNL     1      16.733   5.296  15.920  1.00  0.00    -0.077 SA
BRANCH  14  15
HETATM   15  C2  UNL     1      15.033   4.823  15.517  1.00  0.00     0.132 A 
HETATM   16  N3  UNL     1      14.425   3.669  15.749  1.00  0.00    -0.286 N 
HETATM   17  N2  UNL     1      13.217   3.503  15.398  1.00  0.00    -0.279 N 
ATOM     18  H3  UNL     1      14.930   2.912  16.210  1.00  0.00     0.188 HD
HETATM   19  C1  UNL     1      12.579   4.512  14.794  1.00  0.00     0.159 A 
ATOM     20  H2  UNL     1      12.742   2.618  15.573  1.00  0.00     0.189 HD
HETATM   21  S2  UNL     1      13.795   5.714  14.752  1.00  0.00    -0.027 SA
BRANCH  19  22
HETATM   22  N1  UNL     1      11.336   4.525  14.362  1.00  0.00    -0.379 N 
ATOM     23  H12 UNL     1      10.510   4.023  14.686  1.00  0.00     0.158 HD
ATOM     24  H11 UNL     1      10.956   5.068  13.587  1.00  0.00     0.158 HD
ENDBRANCH  19  22
ENDBRANCH  14  15
ENDBRANCH  13  14
ENDBRANCH  12  13
ENDBRANCH  10  12
ENDBRANCH   1  10
BRANCH   2  25
HETATM   25  C7  UNL     1      19.373   8.125  15.532  1.00  0.00     0.227 C 
HETATM   26  O3  UNL     1      19.970   7.394  14.761  1.00  0.00    -0.643 OA
HETATM   27  O4  UNL     1      18.076   8.517  15.089  1.00  0.00    -0.643 OA
ENDBRANCH   2  25
BRANCH   7  28
HETATM   28  O6  UNL     1      20.038   8.046  20.306  1.00  0.00    -0.359 OA
ATOM     29  H6  UNL     1      19.327   8.303  20.881  1.00  0.00     0.213 HD
ENDBRANCH   7  28
BRANCH   8  30
HETATM   30  N5  UNL     1      18.190  10.124  18.468  1.00  0.00    -0.291 N 
ATOM     31  H5  UNL     1      18.233   9.802  17.501  1.00  0.00     0.188 HD
BRANCH  30  32
HETATM   32  O7  UNL     1      17.059  10.582  19.027  1.00  0.00    -0.294 OA
ATOM     33  H7  UNL     1      16.851  11.486  18.824  1.00  0.00     0.244 HD
ENDBRANCH  30  32
ENDBRANCH   8  30
BRANCH   9  34
HETATM   34  O8  UNL     1      21.171  11.269  20.175  1.00  0.00    -0.373 OA
ATOM     35  H8  UNL     1      20.806  10.682  20.827  1.00  0.00     0.211 HD
ENDBRANCH   9  34
BRANCH   9  36
HETATM   36  C12 UNL     1      20.010  12.380  18.451  1.00  0.00     0.216 C 
HETATM   37  O9  UNL     1      20.786  13.382  18.639  1.00  0.00    -0.646 OA
HETATM   38  O10 UNL     1      18.888  12.637  17.722  1.00  0.00    -0.646 OA
ENDBRANCH   9  36
TORSDOF 12
ENDMDL
