MODEL 1
REMARK VINA RESULT: -6.792561127      0.000      0.000
REMARK  13 active torsions:
REMARK  status: ('A' for Active; 'I' for Inactive)
REMARK    1  A    between atoms: O1_2  and  C2_3 
REMARK    2  A    between atoms: C2_3  and  C3_5 
REMARK    3  A    between atoms: C4_8  and  N2_9 
REMARK    4  A    between atoms: N2_9  and  C5_11 
REMARK    5  A    between atoms: C6_14  and  N4_15 
REMARK    6  A    between atoms: C7_20  and  O3_21 
REMARK    7  A    between atoms: C8_23  and  C9_24 
REMARK    8  A    between atoms: C9_24  and  C10_25 
REMARK    9  A    between atoms: C10_25  and  C11_30 
REMARK   10  A    between atoms: N6_26  and  O4_28 
REMARK   11  A    between atoms: C14_35  and  N7_36 
REMARK   12  A    between atoms: C15_40  and  N8_41 
REMARK   13  A    between atoms: N8_41  and  N9_42 
ROOT
HETATM    1  N2  UNL     1      22.386  12.438  19.751  1.00  0.00    -0.348 N 
ATOM      2  H2  UNL     1      22.289  11.466  20.044  1.00  0.00     0.163 HD
ENDROOT
BRANCH   1   3
HETATM    3  C4  UNL     1      23.592  13.105  20.121  1.00  0.00     0.258 C 
HETATM    4  N1  UNL     1      23.255  14.349  20.748  1.00  0.00    -0.344 N 
HETATM    5  C3  UNL     1      23.396  14.774  21.941  1.00  0.00     0.177 C 
ATOM      6  H1  UNL     1      22.820  15.024  20.119  1.00  0.00     0.163 HD
HETATM    7  N10 UNL     1      23.964  14.080  23.039  1.00  0.00    -0.349 N 
HETATM    8  C15 UNL     1      24.118  12.725  23.448  1.00  0.00     0.235 C 
ATOM      9  H10 UNL     1      24.370  14.724  23.718  1.00  0.00     0.163 HD
HETATM   10  C14 UNL     1      24.174  11.710  22.353  1.00  0.00     0.296 C 
HETATM   11  C13 UNL     1      24.453  12.323  21.025  1.00  0.00     0.202 C 
HETATM   12  O6  UNL     1      25.588  12.140  20.629  1.00  0.00    -0.291 OA
BRANCH   5  13
HETATM   13  C2  UNL     1      22.913  16.149  22.211  1.00  0.00     0.326 C 
HETATM   14  O2  UNL     1      21.973  16.575  21.503  1.00  0.00    -0.256 OA
BRANCH  13  15
HETATM   15  O1  UNL     1      23.445  16.950  23.181  1.00  0.00    -0.320 OA
HETATM   16  C1  UNL     1      22.821  17.249  24.415  1.00  0.00     0.213 C 
ENDBRANCH  13  15
ENDBRANCH   5  13
BRANCH   8  17
HETATM   17  N8  UNL     1      23.140  12.326  24.456  1.00  0.00    -0.120 NA
BRANCH  17  18
HETATM   18  N9  UNL     1      22.554  13.453  25.056  1.00  0.00    -0.346 N 
ATOM     19  H92 UNL     1      23.060  14.314  25.261  1.00  0.00     0.172 HD
ATOM     20  H91 UNL     1      21.567  13.287  25.252  1.00  0.00     0.172 HD
ENDBRANCH  17  18
ENDBRANCH   8  17
BRANCH  10  21
HETATM   21  N7  UNL     1      22.963  10.928  22.202  1.00  0.00    -0.065 N 
ATOM     22  H73 UNL     1      23.100  10.071  21.665  1.00  0.00     0.275 HD
ATOM     23  H72 UNL     1      22.658  10.486  23.070  1.00  0.00     0.275 HD
ATOM     24  H71 UNL     1      22.262  11.549  21.798  1.00  0.00     0.275 HD
ENDBRANCH  10  21
ENDBRANCH   1   3
BRANCH   1  25
HETATM   25  C5  UNL     1      21.407  12.942  19.082  1.00  0.00     0.129 A 
HETATM   26  N3  UNL     1      21.397  14.223  18.674  1.00  0.00    -0.176 N 
HETATM   27  C6  UNL     1      20.371  14.746  17.971  1.00  0.00     0.679 A 
ATOM     28  H3  UNL     1      22.191  14.819  18.904  1.00  0.00     0.186 HD
HETATM   29  N5  UNL     1      19.302  13.998  17.646  1.00  0.00    -0.170 N 
HETATM   30  C7  UNL     1      19.239  12.696  18.023  1.00  0.00     0.165 A 
ATOM     31  H5  UNL     1      18.537  14.411  17.114  1.00  0.00     0.186 HD
HETATM   32  C8  UNL     1      20.293  12.184  18.737  1.00  0.00     0.043 A 
BRANCH  27  33
HETATM   33  N4  UNL     1      20.368  15.977  17.581  1.00  0.00    -0.234 N 
ATOM     34  H42 UNL     1      20.102  16.156  16.613  1.00  0.00     0.174 HD
ATOM     35  H41 UNL     1      20.617  16.743  18.206  1.00  0.00     0.174 HD
ENDBRANCH  27  33
BRANCH  30  36
HETATM   36  O3  UNL     1      18.169  11.879  17.719  1.00  0.00    -0.345 OA
ATOM     37  H3  UNL     1      17.409  12.182  17.236  1.00  0.00     0.219 HD
ENDBRANCH  30  36
BRANCH  32  38
HETATM   38  C9  UNL     1      20.301  10.772  19.188  1.00  0.00     0.110 C 
BRANCH  38  39
HETATM   39  C10 UNL     1      20.496   9.824  18.070  1.00  0.00     0.081 C 
HETATM   40  N6  UNL     1      21.231  10.127  17.078  1.00  0.00    -0.270 N 
ATOM     41  H6  UNL     1      21.692  11.036  17.052  1.00  0.00     0.194 HD
BRANCH  40  42
HETATM   42  O4  UNL     1      21.409   9.246  16.044  1.00  0.00    -0.290 OA
ATOM     43  H4  UNL     1      20.670   8.956  15.521  1.00  0.00     0.244 HD
ENDBRANCH  40  42
BRANCH  39  44
HETATM   44  C11 UNL     1      19.836   8.548  18.127  1.00  0.00     0.170 C 
HETATM   45  C12 UNL     1      18.359   8.410  17.880  1.00  0.00     0.098 C 
HETATM   46  O5  UNL     1      20.513   7.524  18.392  1.00  0.00    -0.291 OA
ENDBRANCH  39  44
ENDBRANCH  38  39
ENDBRANCH  32  38
ENDBRANCH   1  25
TORSDOF 13
ENDMDL
MODEL 2
REMARK VINA RESULT: -6.720177180      4.324      9.312
REMARK  13 active torsions:
REMARK  status: ('A' for Active; 'I' for Inactive)
REMARK    1  A    between atoms: O1_2  and  C2_3 
REMARK    2  A    between atoms: C2_3  and  C3_5 
REMARK    3  A    between atoms: C4_8  and  N2_9 
REMARK    4  A    between atoms: N2_9  and  C5_11 
REMARK    5  A    between atoms: C6_14  and  N4_15 
REMARK    6  A    between atoms: C7_20  and  O3_21 
REMARK    7  A    between atoms: C8_23  and  C9_24 
REMARK    8  A    between atoms: C9_24  and  C10_25 
REMARK    9  A    between atoms: C10_25  and  C11_30 
REMARK   10  A    between atoms: N6_26  and  O4_28 
REMARK   11  A    between atoms: C14_35  and  N7_36 
REMARK   12  A    between atoms: C15_40  and  N8_41 
REMARK   13  A    between atoms: N8_41  and  N9_42 
ROOT
HETATM    1  N2  UNL     1      20.518   7.327  18.055  1.00  0.00    -0.348 N 
ATOM      2  H2  UNL     1      20.651   8.016  17.315  1.00  0.00     0.163 HD
ENDROOT
BRANCH   1   3
HETATM    3  C4  UNL     1      20.140   6.012  17.651  1.00  0.00     0.258 C 
HETATM    4  N1  UNL     1      18.727   5.993  17.411  1.00  0.00    -0.344 N 
HETATM    5  C3  UNL     1      18.039   5.837  16.351  1.00  0.00     0.177 C 
ATOM      6  H1  UNL     1      18.164   6.131  18.252  1.00  0.00     0.163 HD
HETATM    7  N10 UNL     1      18.523   5.624  15.036  1.00  0.00    -0.349 N 
HETATM    8  C15 UNL     1      19.693   5.946  14.292  1.00  0.00     0.235 C 
ATOM      9  H10 UNL     1      17.854   5.099  14.472  1.00  0.00     0.163 HD
HETATM   10  C14 UNL     1      20.950   6.114  15.082  1.00  0.00     0.296 C 
HETATM   11  C13 UNL     1      20.842   5.532  16.448  1.00  0.00     0.202 C 
HETATM   12  O6  UNL     1      21.441   4.482  16.583  1.00  0.00    -0.291 OA
BRANCH   5  13
HETATM   13  C2  UNL     1      16.565   5.880  16.510  1.00  0.00     0.326 C 
HETATM   14  O2  UNL     1      16.110   5.737  17.667  1.00  0.00    -0.256 OA
BRANCH  13  15
HETATM   15  O1  UNL     1      15.707   6.067  15.464  1.00  0.00    -0.320 OA
HETATM   16  C1  UNL     1      14.498   5.357  15.275  1.00  0.00     0.213 C 
ENDBRANCH  13  15
ENDBRANCH   5  13
BRANCH   8  17
HETATM   17  N8  UNL     1      19.498   7.091  13.405  1.00  0.00    -0.120 NA
BRANCH  17  18
HETATM   18  N9  UNL     1      19.193   6.666  12.102  1.00  0.00    -0.346 N 
ATOM     19  H92 UNL     1      19.869   6.231  11.474  1.00  0.00     0.172 HD
ATOM     20  H91 UNL     1      18.215   6.852  11.880  1.00  0.00     0.172 HD
ENDBRANCH  17  18
ENDBRANCH   8  17
BRANCH  10  21
HETATM   21  N7  UNL     1      21.370   7.491  15.250  1.00  0.00    -0.065 N 
ATOM     22  H73 UNL     1      20.676   8.070  15.724  1.00  0.00     0.275 HD
ATOM     23  H72 UNL     1      22.118   7.604  15.934  1.00  0.00     0.275 HD
ATOM     24  H71 UNL     1      21.617   7.837  14.322  1.00  0.00     0.275 HD
ENDBRANCH  10  21
ENDBRANCH   1   3
BRANCH   1  25
HETATM   25  C5  UNL     1      20.710   7.730  19.264  1.00  0.00     0.129 A 
HETATM   26  N3  UNL     1      20.723   6.888  20.312  1.00  0.00    -0.176 N 
HETATM   27  C6  UNL     1      20.927   7.313  21.575  1.00  0.00     0.679 A 
ATOM     28  H3  UNL     1      20.573   5.893  20.145  1.00  0.00     0.186 HD
HETATM   29  N5  UNL     1      21.127   8.616  21.842  1.00  0.00    -0.170 N 
HETATM   30  C7  UNL     1      21.127   9.528  20.837  1.00  0.00     0.165 A 
ATOM     31  H5  UNL     1      21.280   8.919  22.804  1.00  0.00     0.186 HD
HETATM   32  C8  UNL     1      20.918   9.073  19.560  1.00  0.00     0.043 A 
BRANCH  27  33
HETATM   33  N4  UNL     1      20.940   6.500  22.577  1.00  0.00    -0.234 N 
ATOM     34  H42 UNL     1      21.114   5.516  22.374  1.00  0.00     0.174 HD
ATOM     35  H41 UNL     1      20.785   6.818  23.534  1.00  0.00     0.174 HD
ENDBRANCH  27  33
BRANCH  30  36
HETATM   36  O3  UNL     1      21.326  10.877  21.049  1.00  0.00    -0.345 OA
ATOM     37  H3  UNL     1      22.135  11.230  21.401  1.00  0.00     0.219 HD
ENDBRANCH  30  36
BRANCH  32  38
HETATM   38  C9  UNL     1      20.901  10.004  18.406  1.00  0.00     0.110 C 
BRANCH  38  39
HETATM   39  C10 UNL     1      19.745  10.925  18.441  1.00  0.00     0.081 C 
HETATM   40  N6  UNL     1      19.914  12.182  18.516  1.00  0.00    -0.270 N 
ATOM     41  H6  UNL     1      20.859  12.563  18.551  1.00  0.00     0.194 HD
BRANCH  40  42
HETATM   42  O4  UNL     1      18.839  13.032  18.548  1.00  0.00    -0.290 OA
ATOM     43  H4  UNL     1      18.664  13.563  19.316  1.00  0.00     0.244 HD
ENDBRANCH  40  42
BRANCH  39  44
HETATM   44  C11 UNL     1      18.421  10.368  18.390  1.00  0.00     0.170 C 
HETATM   45  C12 UNL     1      17.962   9.523  17.233  1.00  0.00     0.098 C 
HETATM   46  O5  UNL     1      17.627  10.596  19.337  1.00  0.00    -0.291 OA
ENDBRANCH  39  44
ENDBRANCH  38  39
ENDBRANCH  32  38
ENDBRANCH   1  25
TORSDOF 13
ENDMDL
MODEL 3
REMARK VINA RESULT: -6.657452900      2.493      7.156
REMARK  13 active torsions:
REMARK  status: ('A' for Active; 'I' for Inactive)
REMARK    1  A    between atoms: O1_2  and  C2_3 
REMARK    2  A    between atoms: C2_3  and  C3_5 
REMARK    3  A    between atoms: C4_8  and  N2_9 
REMARK    4  A    between atoms: N2_9  and  C5_11 
REMARK    5  A    between atoms: C6_14  and  N4_15 
REMARK    6  A    between atoms: C7_20  and  O3_21 
REMARK    7  A    between atoms: C8_23  and  C9_24 
REMARK    8  A    between atoms: C9_24  and  C10_25 
REMARK    9  A    between atoms: C10_25  and  C11_30 
REMARK   10  A    between atoms: N6_26  and  O4_28 
REMARK   11  A    between atoms: C14_35  and  N7_36 
REMARK   12  A    between atoms: C15_40  and  N8_41 
REMARK   13  A    between atoms: N8_41  and  N9_42 
ROOT
HETATM    1  N2  UNL     1      21.932  11.471  20.129  1.00  0.00    -0.348 N 
ATOM      2  H2  UNL     1      21.767  11.850  19.197  1.00  0.00     0.163 HD
ENDROOT
BRANCH   1   3
HETATM    3  C4  UNL     1      20.945  10.579  20.645  1.00  0.00     0.258 C 
HETATM    4  N1  UNL     1      19.782  10.646  19.810  1.00  0.00    -0.344 N 
HETATM    5  C3  UNL     1      19.234   9.800  19.032  1.00  0.00     0.177 C 
ATOM      6  H1  UNL     1      19.300  11.546  19.845  1.00  0.00     0.163 HD
HETATM    7  N10 UNL     1      19.659   8.473  18.770  1.00  0.00    -0.349 N 
HETATM    8  C15 UNL     1      20.887   7.752  18.776  1.00  0.00     0.235 C 
ATOM      9  H10 UNL     1      18.876   7.874  18.507  1.00  0.00     0.163 HD
HETATM   10  C14 UNL     1      21.943   8.259  19.703  1.00  0.00     0.296 C 
HETATM   11  C13 UNL     1      21.395   9.179  20.738  1.00  0.00     0.202 C 
HETATM   12  O6  UNL     1      21.310   8.680  21.843  1.00  0.00    -0.291 OA
BRANCH   5  13
HETATM   13  C2  UNL     1      18.014  10.251  18.322  1.00  0.00     0.326 C 
HETATM   14  O2  UNL     1      17.075  10.691  19.021  1.00  0.00    -0.256 OA
BRANCH  13  15
HETATM   15  O1  UNL     1      17.881  10.204  16.963  1.00  0.00    -0.320 OA
HETATM   16  C1  UNL     1      18.024   9.036  16.177  1.00  0.00     0.213 C 
ENDBRANCH  13  15
ENDBRANCH   5  13
BRANCH   8  17
HETATM   17  N8  UNL     1      21.438   7.569  17.436  1.00  0.00    -0.120 NA
BRANCH  17  18
HETATM   18  N9  UNL     1      20.730   6.578  16.736  1.00  0.00    -0.346 N 
ATOM     19  H92 UNL     1      20.049   5.954  17.170  1.00  0.00     0.172 HD
ATOM     20  H91 UNL     1      20.992   6.574  15.751  1.00  0.00     0.172 HD
ENDBRANCH  17  18
ENDBRANCH   8  17
BRANCH  10  21
HETATM   21  N7  UNL     1      23.023   8.969  19.047  1.00  0.00    -0.065 N 
ATOM     22  H73 UNL     1      23.305   8.545  18.162  1.00  0.00     0.275 HD
ATOM     23  H72 UNL     1      22.741   9.874  18.671  1.00  0.00     0.275 HD
ATOM     24  H71 UNL     1      23.784   9.033  19.724  1.00  0.00     0.275 HD
ENDBRANCH  10  21
ENDBRANCH   1   3
BRANCH   1  25
HETATM   25  C5  UNL     1      23.012  11.844  20.724  1.00  0.00     0.129 A 
HETATM   26  N3  UNL     1      23.491  11.214  21.810  1.00  0.00    -0.176 N 
HETATM   27  C6  UNL     1      24.624  11.606  22.429  1.00  0.00     0.679 A 
ATOM     28  H3  UNL     1      22.981  10.412  22.180  1.00  0.00     0.186 HD
HETATM   29  N5  UNL     1      25.329  12.658  21.979  1.00  0.00    -0.170 N 
HETATM   30  C7  UNL     1      24.908  13.347  20.887  1.00  0.00     0.165 A 
ATOM     31  H5  UNL     1      26.183  12.940  22.460  1.00  0.00     0.186 HD
HETATM   32  C8  UNL     1      23.754  12.931  20.274  1.00  0.00     0.043 A 
BRANCH  27  33
HETATM   33  N4  UNL     1      25.080  10.995  23.471  1.00  0.00    -0.234 N 
ATOM     34  H42 UNL     1      24.959   9.984  23.507  1.00  0.00     0.174 HD
ATOM     35  H41 UNL     1      25.544  11.495  24.230  1.00  0.00     0.174 HD
ENDBRANCH  27  33
BRANCH  30  36
HETATM   36  O3  UNL     1      25.589  14.435  20.380  1.00  0.00    -0.345 OA
ATOM     37  H3  UNL     1      26.023  14.423  19.535  1.00  0.00     0.219 HD
ENDBRANCH  30  36
BRANCH  32  38
HETATM   38  C9  UNL     1      23.226  13.630  19.078  1.00  0.00     0.110 C 
BRANCH  38  39
HETATM   39  C10 UNL     1      22.412  14.813  19.429  1.00  0.00     0.081 C 
HETATM   40  N6  UNL     1      22.558  15.396  20.549  1.00  0.00    -0.270 N 
ATOM     41  H6  UNL     1      23.245  15.044  21.215  1.00  0.00     0.194 HD
BRANCH  40  42
HETATM   42  O4  UNL     1      21.802  16.493  20.870  1.00  0.00    -0.290 OA
ATOM     43  H4  UNL     1      20.854  16.437  20.898  1.00  0.00     0.244 HD
ENDBRANCH  40  42
BRANCH  39  44
HETATM   44  C11 UNL     1      21.449  15.293  18.476  1.00  0.00     0.170 C 
HETATM   45  C12 UNL     1      20.244  14.479  18.090  1.00  0.00     0.098 C 
HETATM   46  O5  UNL     1      21.621  16.421  17.952  1.00  0.00    -0.291 OA
ENDBRANCH  39  44
ENDBRANCH  38  39
ENDBRANCH  32  38
ENDBRANCH   1  25
TORSDOF 13
ENDMDL
MODEL 4
REMARK VINA RESULT: -6.610286288      4.593      8.836
REMARK  13 active torsions:
REMARK  status: ('A' for Active; 'I' for Inactive)
REMARK    1  A    between atoms: O1_2  and  C2_3 
REMARK    2  A    between atoms: C2_3  and  C3_5 
REMARK    3  A    between atoms: C4_8  and  N2_9 
REMARK    4  A    between atoms: N2_9  and  C5_11 
REMARK    5  A    between atoms: C6_14  and  N4_15 
REMARK    6  A    between atoms: C7_20  and  O3_21 
REMARK    7  A    between atoms: C8_23  and  C9_24 
REMARK    8  A    between atoms: C9_24  and  C10_25 
REMARK    9  A    between atoms: C10_25  and  C11_30 
REMARK   10  A    between atoms: N6_26  and  O4_28 
REMARK   11  A    between atoms: C14_35  and  N7_36 
REMARK   12  A    between atoms: C15_40  and  N8_41 
REMARK   13  A    between atoms: N8_41  and  N9_42 
ROOT
HETATM    1  N2  UNL     1      21.626   7.350  18.055  1.00  0.00    -0.348 N 
ATOM      2  H2  UNL     1      22.185   7.904  17.406  1.00  0.00     0.163 HD
ENDROOT
BRANCH   1   3
HETATM    3  C4  UNL     1      21.094   6.122  17.561  1.00  0.00     0.258 C 
HETATM    4  N1  UNL     1      19.675   6.120  17.763  1.00  0.00    -0.344 N 
HETATM    5  C3  UNL     1      18.693   6.144  16.953  1.00  0.00     0.177 C 
ATOM      6  H1  UNL     1      19.399   6.095  18.746  1.00  0.00     0.163 HD
HETATM    7  N10 UNL     1      18.748   6.178  15.537  1.00  0.00    -0.349 N 
HETATM    8  C15 UNL     1      19.649   6.650  14.541  1.00  0.00     0.235 C 
ATOM      9  H10 UNL     1      17.920   5.752  15.120  1.00  0.00     0.163 HD
HETATM   10  C14 UNL     1      21.091   6.697  14.927  1.00  0.00     0.296 C 
HETATM   11  C13 UNL     1      21.381   5.878  16.136  1.00  0.00     0.202 C 
HETATM   12  O6  UNL     1      21.953   4.832  15.895  1.00  0.00    -0.291 OA
BRANCH   5  13
HETATM   13  C2  UNL     1      17.340   6.132  17.558  1.00  0.00     0.326 C 
HETATM   14  O2  UNL     1      16.749   7.230  17.660  1.00  0.00    -0.256 OA
BRANCH  13  15
HETATM   15  O1  UNL     1      16.730   4.992  17.999  1.00  0.00    -0.320 OA
HETATM   16  C1  UNL     1      16.617   3.795  17.253  1.00  0.00     0.213 C 
ENDBRANCH  13  15
ENDBRANCH   5  13
BRANCH   8  17
HETATM   17  N8  UNL     1      19.238   7.931  13.971  1.00  0.00    -0.120 NA
BRANCH  17  18
HETATM   18  N9  UNL     1      19.435   7.945  12.581  1.00  0.00    -0.346 N 
ATOM     19  H92 UNL     1      19.531   7.104  12.012  1.00  0.00     0.172 HD
ATOM     20  H91 UNL     1      19.467   8.902  12.229  1.00  0.00     0.172 HD
ENDBRANCH  17  18
ENDBRANCH   8  17
BRANCH  10  21
HETATM   21  N7  UNL     1      21.594   8.030  15.199  1.00  0.00    -0.065 N 
ATOM     22  H73 UNL     1      22.077   8.104  16.094  1.00  0.00     0.275 HD
ATOM     23  H72 UNL     1      22.382   8.292  14.606  1.00  0.00     0.275 HD
ATOM     24  H71 UNL     1      20.799   8.664  15.116  1.00  0.00     0.275 HD
ENDBRANCH  10  21
ENDBRANCH   1   3
BRANCH   1  25
HETATM   25  C5  UNL     1      21.471   7.828  19.241  1.00  0.00     0.129 A 
HETATM   26  N3  UNL     1      21.596   7.073  20.346  1.00  0.00    -0.176 N 
HETATM   27  C6  UNL     1      21.435   7.578  21.586  1.00  0.00     0.679 A 
ATOM     28  H3  UNL     1      21.820   6.084  20.243  1.00  0.00     0.186 HD
HETATM   29  N5  UNL     1      21.137   8.876  21.771  1.00  0.00    -0.170 N 
HETATM   30  C7  UNL     1      20.993   9.703  20.704  1.00  0.00     0.165 A 
ATOM     31  H5  UNL     1      21.019   9.240  22.716  1.00  0.00     0.186 HD
HETATM   32  C8  UNL     1      21.161   9.168  19.452  1.00  0.00     0.043 A 
BRANCH  27  33
HETATM   33  N4  UNL     1      21.558   6.848  22.643  1.00  0.00    -0.234 N 
ATOM     34  H42 UNL     1      22.015   5.943  22.532  1.00  0.00     0.174 HD
ATOM     35  H41 UNL     1      21.218   7.154  23.555  1.00  0.00     0.174 HD
ENDBRANCH  27  33
BRANCH  30  36
HETATM   36  O3  UNL     1      20.688  11.043  20.831  1.00  0.00    -0.345 OA
ATOM     37  H3  UNL     1      19.828  11.397  20.633  1.00  0.00     0.219 HD
ENDBRANCH  30  36
BRANCH  32  38
HETATM   38  C9  UNL     1      21.020  10.003  18.235  1.00  0.00     0.110 C 
BRANCH  38  39
HETATM   39  C10 UNL     1      19.610  10.160  17.820  1.00  0.00     0.081 C 
HETATM   40  N6  UNL     1      19.107   9.416  16.921  1.00  0.00    -0.270 N 
ATOM     41  H6  UNL     1      19.683   8.700  16.479  1.00  0.00     0.194 HD
BRANCH  40  42
HETATM   42  O4  UNL     1      17.800   9.565  16.538  1.00  0.00    -0.290 OA
ATOM     43  H4  UNL     1      17.368   8.899  16.017  1.00  0.00     0.244 HD
ENDBRANCH  40  42
BRANCH  39  44
HETATM   44  C11 UNL     1      18.815  11.176  18.455  1.00  0.00     0.170 C 
HETATM   45  C12 UNL     1      18.976  12.633  18.117  1.00  0.00     0.098 C 
HETATM   46  O5  UNL     1      17.964  10.836  19.314  1.00  0.00    -0.291 OA
ENDBRANCH  39  44
ENDBRANCH  38  39
ENDBRANCH  32  38
ENDBRANCH   1  25
TORSDOF 13
ENDMDL
MODEL 5
REMARK VINA RESULT: -6.491812249      6.467     11.138
REMARK  13 active torsions:
REMARK  status: ('A' for Active; 'I' for Inactive)
REMARK    1  A    between atoms: O1_2  and  C2_3 
REMARK    2  A    between atoms: C2_3  and  C3_5 
REMARK    3  A    between atoms: C4_8  and  N2_9 
REMARK    4  A    between atoms: N2_9  and  C5_11 
REMARK    5  A    between atoms: C6_14  and  N4_15 
REMARK    6  A    between atoms: C7_20  and  O3_21 
REMARK    7  A    between atoms: C8_23  and  C9_24 
REMARK    8  A    between atoms: C9_24  and  C10_25 
REMARK    9  A    between atoms: C10_25  and  C11_30 
REMARK   10  A    between atoms: N6_26  and  O4_28 
REMARK   11  A    between atoms: C14_35  and  N7_36 
REMARK   12  A    between atoms: C15_40  and  N8_41 
REMARK   13  A    between atoms: N8_41  and  N9_42 
ROOT
HETATM    1  N2  UNL     1      17.718   6.220  16.334  1.00  0.00    -0.348 N 
ATOM      2  H2  UNL     1      18.099   5.714  15.535  1.00  0.00     0.163 HD
ENDROOT
BRANCH   1   3
HETATM    3  C4  UNL     1      16.591   5.637  16.988  1.00  0.00     0.258 C 
HETATM    4  N1  UNL     1      15.440   5.796  16.150  1.00  0.00    -0.344 N 
HETATM    5  C3  UNL     1      14.714   4.959  15.521  1.00  0.00     0.177 C 
ATOM      6  H1  UNL     1      15.144   6.766  16.034  1.00  0.00     0.163 HD
HETATM    7  N10 UNL     1      14.864   3.550  15.484  1.00  0.00    -0.349 N 
HETATM    8  C15 UNL     1      15.928   2.611  15.614  1.00  0.00     0.235 C 
ATOM      9  H10 UNL     1      13.972   3.083  15.321  1.00  0.00     0.163 HD
HETATM   10  C14 UNL     1      17.089   3.044  16.447  1.00  0.00     0.296 C 
HETATM   11  C13 UNL     1      16.762   4.211  17.313  1.00  0.00     0.202 C 
HETATM   12  O6  UNL     1      16.614   3.925  18.486  1.00  0.00    -0.291 OA
BRANCH   5  13
HETATM   13  C2  UNL     1      13.585   5.520  14.742  1.00  0.00     0.326 C 
HETATM   14  O2  UNL     1      13.432   6.762  14.770  1.00  0.00    -0.256 OA
BRANCH  13  15
HETATM   15  O1  UNL     1      12.726   4.749  14.012  1.00  0.00    -0.320 OA
HETATM   16  C1  UNL     1      11.377   4.495  14.358  1.00  0.00     0.213 C 
ENDBRANCH  13  15
ENDBRANCH   5  13
BRANCH   8  17
HETATM   17  N8  UNL     1      16.392   2.107  14.324  1.00  0.00    -0.120 NA
BRANCH  17  18
HETATM   18  N9  UNL     1      16.021   2.976  13.285  1.00  0.00    -0.346 N 
ATOM     19  H92 UNL     1      16.012   3.992  13.371  1.00  0.00     0.172 HD
ATOM     20  H91 UNL     1      15.767   2.452  12.448  1.00  0.00     0.172 HD
ENDBRANCH  17  18
ENDBRANCH   8  17
BRANCH  10  21
HETATM   21  N7  UNL     1      18.267   3.409  15.686  1.00  0.00    -0.065 N 
ATOM     22  H73 UNL     1      18.140   3.318  14.678  1.00  0.00     0.275 HD
ATOM     23  H72 UNL     1      18.461   4.411  15.700  1.00  0.00     0.275 HD
ATOM     24  H71 UNL     1      19.036   2.845  16.048  1.00  0.00     0.275 HD
ENDBRANCH  10  21
ENDBRANCH   1   3
BRANCH   1  25
HETATM   25  C5  UNL     1      18.301   7.324  16.654  1.00  0.00     0.129 A 
HETATM   26  N3  UNL     1      17.717   8.248  17.436  1.00  0.00    -0.176 N 
HETATM   27  C6  UNL     1      18.333   9.401  17.771  1.00  0.00     0.679 A 
ATOM     28  H3  UNL     1      16.777   8.073  17.787  1.00  0.00     0.186 HD
HETATM   29  N5  UNL     1      19.573   9.676  17.330  1.00  0.00    -0.170 N 
HETATM   30  C7  UNL     1      20.228   8.792  16.535  1.00  0.00     0.165 A 
ATOM     31  H5  UNL     1      20.022  10.553  17.593  1.00  0.00     0.186 HD
HETATM   32  C8  UNL     1      19.583   7.626  16.207  1.00  0.00     0.043 A 
BRANCH  27  33
HETATM   33  N4  UNL     1      17.768  10.284  18.523  1.00  0.00    -0.234 N 
ATOM     34  H42 UNL     1      18.166  10.428  19.451  1.00  0.00     0.174 HD
ATOM     35  H41 UNL     1      16.958  10.821  18.211  1.00  0.00     0.174 HD
ENDBRANCH  27  33
BRANCH  30  36
HETATM   36  O3  UNL     1      21.500   9.019  16.051  1.00  0.00    -0.345 OA
ATOM     37  H3  UNL     1      21.837   8.600  15.268  1.00  0.00     0.219 HD
ENDBRANCH  30  36
BRANCH  32  38
HETATM   38  C9  UNL     1      20.229   6.609  15.342  1.00  0.00     0.110 C 
BRANCH  38  39
HETATM   39  C10 UNL     1      19.820   6.731  13.927  1.00  0.00     0.081 C 
HETATM   40  N6  UNL     1      19.655   7.871  13.390  1.00  0.00    -0.270 N 
ATOM     41  H6  UNL     1      19.808   8.715  13.942  1.00  0.00     0.194 HD
BRANCH  40  42
HETATM   42  O4  UNL     1      19.276   7.979  12.078  1.00  0.00    -0.290 OA
ATOM     43  H4  UNL     1      18.627   8.619  11.812  1.00  0.00     0.244 HD
ENDBRANCH  40  42
BRANCH  39  44
HETATM   44  C11 UNL     1      19.610   5.529  13.166  1.00  0.00     0.170 C 
HETATM   45  C12 UNL     1      20.752   4.787  12.528  1.00  0.00     0.098 C 
HETATM   46  O5  UNL     1      18.441   5.091  13.030  1.00  0.00    -0.291 OA
ENDBRANCH  39  44
ENDBRANCH  38  39
ENDBRANCH  32  38
ENDBRANCH   1  25
TORSDOF 13
ENDMDL
