MODEL 1
REMARK VINA RESULT: -6.378391848      0.000      0.000
REMARK  7 active torsions:
REMARK  status: ('A' for Active; 'I' for Inactive)
REMARK    1  A    between atoms: C2_2  and  N1_3 
REMARK    2  A    between atoms: N3_11  and  C7_12 
REMARK    3  A    between atoms: C7_12  and  C8_13 
REMARK    4  A    between atoms: C8_13  and  C9_14 
REMARK    5  A    between atoms: C9_14  and  C10_15 
REMARK    6  A    between atoms: C11_16  and  C12_17 
REMARK    7  A    between atoms: C12_17  and  N4_18 
ROOT
HETATM    1  C8  UNL     1      -4.230   5.364  11.964  1.00  0.00     0.032 C 
ENDROOT
BRANCH   1   2
HETATM    2  C7  UNL     1      -3.140   4.364  12.056  1.00  0.00     0.127 C 
BRANCH   2   3
HETATM    3  N3  UNL     1      -3.358   3.078  11.500  1.00  0.00    -0.353 N 
HETATM    4  C3  UNL     1      -2.280   2.144  11.350  1.00  0.00     0.177 C 
HETATM    5  N1  UNL     1      -1.164   2.355  10.863  1.00  0.00    -0.342 N 
HETATM    6  N2  UNL     1      -2.631   0.816  11.868  1.00  0.00    -0.362 N 
ATOM      7  H1  UNL     1      -0.610   1.499  10.901  1.00  0.00     0.167 HD
HETATM    8  C4  UNL     1      -3.919   0.767  12.533  1.00  0.00     0.124 C 
ATOM      9  H2  UNL     1      -2.025   0.002  11.770  1.00  0.00     0.162 HD
HETATM   10  C5  UNL     1      -4.957   1.201  11.499  1.00  0.00     0.039 C 
HETATM   11  C6  UNL     1      -4.674   2.610  11.081  1.00  0.00     0.127 C 
BRANCH   5  12
HETATM   12  C2  UNL     1      -0.414   3.362  10.283  1.00  0.00     0.059 C 
HETATM   13  C1  UNL     1       0.509   4.005  11.309  1.00  0.00     0.055 C 
ENDBRANCH   5  12
ENDBRANCH   2   3
ENDBRANCH   1   2
BRANCH   1  14
HETATM   14  C9  UNL     1      -4.702   6.001  13.233  1.00  0.00     0.095 C 
BRANCH  14  15
HETATM   15  C10 UNL     1      -5.345   4.892  14.006  1.00  0.00    -0.105 C 
HETATM   16  C11 UNL     1      -5.848   3.992  14.626  1.00  0.00    -0.076 C 
BRANCH  16  17
HETATM   17  C12 UNL     1      -6.442   2.884  15.391  1.00  0.00     0.371 C 
BRANCH  17  18
HETATM   18  N4  UNL     1      -5.845   2.942  16.716  1.00  0.00     0.158 N 
HETATM   19  C13 UNL     1      -4.687   2.107  16.836  1.00  0.00     0.507 C 
HETATM   20  N5  UNL     1      -5.041   0.767  16.440  1.00  0.00    -0.048 N 
HETATM   21  C14 UNL     1      -6.126   0.213  17.198  1.00  0.00     0.239 C 
ATOM     22  H52 UNL     1      -5.241   0.726  15.441  1.00  0.00     0.279 HD
ATOM     23  H51 UNL     1      -4.227   0.153  16.476  1.00  0.00     0.279 HD
HETATM   24  C15 UNL     1      -7.235   1.157  17.489  1.00  0.00     0.097 C 
HETATM   25  C16 UNL     1      -6.785   2.576  17.740  1.00  0.00     0.409 C 
HETATM   26  F1  UNL     1      -6.141   2.641  18.961  1.00  0.00    -0.216 F 
ENDBRANCH  17  18
ENDBRANCH  16  17
ENDBRANCH  14  15
ENDBRANCH   1  14
TORSDOF 7
ENDMDL
MODEL 2
REMARK VINA RESULT: -6.288755625      3.524      6.591
REMARK  7 active torsions:
REMARK  status: ('A' for Active; 'I' for Inactive)
REMARK    1  A    between atoms: C2_2  and  N1_3 
REMARK    2  A    between atoms: N3_11  and  C7_12 
REMARK    3  A    between atoms: C7_12  and  C8_13 
REMARK    4  A    between atoms: C8_13  and  C9_14 
REMARK    5  A    between atoms: C9_14  and  C10_15 
REMARK    6  A    between atoms: C11_16  and  C12_17 
REMARK    7  A    between atoms: C12_17  and  N4_18 
ROOT
HETATM    1  C8  UNL     1      -3.231   4.774  14.865  1.00  0.00     0.032 C 
ENDROOT
BRANCH   1   2
HETATM    2  C7  UNL     1      -3.919   3.801  13.983  1.00  0.00     0.127 C 
BRANCH   2   3
HETATM    3  N3  UNL     1      -4.871   2.926  14.562  1.00  0.00    -0.353 N 
HETATM    4  C3  UNL     1      -4.628   1.514  14.637  1.00  0.00     0.177 C 
HETATM    5  N1  UNL     1      -4.236   0.768  13.732  1.00  0.00    -0.342 N 
HETATM    6  N2  UNL     1      -4.895   0.984  15.980  1.00  0.00    -0.362 N 
ATOM      7  H1  UNL     1      -4.149  -0.183  14.091  1.00  0.00     0.167 HD
HETATM    8  C4  UNL     1      -5.210   2.004  16.962  1.00  0.00     0.124 C 
ATOM      9  H2  UNL     1      -4.862  -0.011  16.203  1.00  0.00     0.162 HD
HETATM   10  C5  UNL     1      -6.450   2.733  16.446  1.00  0.00     0.039 C 
HETATM   11  C6  UNL     1      -6.125   3.391  15.141  1.00  0.00     0.127 C 
BRANCH   5  12
HETATM   12  C2  UNL     1      -3.875   0.791  12.398  1.00  0.00     0.059 C 
HETATM   13  C1  UNL     1      -4.191  -0.540  11.731  1.00  0.00     0.055 C 
ENDBRANCH   5  12
ENDBRANCH   2   3
ENDBRANCH   1   2
BRANCH   1  14
HETATM   14  C9  UNL     1      -3.816   6.147  14.981  1.00  0.00     0.095 C 
BRANCH  14  15
HETATM   15  C10 UNL     1      -4.117   6.559  13.575  1.00  0.00    -0.105 C 
HETATM   16  C11 UNL     1      -4.373   6.895  12.448  1.00  0.00    -0.076 C 
BRANCH  16  17
HETATM   17  C12 UNL     1      -4.701   7.324  11.079  1.00  0.00     0.371 C 
BRANCH  17  18
HETATM   18  N4  UNL     1      -6.141   7.174  10.942  1.00  0.00     0.158 N 
HETATM   19  C13 UNL     1      -6.559   7.085   9.575  1.00  0.00     0.507 C 
HETATM   20  N5  UNL     1      -6.046   8.227   8.860  1.00  0.00    -0.048 N 
HETATM   21  C14 UNL     1      -6.455   9.483   9.418  1.00  0.00     0.239 C 
ATOM     22  H52 UNL     1      -5.030   8.179   8.786  1.00  0.00     0.279 HD
ATOM     23  H51 UNL     1      -6.293   8.174   7.872  1.00  0.00     0.279 HD
HETATM   24  C15 UNL     1      -6.449   9.543  10.902  1.00  0.00     0.097 C 
HETATM   25  C16 UNL     1      -6.852   8.253  11.573  1.00  0.00     0.409 C 
HETATM   26  F1  UNL     1      -8.205   8.046  11.386  1.00  0.00    -0.216 F 
ENDBRANCH  17  18
ENDBRANCH  16  17
ENDBRANCH  14  15
ENDBRANCH   1  14
TORSDOF 7
ENDMDL
MODEL 3
REMARK VINA RESULT: -6.266026829      3.004      7.318
REMARK  7 active torsions:
REMARK  status: ('A' for Active; 'I' for Inactive)
REMARK    1  A    between atoms: C2_2  and  N1_3 
REMARK    2  A    between atoms: N3_11  and  C7_12 
REMARK    3  A    between atoms: C7_12  and  C8_13 
REMARK    4  A    between atoms: C8_13  and  C9_14 
REMARK    5  A    between atoms: C9_14  and  C10_15 
REMARK    6  A    between atoms: C11_16  and  C12_17 
REMARK    7  A    between atoms: C12_17  and  N4_18 
ROOT
HETATM    1  C8  UNL     1      -4.413   0.078  12.148  1.00  0.00     0.032 C 
ENDROOT
BRANCH   1   2
HETATM    2  C7  UNL     1      -4.300   0.492  13.567  1.00  0.00     0.127 C 
BRANCH   2   3
HETATM    3  N3  UNL     1      -4.538   1.851  13.892  1.00  0.00    -0.353 N 
HETATM    4  C3  UNL     1      -4.347   2.337  15.228  1.00  0.00     0.177 C 
HETATM    5  N1  UNL     1      -4.760   1.833  16.278  1.00  0.00    -0.342 N 
HETATM    6  N2  UNL     1      -3.552   3.572  15.252  1.00  0.00    -0.362 N 
ATOM      7  H1  UNL     1      -4.457   2.402  17.069  1.00  0.00     0.167 HD
HETATM    8  C4  UNL     1      -3.025   3.955  13.957  1.00  0.00     0.124 C 
ATOM      9  H2  UNL     1      -3.386   4.110  16.102  1.00  0.00     0.162 HD
HETATM   10  C5  UNL     1      -4.230   4.144  13.036  1.00  0.00     0.039 C 
HETATM   11  C6  UNL     1      -4.955   2.840  12.905  1.00  0.00     0.127 C 
BRANCH   5  12
HETATM   12  C2  UNL     1      -5.495   0.757  16.741  1.00  0.00     0.059 C 
HETATM   13  C1  UNL     1      -6.863   1.210  17.230  1.00  0.00     0.055 C 
ENDBRANCH   5  12
ENDBRANCH   2   3
ENDBRANCH   1   2
BRANCH   1  14
HETATM   14  C9  UNL     1      -3.178  -0.416  11.463  1.00  0.00     0.095 C 
BRANCH  14  15
HETATM   15  C10 UNL     1      -2.315   0.794  11.302  1.00  0.00    -0.105 C 
HETATM   16  C11 UNL     1      -1.628   1.776  11.184  1.00  0.00    -0.076 C 
BRANCH  16  17
HETATM   17  C12 UNL     1      -0.791   2.980  11.064  1.00  0.00     0.371 C 
BRANCH  17  18
HETATM   18  N4  UNL     1      -1.104   3.563   9.769  1.00  0.00     0.158 N 
HETATM   19  C13 UNL     1       0.043   4.129   9.127  1.00  0.00     0.507 C 
HETATM   20  N5  UNL     1       0.659   5.071  10.029  1.00  0.00    -0.048 N 
HETATM   21  C14 UNL     1      -0.226   6.113  10.461  1.00  0.00     0.239 C 
ATOM     22  H52 UNL     1       1.068   4.589  10.830  1.00  0.00     0.279 HD
ATOM     23  H51 UNL     1       1.505   5.465   9.617  1.00  0.00     0.279 HD
HETATM   24  C15 UNL     1      -1.611   5.674  10.769  1.00  0.00     0.097 C 
HETATM   25  C16 UNL     1      -2.122   4.573   9.871  1.00  0.00     0.409 C 
HETATM   26  F1  UNL     1      -2.350   5.086   8.609  1.00  0.00    -0.216 F 
ENDBRANCH  17  18
ENDBRANCH  16  17
ENDBRANCH  14  15
ENDBRANCH   1  14
TORSDOF 7
ENDMDL
MODEL 4
REMARK VINA RESULT: -6.138258757      3.583      6.668
REMARK  7 active torsions:
REMARK  status: ('A' for Active; 'I' for Inactive)
REMARK    1  A    between atoms: C2_2  and  N1_3 
REMARK    2  A    between atoms: N3_11  and  C7_12 
REMARK    3  A    between atoms: C7_12  and  C8_13 
REMARK    4  A    between atoms: C8_13  and  C9_14 
REMARK    5  A    between atoms: C9_14  and  C10_15 
REMARK    6  A    between atoms: C11_16  and  C12_17 
REMARK    7  A    between atoms: C12_17  and  N4_18 
ROOT
HETATM    1  C8  UNL     1      -5.414   4.235  15.243  1.00  0.00     0.032 C 
ENDROOT
BRANCH   1   2
HETATM    2  C7  UNL     1      -5.792   3.251  14.201  1.00  0.00     0.127 C 
BRANCH   2   3
HETATM    3  N3  UNL     1      -4.758   2.541  13.541  1.00  0.00    -0.353 N 
HETATM    4  C3  UNL     1      -4.470   1.175  13.871  1.00  0.00     0.177 C 
HETATM    5  N1  UNL     1      -4.320   0.690  14.998  1.00  0.00    -0.342 N 
HETATM    6  N2  UNL     1      -4.368   0.332  12.674  1.00  0.00    -0.362 N 
ATOM      7  H1  UNL     1      -4.134  -0.310  14.914  1.00  0.00     0.167 HD
HETATM    8  C4  UNL     1      -4.708   1.018  11.442  1.00  0.00     0.124 C 
ATOM      9  H2  UNL     1      -4.083  -0.647  12.705  1.00  0.00     0.162 HD
HETATM   10  C5  UNL     1      -3.741   2.195  11.321  1.00  0.00     0.039 C 
HETATM   11  C6  UNL     1      -3.952   3.125  12.475  1.00  0.00     0.127 C 
BRANCH   5  12
HETATM   12  C2  UNL     1      -4.320   1.047  16.334  1.00  0.00     0.059 C 
HETATM   13  C1  UNL     1      -5.680   0.780  16.963  1.00  0.00     0.055 C 
ENDBRANCH   5  12
ENDBRANCH   2   3
ENDBRANCH   1   2
BRANCH   1  14
HETATM   14  C9  UNL     1      -6.044   5.592  15.184  1.00  0.00     0.095 C 
BRANCH  14  15
HETATM   15  C10 UNL     1      -5.673   6.132  13.839  1.00  0.00    -0.105 C 
HETATM   16  C11 UNL     1      -5.388   6.572  12.756  1.00  0.00    -0.076 C 
BRANCH  16  17
HETATM   17  C12 UNL     1      -5.058   7.128  11.434  1.00  0.00     0.371 C 
BRANCH  17  18
HETATM   18  N4  UNL     1      -6.301   7.143  10.679  1.00  0.00     0.158 N 
HETATM   19  C13 UNL     1      -6.088   7.264   9.268  1.00  0.00     0.507 C 
HETATM   20  N5  UNL     1      -5.271   8.426   9.022  1.00  0.00    -0.048 N 
HETATM   21  C14 UNL     1      -5.830   9.641   9.540  1.00  0.00     0.239 C 
ATOM     22  H52 UNL     1      -4.325   8.283   9.378  1.00  0.00     0.279 HD
ATOM     23  H51 UNL     1      -5.066   8.518   8.027  1.00  0.00     0.279 HD
HETATM   24  C15 UNL     1      -6.466   9.520  10.877  1.00  0.00     0.097 C 
HETATM   25  C16 UNL     1      -7.171   8.205  11.107  1.00  0.00     0.409 C 
HETATM   26  F1  UNL     1      -8.316   8.162  10.336  1.00  0.00    -0.216 F 
ENDBRANCH  17  18
ENDBRANCH  16  17
ENDBRANCH  14  15
ENDBRANCH   1  14
TORSDOF 7
ENDMDL
MODEL 5
REMARK VINA RESULT: -6.117529075      2.950      7.405
REMARK  7 active torsions:
REMARK  status: ('A' for Active; 'I' for Inactive)
REMARK    1  A    between atoms: C2_2  and  N1_3 
REMARK    2  A    between atoms: N3_11  and  C7_12 
REMARK    3  A    between atoms: C7_12  and  C8_13 
REMARK    4  A    between atoms: C8_13  and  C9_14 
REMARK    5  A    between atoms: C9_14  and  C10_15 
REMARK    6  A    between atoms: C11_16  and  C12_17 
REMARK    7  A    between atoms: C12_17  and  N4_18 
ROOT
HETATM    1  C8  UNL     1      -4.246   0.135  12.175  1.00  0.00     0.032 C 
ENDROOT
BRANCH   1   2
HETATM    2  C7  UNL     1      -4.327   0.495  13.610  1.00  0.00     0.127 C 
BRANCH   2   3
HETATM    3  N3  UNL     1      -4.568   1.849  13.951  1.00  0.00    -0.353 N 
HETATM    4  C3  UNL     1      -4.382   2.319  15.294  1.00  0.00     0.177 C 
HETATM    5  N1  UNL     1      -4.798   1.802  16.337  1.00  0.00    -0.342 N 
HETATM    6  N2  UNL     1      -3.588   3.554  15.336  1.00  0.00    -0.362 N 
ATOM      7  H1  UNL     1      -4.498   2.361  17.136  1.00  0.00     0.167 HD
HETATM    8  C4  UNL     1      -3.057   3.954  14.048  1.00  0.00     0.124 C 
ATOM      9  H2  UNL     1      -3.425   4.082  16.193  1.00  0.00     0.162 HD
HETATM   10  C5  UNL     1      -4.259   4.153  13.125  1.00  0.00     0.039 C 
HETATM   11  C6  UNL     1      -4.982   2.850  12.975  1.00  0.00     0.127 C 
BRANCH   5  12
HETATM   12  C2  UNL     1      -5.534   0.720  16.783  1.00  0.00     0.059 C 
HETATM   13  C1  UNL     1      -6.905   1.165  17.271  1.00  0.00     0.055 C 
ENDBRANCH   5  12
ENDBRANCH   2   3
ENDBRANCH   1   2
BRANCH   1  14
HETATM   14  C9  UNL     1      -2.894  -0.156  11.603  1.00  0.00     0.095 C 
BRANCH  14  15
HETATM   15  C10 UNL     1      -2.360   1.175  11.177  1.00  0.00    -0.105 C 
HETATM   16  C11 UNL     1      -1.943   2.248  10.825  1.00  0.00    -0.076 C 
BRANCH  16  17
HETATM   17  C12 UNL     1      -1.456   3.567  10.391  1.00  0.00     0.371 C 
BRANCH  17  18
HETATM   18  N4  UNL     1      -0.357   3.906  11.281  1.00  0.00     0.158 N 
HETATM   19  C13 UNL     1      -0.456   5.238  11.796  1.00  0.00     0.507 C 
HETATM   20  N5  UNL     1      -0.581   6.153  10.689  1.00  0.00    -0.048 N 
HETATM   21  C14 UNL     1       0.501   6.068   9.750  1.00  0.00     0.239 C 
ATOM     22  H52 UNL     1      -1.477   6.030  10.219  1.00  0.00     0.279 HD
ATOM     23  H51 UNL     1      -0.693   7.111  11.023  1.00  0.00     0.279 HD
HETATM   24  C15 UNL     1       0.966   4.690   9.452  1.00  0.00     0.097 C 
HETATM   25  C16 UNL     1       0.918   3.754  10.635  1.00  0.00     0.409 C 
HETATM   26  F1  UNL     1       1.904   4.108  11.536  1.00  0.00    -0.216 F 
ENDBRANCH  17  18
ENDBRANCH  16  17
ENDBRANCH  14  15
ENDBRANCH   1  14
TORSDOF 7
ENDMDL
