MODEL 1
REMARK VINA RESULT: -6.516577213      0.000      0.000
REMARK  4 active torsions:
REMARK  status: ('A' for Active; 'I' for Inactive)
REMARK    1  A    between atoms: C2_2  and  N1_3 
REMARK    2  A    between atoms: C5_6  and  N2_7 
REMARK    3  A    between atoms: N2_7  and  C6_9 
REMARK    4  A    between atoms: C10_17  and  C11_18 
ROOT
HETATM    1  C6  UNL     1      -4.259   4.261  12.245  1.00  0.00     0.172 C 
HETATM    2  C7  UNL     1      -4.053   3.864  10.787  1.00  0.00     0.285 C 
HETATM    3  O1  UNL     1      -3.387   2.892  10.418  1.00  0.00    -0.264 OA
HETATM    4  N3  UNL     1      -4.689   4.712   9.838  1.00  0.00    -0.353 N 
ATOM      5  H3  UNL     1      -5.001   4.340   8.941  1.00  0.00     0.162 HD
HETATM    6  C8  UNL     1      -4.885   6.094  10.157  1.00  0.00     0.143 C 
HETATM    7  C9  UNL     1      -4.957   6.372  11.636  1.00  0.00     0.149 C 
HETATM    8  N4  UNL     1      -3.950   5.596  12.372  1.00  0.00    -0.341 N 
HETATM    9  C10 UNL     1      -2.869   6.280  12.789  1.00  0.00     0.074 C 
ENDROOT
BRANCH   1  10
HETATM   10  N2  UNL     1      -3.964   3.281  13.188  1.00  0.00    -0.367 N 
ATOM     11  H2  UNL     1      -3.135   2.702  13.046  1.00  0.00     0.161 HD
BRANCH  10  12
HETATM   12  C5  UNL     1      -4.752   3.050  14.324  1.00  0.00     0.086 C 
HETATM   13  C4  UNL     1      -3.909   2.829  15.586  1.00  0.00     0.055 C 
HETATM   14  C3  UNL     1      -4.782   1.995  16.503  1.00  0.00     0.274 C 
HETATM   15  N1  UNL     1      -5.983   2.730  16.874  1.00  0.00     0.088 N 
HETATM   16  C16 UNL     1      -6.709   3.238  15.770  1.00  0.00     0.274 C 
HETATM   17  C15 UNL     1      -5.874   3.924  14.697  1.00  0.00     0.055 C 
BRANCH  15  18
HETATM   18  C2  UNL     1      -6.830   1.740  17.543  1.00  0.00     0.268 C 
HETATM   19  C1  UNL     1      -6.149   0.384  17.614  1.00  0.00     0.037 C 
ENDBRANCH  15  18
ENDBRANCH  10  12
ENDBRANCH   1  10
BRANCH   9  20
HETATM   20  C11 UNL     1      -2.435   6.471  14.196  1.00  0.00    -0.019 C 
HETATM   21  C12 UNL     1      -1.585   5.402  14.764  1.00  0.00     0.020 C 
HETATM   22  C13 UNL     1      -3.644   6.781  15.114  1.00  0.00     0.020 C 
HETATM   23  C14 UNL     1      -1.590   7.771  14.309  1.00  0.00     0.020 C 
ENDBRANCH   9  20
TORSDOF 4
ENDMDL
MODEL 2
REMARK VINA RESULT: -6.458650808      2.121      3.887
REMARK  4 active torsions:
REMARK  status: ('A' for Active; 'I' for Inactive)
REMARK    1  A    between atoms: C2_2  and  N1_3 
REMARK    2  A    between atoms: C5_6  and  N2_7 
REMARK    3  A    between atoms: N2_7  and  C6_9 
REMARK    4  A    between atoms: C10_17  and  C11_18 
ROOT
HETATM    1  C6  UNL     1      -3.256   4.337  12.580  1.00  0.00     0.172 C 
HETATM    2  C7  UNL     1      -2.820   5.585  11.820  1.00  0.00     0.285 C 
HETATM    3  O1  UNL     1      -3.600   6.420  11.349  1.00  0.00    -0.264 OA
HETATM    4  N3  UNL     1      -1.414   5.738  11.671  1.00  0.00    -0.353 N 
ATOM      5  H3  UNL     1      -1.000   6.668  11.605  1.00  0.00     0.162 HD
HETATM    6  C8  UNL     1      -0.587   4.571  11.615  1.00  0.00     0.143 C 
HETATM    7  C9  UNL     1      -1.181   3.371  12.306  1.00  0.00     0.149 C 
HETATM    8  N4  UNL     1      -2.618   3.253  12.023  1.00  0.00    -0.341 N 
HETATM    9  C10 UNL     1      -2.967   2.306  11.132  1.00  0.00     0.074 C 
ENDROOT
BRANCH   1  10
HETATM   10  N2  UNL     1      -4.568   4.338  13.047  1.00  0.00    -0.367 N 
ATOM     11  H2  UNL     1      -5.273   4.847  12.514  1.00  0.00     0.161 HD
BRANCH  10  12
HETATM   12  C5  UNL     1      -4.964   3.673  14.216  1.00  0.00     0.086 C 
HETATM   13  C4  UNL     1      -3.813   3.516  15.218  1.00  0.00     0.055 C 
HETATM   14  C3  UNL     1      -4.176   2.299  16.048  1.00  0.00     0.274 C 
HETATM   15  N1  UNL     1      -5.405   2.535  16.790  1.00  0.00     0.088 N 
HETATM   16  C16 UNL     1      -6.488   2.968  15.987  1.00  0.00     0.274 C 
HETATM   17  C15 UNL     1      -6.158   4.062  14.979  1.00  0.00     0.055 C 
BRANCH  15  18
HETATM   18  C2  UNL     1      -5.760   1.225  17.341  1.00  0.00     0.268 C 
HETATM   19  C1  UNL     1      -7.268   1.044  17.416  1.00  0.00     0.037 C 
ENDBRANCH  15  18
ENDBRANCH  10  12
ENDBRANCH   1  10
BRANCH   9  20
HETATM   20  C11 UNL     1      -3.843   1.135  11.389  1.00  0.00    -0.019 C 
HETATM   21  C12 UNL     1      -3.875   0.641  12.782  1.00  0.00     0.020 C 
HETATM   22  C13 UNL     1      -3.549  -0.011  10.388  1.00  0.00     0.020 C 
HETATM   23  C14 UNL     1      -5.315   1.502  11.051  1.00  0.00     0.020 C 
ENDBRANCH   9  20
TORSDOF 4
ENDMDL
MODEL 3
REMARK VINA RESULT: -6.272630263      0.707      1.214
REMARK  4 active torsions:
REMARK  status: ('A' for Active; 'I' for Inactive)
REMARK    1  A    between atoms: C2_2  and  N1_3 
REMARK    2  A    between atoms: C5_6  and  N2_7 
REMARK    3  A    between atoms: N2_7  and  C6_9 
REMARK    4  A    between atoms: C10_17  and  C11_18 
ROOT
HETATM    1  C6  UNL     1      -3.931   3.961  12.217  1.00  0.00     0.172 C 
HETATM    2  C7  UNL     1      -3.563   3.644  10.771  1.00  0.00     0.285 C 
HETATM    3  O1  UNL     1      -2.762   2.766  10.433  1.00  0.00    -0.264 OA
HETATM    4  N3  UNL     1      -4.211   4.450   9.795  1.00  0.00    -0.353 N 
ATOM      5  H3  UNL     1      -4.404   4.080   8.865  1.00  0.00     0.162 HD
HETATM    6  C8  UNL     1      -4.590   5.789  10.134  1.00  0.00     0.143 C 
HETATM    7  C9  UNL     1      -4.814   6.002  11.609  1.00  0.00     0.149 C 
HETATM    8  N4  UNL     1      -3.789   5.316  12.407  1.00  0.00    -0.341 N 
HETATM    9  C10 UNL     1      -2.830   6.100  12.933  1.00  0.00     0.074 C 
ENDROOT
BRANCH   1  10
HETATM   10  N2  UNL     1      -3.605   2.985  13.153  1.00  0.00    -0.367 N 
ATOM     11  H2  UNL     1      -2.760   2.431  13.005  1.00  0.00     0.161 HD
BRANCH  10  12
HETATM   12  C5  UNL     1      -4.382   2.725  14.291  1.00  0.00     0.086 C 
HETATM   13  C4  UNL     1      -5.759   3.399  14.224  1.00  0.00     0.055 C 
HETATM   14  C3  UNL     1      -6.179   3.583  15.669  1.00  0.00     0.274 C 
HETATM   15  N1  UNL     1      -6.328   2.293  16.326  1.00  0.00     0.088 N 
HETATM   16  C16 UNL     1      -5.194   1.453  16.208  1.00  0.00     0.274 C 
HETATM   17  C15 UNL     1      -4.586   1.367  14.815  1.00  0.00     0.055 C 
BRANCH  15  18
HETATM   18  C2  UNL     1      -6.491   2.618  17.745  1.00  0.00     0.268 C 
HETATM   19  C1  UNL     1      -6.087   1.452  18.632  1.00  0.00     0.037 C 
ENDBRANCH  15  18
ENDBRANCH  10  12
ENDBRANCH   1  10
BRANCH   9  20
HETATM   20  C11 UNL     1      -2.538   6.286  14.377  1.00  0.00    -0.019 C 
HETATM   21  C12 UNL     1      -1.700   5.244  15.009  1.00  0.00     0.020 C 
HETATM   22  C13 UNL     1      -3.840   6.531  15.182  1.00  0.00     0.020 C 
HETATM   23  C14 UNL     1      -1.763   7.617  14.585  1.00  0.00     0.020 C 
ENDBRANCH   9  20
TORSDOF 4
ENDMDL
MODEL 4
REMARK VINA RESULT: -6.083052181      2.820      6.054
REMARK  4 active torsions:
REMARK  status: ('A' for Active; 'I' for Inactive)
REMARK    1  A    between atoms: C2_2  and  N1_3 
REMARK    2  A    between atoms: C5_6  and  N2_7 
REMARK    3  A    between atoms: N2_7  and  C6_9 
REMARK    4  A    between atoms: C10_17  and  C11_18 
ROOT
HETATM    1  C6  UNL     1      -3.917   2.704  13.540  1.00  0.00     0.172 C 
HETATM    2  C7  UNL     1      -4.450   1.288  13.346  1.00  0.00     0.285 C 
HETATM    3  O1  UNL     1      -4.946   0.870  12.294  1.00  0.00    -0.264 OA
HETATM    4  N3  UNL     1      -4.350   0.446  14.487  1.00  0.00    -0.353 N 
ATOM      5  H3  UNL     1      -4.243  -0.562  14.377  1.00  0.00     0.162 HD
HETATM    6  C8  UNL     1      -4.401   1.030  15.794  1.00  0.00     0.143 C 
HETATM    7  C9  UNL     1      -3.956   2.470  15.833  1.00  0.00     0.149 C 
HETATM    8  N4  UNL     1      -4.480   3.220  14.684  1.00  0.00    -0.341 N 
HETATM    9  C10 UNL     1      -5.517   4.039  14.940  1.00  0.00     0.074 C 
ENDROOT
BRANCH   1  10
HETATM   10  N2  UNL     1      -3.673   3.425  12.375  1.00  0.00    -0.367 N 
ATOM     11  H2  UNL     1      -4.471   3.779  11.846  1.00  0.00     0.161 HD
BRANCH  10  12
HETATM   12  C5  UNL     1      -2.383   3.687  11.894  1.00  0.00     0.086 C 
HETATM   13  C4  UNL     1      -1.516   4.432  12.918  1.00  0.00     0.055 C 
HETATM   14  C3  UNL     1      -0.486   5.179  12.094  1.00  0.00     0.274 C 
HETATM   15  N1  UNL     1       0.361   4.245  11.366  1.00  0.00     0.088 N 
HETATM   16  C16 UNL     1      -0.356   3.304  10.588  1.00  0.00     0.274 C 
HETATM   17  C15 UNL     1      -1.541   2.647  11.285  1.00  0.00     0.055 C 
BRANCH  15  18
HETATM   18  C2  UNL     1       1.131   5.085  10.445  1.00  0.00     0.268 C 
HETATM   19  C1  UNL     1       2.235   4.294   9.764  1.00  0.00     0.037 C 
ENDBRANCH  15  18
ENDBRANCH  10  12
ENDBRANCH   1  10
BRANCH   9  20
HETATM   20  C11 UNL     1      -5.540   5.513  14.759  1.00  0.00    -0.019 C 
HETATM   21  C12 UNL     1      -6.136   6.003  13.498  1.00  0.00     0.020 C 
HETATM   22  C13 UNL     1      -4.137   6.126  14.999  1.00  0.00     0.020 C 
HETATM   23  C14 UNL     1      -6.384   6.163  15.891  1.00  0.00     0.020 C 
ENDBRANCH   9  20
TORSDOF 4
ENDMDL
MODEL 5
REMARK VINA RESULT: -5.855211823      2.633      3.794
REMARK  4 active torsions:
REMARK  status: ('A' for Active; 'I' for Inactive)
REMARK    1  A    between atoms: C2_2  and  N1_3 
REMARK    2  A    between atoms: C5_6  and  N2_7 
REMARK    3  A    between atoms: N2_7  and  C6_9 
REMARK    4  A    between atoms: C10_17  and  C11_18 
ROOT
HETATM    1  C6  UNL     1      -4.163   1.630  12.137  1.00  0.00     0.172 C 
HETATM    2  C7  UNL     1      -4.315   0.292  12.853  1.00  0.00     0.285 C 
HETATM    3  O1  UNL     1      -4.470   0.169  14.073  1.00  0.00    -0.264 OA
HETATM    4  N3  UNL     1      -4.258  -0.851  12.009  1.00  0.00    -0.353 N 
ATOM      5  H3  UNL     1      -4.765  -1.701  12.257  1.00  0.00     0.162 HD
HETATM    6  C8  UNL     1      -3.481  -0.795  10.807  1.00  0.00     0.143 C 
HETATM    7  C9  UNL     1      -3.308   0.599  10.261  1.00  0.00     0.149 C 
HETATM    8  N4  UNL     1      -3.045   1.563  11.338  1.00  0.00    -0.341 N 
HETATM    9  C10 UNL     1      -1.770   1.975  11.461  1.00  0.00     0.074 C 
ENDROOT
BRANCH   1  10
HETATM   10  N2  UNL     1      -4.563   2.752  12.857  1.00  0.00    -0.367 N 
ATOM     11  H2  UNL     1      -4.507   3.666  12.406  1.00  0.00     0.161 HD
BRANCH  10  12
HETATM   12  C5  UNL     1      -5.038   2.686  14.175  1.00  0.00     0.086 C 
HETATM   13  C4  UNL     1      -3.933   2.937  15.209  1.00  0.00     0.055 C 
HETATM   14  C3  UNL     1      -4.399   2.226  16.465  1.00  0.00     0.274 C 
HETATM   15  N1  UNL     1      -5.635   2.816  16.957  1.00  0.00     0.088 N 
HETATM   16  C16 UNL     1      -6.661   2.897  15.985  1.00  0.00     0.274 C 
HETATM   17  C15 UNL     1      -6.230   3.422  14.622  1.00  0.00     0.055 C 
BRANCH  15  18
HETATM   18  C2  UNL     1      -6.090   1.898  18.005  1.00  0.00     0.268 C 
HETATM   19  C1  UNL     1      -7.244   1.034  17.523  1.00  0.00     0.037 C 
ENDBRANCH  15  18
ENDBRANCH  10  12
ENDBRANCH   1  10
BRANCH   9  20
HETATM   20  C11 UNL     1      -1.277   3.368  11.323  1.00  0.00    -0.019 C 
HETATM   21  C12 UNL     1       0.057   3.526  10.705  1.00  0.00     0.020 C 
HETATM   22  C13 UNL     1      -1.370   4.128  12.671  1.00  0.00     0.020 C 
HETATM   23  C14 UNL     1      -2.247   4.177  10.417  1.00  0.00     0.020 C 
ENDBRANCH   9  20
TORSDOF 4
ENDMDL
