MODEL 1
REMARK VINA RESULT: -7.315472940      0.000      0.000
REMARK  5 active torsions:
REMARK  status: ('A' for Active; 'I' for Inactive)
REMARK    1  A    between atoms: C7_7  and  N1_8 
REMARK       I    between atoms: N1_8  and  C8_10 
REMARK    2  A    between atoms: C8_10  and  C9_12 
REMARK    3  A    between atoms: C9_12  and  C10_13 
REMARK    4  A    between atoms: C10_13  and  C11_14 
REMARK       I    between atoms: C11_14  and  N2_16 
REMARK    5  A    between atoms: C14_19  and  O3_20 
ROOT
HETATM    1  C9  UNL     1      -1.947   4.922  13.991  1.00  0.00     0.112 C 
ENDROOT
BRANCH   1   2
HETATM    2  C8  UNL     1      -3.062   4.517  14.868  1.00  0.00     0.218 C 
HETATM    3  N1  UNL     1      -3.326   3.164  15.202  1.00  0.00    -0.356 N 
ATOM      4  H1  UNL     1      -2.720   2.438  14.820  1.00  0.00     0.162 HD
HETATM    5  O1  UNL     1      -3.824   5.392  15.353  1.00  0.00    -0.274 OA
BRANCH   3   6
HETATM    6  C7  UNL     1      -4.418   2.777  16.060  1.00  0.00     0.088 C 
HETATM    7  C2  UNL     1      -5.702   3.504  15.702  1.00  0.00     0.004 C 
HETATM    8  C1  UNL     1      -6.304   2.940  14.426  1.00  0.00     0.012 C 
HETATM    9  C3  UNL     1      -6.680   3.226  16.821  1.00  0.00     0.006 C 
HETATM   10  C4  UNL     1      -6.256   2.069  17.675  1.00  0.00     0.001 C 
HETATM   11  C5  UNL     1      -5.732   0.893  16.897  1.00  0.00     0.002 C 
HETATM   12  C6  UNL     1      -4.688   1.296  15.913  1.00  0.00     0.025 C 
ENDBRANCH   3   6
ENDBRANCH   1   2
BRANCH   1  13
HETATM   13  C10 UNL     1      -2.276   4.821  12.538  1.00  0.00     0.112 C 
BRANCH  13  14
HETATM   14  C11 UNL     1      -1.709   3.566  11.993  1.00  0.00     0.220 C 
HETATM   15  O2  UNL     1      -0.447   3.455  11.939  1.00  0.00    -0.273 OA
HETATM   16  N2  UNL     1      -2.550   2.496  11.531  1.00  0.00    -0.352 N 
HETATM   17  C12 UNL     1      -3.969   2.693  11.622  1.00  0.00     0.128 C 
HETATM   18  C16 UNL     1      -1.909   1.322  11.021  1.00  0.00     0.128 C 
HETATM   19  C13 UNL     1      -4.744   1.397  11.614  1.00  0.00     0.051 C 
HETATM   20  C14 UNL     1      -3.828   0.309  12.157  1.00  0.00     0.121 C 
HETATM   21  C15 UNL     1      -2.759   0.083  11.113  1.00  0.00     0.051 C 
BRANCH  20  22
HETATM   22  O3  UNL     1      -4.600  -0.812  12.379  1.00  0.00    -0.395 OA
ATOM     23  H3  UNL     1      -4.329  -1.475  11.755  1.00  0.00     0.210 HD
ENDBRANCH  20  22
ENDBRANCH  13  14
ENDBRANCH   1  13
TORSDOF 5
ENDMDL
MODEL 2
REMARK VINA RESULT: -7.311201485      2.158      4.597
REMARK  5 active torsions:
REMARK  status: ('A' for Active; 'I' for Inactive)
REMARK    1  A    between atoms: C7_7  and  N1_8 
REMARK       I    between atoms: N1_8  and  C8_10 
REMARK    2  A    between atoms: C8_10  and  C9_12 
REMARK    3  A    between atoms: C9_12  and  C10_13 
REMARK    4  A    between atoms: C10_13  and  C11_14 
REMARK       I    between atoms: C11_14  and  N2_16 
REMARK    5  A    between atoms: C14_19  and  O3_20 
ROOT
HETATM    1  C9  UNL     1      -4.009   2.649  16.055  1.00  0.00     0.112 C 
ENDROOT
BRANCH   1   2
HETATM    2  C8  UNL     1      -3.218   3.746  15.464  1.00  0.00     0.218 C 
HETATM    3  N1  UNL     1      -3.810   4.843  14.787  1.00  0.00    -0.356 N 
ATOM      4  H1  UNL     1      -4.826   4.878  14.704  1.00  0.00     0.162 HD
HETATM    5  O1  UNL     1      -1.964   3.728  15.552  1.00  0.00    -0.274 OA
BRANCH   3   6
HETATM    6  C7  UNL     1      -3.029   5.911  14.212  1.00  0.00     0.088 C 
HETATM    7  C2  UNL     1      -3.410   6.172  12.766  1.00  0.00     0.004 C 
HETATM    8  C1  UNL     1      -4.744   6.895  12.681  1.00  0.00     0.012 C 
HETATM    9  C3  UNL     1      -2.358   7.102  12.205  1.00  0.00     0.006 C 
HETATM   10  C4  UNL     1      -1.549   7.762  13.281  1.00  0.00     0.001 C 
HETATM   11  C5  UNL     1      -2.363   8.250  14.447  1.00  0.00     0.002 C 
HETATM   12  C6  UNL     1      -3.271   7.194  14.976  1.00  0.00     0.025 C 
ENDBRANCH   3   6
ENDBRANCH   1   2
BRANCH   1  13
HETATM   13  C10 UNL     1      -5.076   2.138  15.146  1.00  0.00     0.112 C 
BRANCH  13  14
HETATM   14  C11 UNL     1      -4.661   0.830  14.587  1.00  0.00     0.220 C 
HETATM   15  O2  UNL     1      -4.802  -0.200  15.312  1.00  0.00    -0.273 OA
HETATM   16  N2  UNL     1      -4.111   0.715  13.265  1.00  0.00    -0.352 N 
HETATM   17  C12 UNL     1      -3.980   1.925  12.503  1.00  0.00     0.128 C 
HETATM   18  C16 UNL     1      -3.739  -0.592  12.813  1.00  0.00     0.128 C 
HETATM   19  C13 UNL     1      -3.894   1.675  11.015  1.00  0.00     0.051 C 
HETATM   20  C14 UNL     1      -4.603   0.359  10.727  1.00  0.00     0.121 C 
HETATM   21  C15 UNL     1      -3.740  -0.734  11.315  1.00  0.00     0.051 C 
BRANCH  20  22
HETATM   22  O3  UNL     1      -4.740   0.251   9.359  1.00  0.00    -0.395 OA
ATOM     23  H3  UNL     1      -4.837  -0.671   9.152  1.00  0.00     0.210 HD
ENDBRANCH  20  22
ENDBRANCH  13  14
ENDBRANCH   1  13
TORSDOF 5
ENDMDL
MODEL 3
REMARK VINA RESULT: -7.162225816      3.709      5.413
REMARK  5 active torsions:
REMARK  status: ('A' for Active; 'I' for Inactive)
REMARK    1  A    between atoms: C7_7  and  N1_8 
REMARK       I    between atoms: N1_8  and  C8_10 
REMARK    2  A    between atoms: C8_10  and  C9_12 
REMARK    3  A    between atoms: C9_12  and  C10_13 
REMARK    4  A    between atoms: C10_13  and  C11_14 
REMARK       I    between atoms: C11_14  and  N2_16 
REMARK    5  A    between atoms: C14_19  and  O3_20 
ROOT
HETATM    1  C9  UNL     1      -4.827   5.949  15.017  1.00  0.00     0.112 C 
ENDROOT
BRANCH   1   2
HETATM    2  C8  UNL     1      -5.641   6.128  13.798  1.00  0.00     0.218 C 
HETATM    3  N1  UNL     1      -5.130   6.709  12.611  1.00  0.00    -0.356 N 
ATOM      4  H1  UNL     1      -4.158   7.019  12.595  1.00  0.00     0.162 HD
HETATM    5  O1  UNL     1      -6.842   5.755  13.791  1.00  0.00    -0.274 OA
BRANCH   3   6
HETATM    6  C7  UNL     1      -5.933   6.880  11.425  1.00  0.00     0.088 C 
HETATM    7  C2  UNL     1      -6.577   8.253  11.373  1.00  0.00     0.004 C 
HETATM    8  C1  UNL     1      -5.553   9.318  11.018  1.00  0.00     0.012 C 
HETATM    9  C3  UNL     1      -7.589   8.212  10.250  1.00  0.00     0.006 C 
HETATM   10  C4  UNL     1      -7.374   7.047   9.332  1.00  0.00     0.001 C 
HETATM   11  C5  UNL     1      -5.932   6.801   8.982  1.00  0.00     0.002 C 
HETATM   12  C6  UNL     1      -5.065   6.747  10.193  1.00  0.00     0.025 C 
ENDBRANCH   3   6
ENDBRANCH   1   2
BRANCH   1  13
HETATM   13  C10 UNL     1      -3.667   5.032  14.819  1.00  0.00     0.112 C 
BRANCH  13  14
HETATM   14  C11 UNL     1      -4.149   3.632  14.775  1.00  0.00     0.220 C 
HETATM   15  O2  UNL     1      -4.817   3.200  15.763  1.00  0.00    -0.273 OA
HETATM   16  N2  UNL     1      -3.876   2.774  13.655  1.00  0.00    -0.352 N 
HETATM   17  C12 UNL     1      -3.113   3.332  12.575  1.00  0.00     0.128 C 
HETATM   18  C16 UNL     1      -4.385   1.437  13.705  1.00  0.00     0.128 C 
HETATM   19  C13 UNL     1      -3.304   2.587  11.275  1.00  0.00     0.051 C 
HETATM   20  C14 UNL     1      -4.674   1.923  11.321  1.00  0.00     0.121 C 
HETATM   21  C15 UNL     1      -4.583   0.817  12.348  1.00  0.00     0.051 C 
BRANCH  20  22
HETATM   22  O3  UNL     1      -4.951   1.452  10.055  1.00  0.00    -0.395 OA
ATOM     23  H3  UNL     1      -4.511   0.615   9.957  1.00  0.00     0.210 HD
ENDBRANCH  20  22
ENDBRANCH  13  14
ENDBRANCH   1  13
TORSDOF 5
ENDMDL
MODEL 4
REMARK VINA RESULT: -7.084202155      4.623      6.703
REMARK  5 active torsions:
REMARK  status: ('A' for Active; 'I' for Inactive)
REMARK    1  A    between atoms: C7_7  and  N1_8 
REMARK       I    between atoms: N1_8  and  C8_10 
REMARK    2  A    between atoms: C8_10  and  C9_12 
REMARK    3  A    between atoms: C9_12  and  C10_13 
REMARK    4  A    between atoms: C10_13  and  C11_14 
REMARK       I    between atoms: C11_14  and  N2_16 
REMARK    5  A    between atoms: C14_19  and  O3_20 
ROOT
HETATM    1  C9  UNL     1      -4.712   6.452  13.296  1.00  0.00     0.112 C 
ENDROOT
BRANCH   1   2
HETATM    2  C8  UNL     1      -5.823   6.798  12.388  1.00  0.00     0.218 C 
HETATM    3  N1  UNL     1      -5.619   7.254  11.062  1.00  0.00    -0.356 N 
ATOM      4  H1  UNL     1      -4.663   7.348  10.717  1.00  0.00     0.162 HD
HETATM    5  O1  UNL     1      -7.010   6.692  12.788  1.00  0.00    -0.274 OA
BRANCH   3   6
HETATM    6  C7  UNL     1      -6.711   7.591  10.182  1.00  0.00     0.088 C 
HETATM    7  C2  UNL     1      -6.529   8.962   9.557  1.00  0.00     0.004 C 
HETATM    8  C1  UNL     1      -5.466   8.925   8.472  1.00  0.00     0.012 C 
HETATM    9  C3  UNL     1      -7.840   9.308   8.888  1.00  0.00     0.006 C 
HETATM   10  C4  UNL     1      -8.721   8.108   8.706  1.00  0.00     0.001 C 
HETATM   11  C5  UNL     1      -7.993   6.882   8.225  1.00  0.00     0.002 C 
HETATM   12  C6  UNL     1      -6.786   6.591   9.050  1.00  0.00     0.025 C 
ENDBRANCH   3   6
ENDBRANCH   1   2
BRANCH   1  13
HETATM   13  C10 UNL     1      -5.146   5.647  14.476  1.00  0.00     0.112 C 
BRANCH  13  14
HETATM   14  C11 UNL     1      -4.580   4.282  14.374  1.00  0.00     0.220 C 
HETATM   15  O2  UNL     1      -3.515   4.126  13.704  1.00  0.00    -0.273 OA
HETATM   16  N2  UNL     1      -5.208   3.156  15.008  1.00  0.00    -0.352 N 
HETATM   17  C12 UNL     1      -6.411   3.409  15.749  1.00  0.00     0.128 C 
HETATM   18  C16 UNL     1      -4.585   1.876  14.853  1.00  0.00     0.128 C 
HETATM   19  C13 UNL     1      -6.708   2.336  16.770  1.00  0.00     0.051 C 
HETATM   20  C14 UNL     1      -5.385   1.692  17.161  1.00  0.00     0.121 C 
HETATM   21  C15 UNL     1      -4.915   0.908  15.958  1.00  0.00     0.051 C 
BRANCH  20  22
HETATM   22  O3  UNL     1      -5.621   0.891  18.259  1.00  0.00    -0.395 OA
ATOM     23  H3  UNL     1      -4.837   0.377  18.413  1.00  0.00     0.210 HD
ENDBRANCH  20  22
ENDBRANCH  13  14
ENDBRANCH   1  13
TORSDOF 5
ENDMDL
MODEL 5
REMARK VINA RESULT: -7.071449331      3.892      6.404
REMARK  5 active torsions:
REMARK  status: ('A' for Active; 'I' for Inactive)
REMARK    1  A    between atoms: C7_7  and  N1_8 
REMARK       I    between atoms: N1_8  and  C8_10 
REMARK    2  A    between atoms: C8_10  and  C9_12 
REMARK    3  A    between atoms: C9_12  and  C10_13 
REMARK    4  A    between atoms: C10_13  and  C11_14 
REMARK       I    between atoms: C11_14  and  N2_16 
REMARK    5  A    between atoms: C14_19  and  O3_20 
ROOT
HETATM    1  C9  UNL     1      -3.621   5.037  13.739  1.00  0.00     0.112 C 
ENDROOT
BRANCH   1   2
HETATM    2  C8  UNL     1      -4.050   6.310  13.128  1.00  0.00     0.218 C 
HETATM    3  N1  UNL     1      -5.067   6.386  12.144  1.00  0.00    -0.356 N 
ATOM      4  H1  UNL     1      -5.525   5.525  11.844  1.00  0.00     0.162 HD
HETATM    5  O1  UNL     1      -3.502   7.385  13.480  1.00  0.00    -0.274 OA
BRANCH   3   6
HETATM    6  C7  UNL     1      -5.480   7.634  11.551  1.00  0.00     0.088 C 
HETATM    7  C2  UNL     1      -5.281   7.637  10.046  1.00  0.00     0.004 C 
HETATM    8  C1  UNL     1      -6.338   6.787   9.360  1.00  0.00     0.012 C 
HETATM    9  C3  UNL     1      -5.485   9.063   9.587  1.00  0.00     0.006 C 
HETATM   10  C4  UNL     1      -6.175   9.901  10.622  1.00  0.00     0.001 C 
HETATM   11  C5  UNL     1      -7.329   9.212  11.298  1.00  0.00     0.002 C 
HETATM   12  C6  UNL     1      -6.953   7.864  11.808  1.00  0.00     0.025 C 
ENDBRANCH   3   6
ENDBRANCH   1   2
BRANCH   1  13
HETATM   13  C10 UNL     1      -4.552   3.906  13.456  1.00  0.00     0.112 C 
BRANCH  13  14
HETATM   14  C11 UNL     1      -5.638   3.898  14.464  1.00  0.00     0.220 C 
HETATM   15  O2  UNL     1      -6.671   4.596  14.233  1.00  0.00    -0.273 OA
HETATM   16  N2  UNL     1      -5.538   3.130  15.674  1.00  0.00    -0.352 N 
HETATM   17  C12 UNL     1      -4.339   2.365  15.867  1.00  0.00     0.128 C 
HETATM   18  C16 UNL     1      -6.640   3.186  16.587  1.00  0.00     0.128 C 
HETATM   19  C13 UNL     1      -4.517   1.232  16.850  1.00  0.00     0.051 C 
HETATM   20  C14 UNL     1      -5.988   0.839  16.839  1.00  0.00     0.121 C 
HETATM   21  C15 UNL     1      -6.744   1.979  17.480  1.00  0.00     0.051 C 
BRANCH  20  22
HETATM   22  O3  UNL     1      -6.108  -0.342  17.543  1.00  0.00    -0.395 OA
ATOM     23  H3  UNL     1      -7.025  -0.589  17.533  1.00  0.00     0.210 HD
ENDBRANCH  20  22
ENDBRANCH  13  14
ENDBRANCH   1  13
TORSDOF 5
ENDMDL
