MODEL 1
REMARK VINA RESULT: -7.657552572      0.000      0.000
REMARK  4 active torsions:
REMARK  status: ('A' for Active; 'I' for Inactive)
REMARK    1  A    between atoms: N1_2  and  C2_5 
REMARK    2  A    between atoms: N2_7  and  C4_8 
REMARK    3  A    between atoms: C4_8  and  C5_9 
REMARK    4  A    between atoms: C5_9  and  C6_10 
ROOT
HETATM    1  C4  UNL     1      -4.598   4.055  12.060  1.00  0.00     0.128 C 
ENDROOT
BRANCH   1   2
HETATM    2  N2  UNL     1      -3.877   2.900  11.567  1.00  0.00    -0.350 N 
HETATM    3  C3  UNL     1      -4.496   1.607  11.462  1.00  0.00     0.161 C 
HETATM    4  C2  UNL     1      -3.547   0.519  11.854  1.00  0.00     0.237 C 
HETATM    5  C17 UNL     1      -2.262   0.574  11.103  1.00  0.00     0.211 C 
HETATM    6  C16 UNL     1      -1.576   1.899  11.333  1.00  0.00     0.142 C 
HETATM    7  F1  UNL     1      -2.385   0.367   9.753  1.00  0.00    -0.247 F 
HETATM    8  C15 UNL     1      -2.527   3.029  11.101  1.00  0.00     0.222 C 
HETATM    9  O1  UNL     1      -2.142   4.047  10.525  1.00  0.00    -0.273 OA
BRANCH   4  10
HETATM   10  N1  UNL     1      -4.235  -0.757  11.609  1.00  0.00    -0.070 N 
HETATM   11  C1  UNL     1      -3.385  -1.892  11.626  1.00  0.00     0.267 C 
ATOM     12  H12 UNL     1      -4.760  -0.717  10.735  1.00  0.00     0.277 HD
ATOM     13  H11 UNL     1      -5.005  -0.878  12.268  1.00  0.00     0.277 HD
ENDBRANCH   4  10
ENDBRANCH   1   2
BRANCH   1  14
HETATM   14  C5  UNL     1      -4.456   4.279  13.521  1.00  0.00     0.053 C 
BRANCH  14  15
HETATM   15  C6  UNL     1      -4.869   3.016  14.284  1.00  0.00     0.188 C 
HETATM   16  C7  UNL     1      -6.039   3.274  15.199  1.00  0.00     0.044 C 
HETATM   17  C8  UNL     1      -5.741   2.400  16.389  1.00  0.00    -0.007 C 
HETATM   18  C9  UNL     1      -4.256   2.257  16.434  1.00  0.00     0.243 C 
HETATM   19  C10 UNL     1      -6.458   2.853  17.624  1.00  0.00    -0.004 C 
HETATM   20  C13 UNL     1      -6.556   1.151  16.529  1.00  0.00    -0.004 C 
HETATM   21  N3  UNL     1      -3.766   2.624  15.145  1.00  0.00    -0.070 N 
ATOM     22  H32 UNL     1      -3.200   1.885  14.727  1.00  0.00     0.277 HD
ATOM     23  H31 UNL     1      -3.049   3.348  15.201  1.00  0.00     0.277 HD
HETATM   24  C11 UNL     1      -6.037   1.859  18.671  1.00  0.00     0.006 C 
HETATM   25  C14 UNL     1      -7.668   2.085  17.040  1.00  0.00     0.011 C 
HETATM   26  C12 UNL     1      -6.098   0.577  17.841  1.00  0.00     0.006 C 
ENDBRANCH  14  15
ENDBRANCH   1  14
TORSDOF 4
ENDMDL
MODEL 2
REMARK VINA RESULT: -7.414938633      2.474      3.644
REMARK  4 active torsions:
REMARK  status: ('A' for Active; 'I' for Inactive)
REMARK    1  A    between atoms: N1_2  and  C2_5 
REMARK    2  A    between atoms: N2_7  and  C4_8 
REMARK    3  A    between atoms: C4_8  and  C5_9 
REMARK    4  A    between atoms: C5_9  and  C6_10 
ROOT
HETATM    1  C4  UNL     1      -3.282   2.713  12.175  1.00  0.00     0.128 C 
ENDROOT
BRANCH   1   2
HETATM    2  N2  UNL     1      -1.995   3.170  11.692  1.00  0.00    -0.350 N 
HETATM    3  C3  UNL     1      -1.166   4.056  12.462  1.00  0.00     0.161 C 
HETATM    4  C2  UNL     1      -0.494   5.066  11.587  1.00  0.00     0.237 C 
HETATM    5  C17 UNL     1       0.263   4.446  10.464  1.00  0.00     0.211 C 
HETATM    6  C16 UNL     1      -0.660   3.619   9.602  1.00  0.00     0.142 C 
HETATM    7  F1  UNL     1       1.320   3.665  10.857  1.00  0.00    -0.247 F 
HETATM    8  C15 UNL     1      -1.474   2.690  10.445  1.00  0.00     0.222 C 
HETATM    9  O1  UNL     1      -1.688   1.541  10.059  1.00  0.00    -0.273 OA
BRANCH   4  10
HETATM   10  N1  UNL     1       0.405   5.847  12.449  1.00  0.00    -0.070 N 
HETATM   11  C1  UNL     1       1.094   6.891  11.780  1.00  0.00     0.267 C 
ATOM     12  H12 UNL     1       1.065   5.232  12.925  1.00  0.00     0.277 HD
ATOM     13  H11 UNL     1      -0.103   6.214  13.254  1.00  0.00     0.277 HD
ENDBRANCH   4  10
ENDBRANCH   1   2
BRANCH   1  14
HETATM   14  C5  UNL     1      -3.816   3.505  13.312  1.00  0.00     0.053 C 
BRANCH  14  15
HETATM   15  C6  UNL     1      -4.940   2.727  14.005  1.00  0.00     0.188 C 
HETATM   16  C7  UNL     1      -5.417   3.428  15.252  1.00  0.00     0.044 C 
HETATM   17  C8  UNL     1      -5.734   2.288  16.184  1.00  0.00    -0.007 C 
HETATM   18  C9  UNL     1      -4.857   1.156  15.765  1.00  0.00     0.243 C 
HETATM   19  C10 UNL     1      -5.731   2.707  17.622  1.00  0.00    -0.004 C 
HETATM   20  C13 UNL     1      -7.185   1.985  16.409  1.00  0.00    -0.004 C 
HETATM   21  N3  UNL     1      -4.407   1.449  14.443  1.00  0.00    -0.070 N 
ATOM     22  H32 UNL     1      -4.629   0.699  13.789  1.00  0.00     0.277 HD
ATOM     23  H31 UNL     1      -3.390   1.415  14.370  1.00  0.00     0.277 HD
HETATM   24  C11 UNL     1      -6.074   1.447  18.367  1.00  0.00     0.006 C 
HETATM   25  C14 UNL     1      -7.167   3.213  17.338  1.00  0.00     0.011 C 
HETATM   26  C12 UNL     1      -7.160   0.896  17.445  1.00  0.00     0.006 C 
ENDBRANCH  14  15
ENDBRANCH   1  14
TORSDOF 4
ENDMDL
MODEL 3
REMARK VINA RESULT: -7.362257103      2.916      6.765
REMARK  4 active torsions:
REMARK  status: ('A' for Active; 'I' for Inactive)
REMARK    1  A    between atoms: N1_2  and  C2_5 
REMARK    2  A    between atoms: N2_7  and  C4_8 
REMARK    3  A    between atoms: C4_8  and  C5_9 
REMARK    4  A    between atoms: C5_9  and  C6_10 
ROOT
HETATM    1  C4  UNL     1      -4.049   0.788  13.008  1.00  0.00     0.128 C 
ENDROOT
BRANCH   1   2
HETATM    2  N2  UNL     1      -4.701   1.439  14.125  1.00  0.00    -0.350 N 
HETATM    3  C3  UNL     1      -5.421   2.673  13.971  1.00  0.00     0.161 C 
HETATM    4  C2  UNL     1      -5.196   3.581  15.138  1.00  0.00     0.237 C 
HETATM    5  C17 UNL     1      -5.498   2.931  16.444  1.00  0.00     0.211 C 
HETATM    6  C16 UNL     1      -4.636   1.705  16.631  1.00  0.00     0.142 C 
HETATM    7  F1  UNL     1      -6.812   2.578  16.611  1.00  0.00    -0.247 F 
HETATM    8  C15 UNL     1      -4.703   0.828  15.423  1.00  0.00     0.222 C 
HETATM    9  O1  UNL     1      -4.753  -0.396  15.555  1.00  0.00    -0.273 OA
BRANCH   4  10
HETATM   10  N1  UNL     1      -6.054   4.757  14.935  1.00  0.00    -0.070 N 
HETATM   11  C1  UNL     1      -5.453   5.795  14.177  1.00  0.00     0.267 C 
ATOM     12  H12 UNL     1      -6.384   5.116  15.831  1.00  0.00     0.277 HD
ATOM     13  H11 UNL     1      -6.944   4.482  14.520  1.00  0.00     0.277 HD
ENDBRANCH   4  10
ENDBRANCH   1   2
BRANCH   1  14
HETATM   14  C5  UNL     1      -4.740   0.984  11.708  1.00  0.00     0.053 C 
BRANCH  14  15
HETATM   15  C6  UNL     1      -3.870   1.837  10.778  1.00  0.00     0.188 C 
HETATM   16  C7  UNL     1      -2.526   2.136  11.391  1.00  0.00     0.044 C 
HETATM   17  C8  UNL     1      -2.237   3.535  10.912  1.00  0.00    -0.007 C 
HETATM   18  C9  UNL     1      -3.565   4.175  10.684  1.00  0.00     0.243 C 
HETATM   19  C10 UNL     1      -1.236   4.239  11.776  1.00  0.00    -0.004 C 
HETATM   20  C13 UNL     1      -1.210   3.678   9.829  1.00  0.00    -0.004 C 
HETATM   21  N3  UNL     1      -4.523   3.121  10.596  1.00  0.00    -0.070 N 
ATOM     22  H32 UNL     1      -5.054   3.160   9.726  1.00  0.00     0.277 HD
ATOM     23  H31 UNL     1      -5.296   3.253  11.249  1.00  0.00     0.277 HD
HETATM   24  C11 UNL     1      -1.087   5.588  11.130  1.00  0.00     0.006 C 
HETATM   25  C14 UNL     1      -0.179   3.463  10.953  1.00  0.00     0.011 C 
HETATM   26  C12 UNL     1      -1.082   5.166   9.662  1.00  0.00     0.006 C 
ENDBRANCH  14  15
ENDBRANCH   1  14
TORSDOF 4
ENDMDL
MODEL 4
REMARK VINA RESULT: -7.311396943      0.979      1.035
REMARK  4 active torsions:
REMARK  status: ('A' for Active; 'I' for Inactive)
REMARK    1  A    between atoms: N1_2  and  C2_5 
REMARK    2  A    between atoms: N2_7  and  C4_8 
REMARK    3  A    between atoms: C4_8  and  C5_9 
REMARK    4  A    between atoms: C5_9  and  C6_10 
ROOT
HETATM    1  C4  UNL     1      -4.549   4.695  12.399  1.00  0.00     0.128 C 
ENDROOT
BRANCH   1   2
HETATM    2  N2  UNL     1      -3.551   3.819  11.821  1.00  0.00    -0.350 N 
HETATM    3  C3  UNL     1      -3.902   2.561  11.221  1.00  0.00     0.161 C 
HETATM    4  C2  UNL     1      -2.889   1.508  11.539  1.00  0.00     0.237 C 
HETATM    5  C17 UNL     1      -1.500   1.915  11.186  1.00  0.00     0.211 C 
HETATM    6  C16 UNL     1      -1.117   3.173  11.928  1.00  0.00     0.142 C 
HETATM    7  F1  UNL     1      -1.291   2.110   9.845  1.00  0.00    -0.247 F 
HETATM    8  C15 UNL     1      -2.175   4.218  11.769  1.00  0.00     0.222 C 
HETATM    9  O1  UNL     1      -1.854   5.395  11.603  1.00  0.00    -0.273 OA
BRANCH   4  10
HETATM   10  N1  UNL     1      -3.279   0.301  10.797  1.00  0.00    -0.070 N 
HETATM   11  C1  UNL     1      -3.922  -0.688  11.585  1.00  0.00     0.267 C 
ATOM     12  H12 UNL     1      -2.473  -0.097  10.314  1.00  0.00     0.277 HD
ATOM     13  H11 UNL     1      -3.858   0.548   9.994  1.00  0.00     0.277 HD
ENDBRANCH   4  10
ENDBRANCH   1   2
BRANCH   1  14
HETATM   14  C5  UNL     1      -4.525   4.741  13.883  1.00  0.00     0.053 C 
BRANCH  14  15
HETATM   15  C6  UNL     1      -4.932   3.378  14.454  1.00  0.00     0.188 C 
HETATM   16  C7  UNL     1      -6.079   3.500  15.425  1.00  0.00     0.044 C 
HETATM   17  C8  UNL     1      -5.762   2.452  16.460  1.00  0.00    -0.007 C 
HETATM   18  C9  UNL     1      -4.278   2.293  16.446  1.00  0.00     0.243 C 
HETATM   19  C10 UNL     1      -6.446   2.713  17.767  1.00  0.00    -0.004 C 
HETATM   20  C13 UNL     1      -6.586   1.200  16.426  1.00  0.00    -0.004 C 
HETATM   21  N3  UNL     1      -3.814   2.851  15.217  1.00  0.00    -0.070 N 
ATOM     22  H32 UNL     1      -3.265   2.182  14.677  1.00  0.00     0.277 HD
ATOM     23  H31 UNL     1      -3.089   3.554  15.366  1.00  0.00     0.277 HD
HETATM   24  C11 UNL     1      -6.011   1.567  18.637  1.00  0.00     0.006 C 
HETATM   25  C14 UNL     1      -7.677   2.052  17.101  1.00  0.00     0.011 C 
HETATM   26  C12 UNL     1      -6.104   0.429  17.622  1.00  0.00     0.006 C 
ENDBRANCH  14  15
ENDBRANCH   1  14
TORSDOF 4
ENDMDL
MODEL 5
REMARK VINA RESULT: -7.241339188      2.621      4.843
REMARK  4 active torsions:
REMARK  status: ('A' for Active; 'I' for Inactive)
REMARK    1  A    between atoms: N1_2  and  C2_5 
REMARK    2  A    between atoms: N2_7  and  C4_8 
REMARK    3  A    between atoms: C4_8  and  C5_9 
REMARK    4  A    between atoms: C5_9  and  C6_10 
ROOT
HETATM    1  C4  UNL     1      -5.036   2.513  13.780  1.00  0.00     0.128 C 
ENDROOT
BRANCH   1   2
HETATM    2  N2  UNL     1      -4.143   1.717  12.963  1.00  0.00    -0.350 N 
HETATM    3  C3  UNL     1      -3.038   2.302  12.254  1.00  0.00     0.161 C 
HETATM    4  C2  UNL     1      -2.869   1.679  10.905  1.00  0.00     0.237 C 
HETATM    5  C17 UNL     1      -2.759   0.195  10.963  1.00  0.00     0.211 C 
HETATM    6  C16 UNL     1      -3.992  -0.399  11.602  1.00  0.00     0.142 C 
HETATM    7  F1  UNL     1      -1.651  -0.266  11.626  1.00  0.00    -0.247 F 
HETATM    8  C15 UNL     1      -4.299   0.293  12.891  1.00  0.00     0.222 C 
HETATM    9  O1  UNL     1      -4.682  -0.361  13.862  1.00  0.00    -0.273 OA
BRANCH   4  10
HETATM   10  N1  UNL     1      -1.659   2.265  10.313  1.00  0.00    -0.070 N 
HETATM   11  C1  UNL     1      -0.889   3.049  11.210  1.00  0.00     0.267 C 
ATOM     12  H12 UNL     1      -1.895   2.806   9.481  1.00  0.00     0.277 HD
ATOM     13  H11 UNL     1      -1.081   1.539   9.890  1.00  0.00     0.277 HD
ENDBRANCH   4  10
ENDBRANCH   1   2
BRANCH   1  14
HETATM   14  C5  UNL     1      -4.600   2.652  15.192  1.00  0.00     0.053 C 
BRANCH  14  15
HETATM   15  C6  UNL     1      -3.931   4.016  15.399  1.00  0.00     0.188 C 
HETATM   16  C7  UNL     1      -4.168   4.936  14.229  1.00  0.00     0.044 C 
HETATM   17  C8  UNL     1      -2.874   5.703  14.131  1.00  0.00    -0.007 C 
HETATM   18  C9  UNL     1      -1.822   4.809  14.697  1.00  0.00     0.243 C 
HETATM   19  C10 UNL     1      -2.661   6.295  12.771  1.00  0.00    -0.004 C 
HETATM   20  C13 UNL     1      -2.896   7.125  14.605  1.00  0.00    -0.004 C 
HETATM   21  N3  UNL     1      -2.494   3.812  15.466  1.00  0.00    -0.070 N 
ATOM     22  H32 UNL     1      -2.158   3.780  16.428  1.00  0.00     0.277 HD
ATOM     23  H31 UNL     1      -2.229   2.869  15.182  1.00  0.00     0.277 HD
HETATM   24  C11 UNL     1      -1.345   7.010  12.891  1.00  0.00     0.006 C 
HETATM   25  C14 UNL     1      -3.594   7.427  13.266  1.00  0.00     0.011 C 
HETATM   26  C12 UNL     1      -1.516   7.625  14.279  1.00  0.00     0.006 C 
ENDBRANCH  14  15
ENDBRANCH   1  14
TORSDOF 4
ENDMDL
