MODEL 1
REMARK VINA RESULT: -6.863464820      0.000      0.000
REMARK  6 active torsions:
REMARK  status: ('A' for Active; 'I' for Inactive)
REMARK    1  A    between atoms: N1_2  and  C2_5 
REMARK    2  A    between atoms: C2_5  and  C3_6 
REMARK    3  A    between atoms: C3_6  and  C4_7 
REMARK    4  A    between atoms: C3_6  and  N2_13 
REMARK    5  A    between atoms: C4_7  and  C5_8 
REMARK    6  A    between atoms: C6_9  and  C7_10 
REMARK       I    between atoms: N2_13  and  C9_15 
REMARK       I    between atoms: C9_15  and  N3_17 
ROOT
HETATM    1  C3  UNL     1      -3.498   0.533  11.561  1.00  0.00     0.122 C 
ENDROOT
BRANCH   1   2
HETATM    2  C2  UNL     1      -3.941  -0.925  11.577  1.00  0.00     0.257 C 
BRANCH   2   3
HETATM    3  N1  UNL     1      -2.800  -1.787  11.514  1.00  0.00    -0.077 N 
HETATM    4  C1  UNL     1      -3.222  -3.167  11.498  1.00  0.00     0.267 C 
ATOM      5  H12 UNL     1      -2.137  -1.599  12.266  1.00  0.00     0.276 HD
ATOM      6  H11 UNL     1      -2.195  -1.564  10.724  1.00  0.00     0.276 HD
ENDBRANCH   2   3
ENDBRANCH   1   2
BRANCH   1   7
HETATM    7  C4  UNL     1      -2.001   0.525  11.286  1.00  0.00     0.121 C 
BRANCH   7   8
HETATM    8  C5  UNL     1      -1.677   1.900  10.833  1.00  0.00    -0.100 C 
HETATM    9  C6  UNL     1      -1.406   3.015  10.457  1.00  0.00    -0.076 C 
BRANCH   9  10
HETATM   10  C7  UNL     1      -1.072   4.339   9.995  1.00  0.00     0.093 C 
HETATM   11  C8  UNL     1      -0.670   4.589   8.775  1.00  0.00     0.197 C 
HETATM   12  F1  UNL     1      -0.556   3.582   7.901  1.00  0.00    -0.219 F 
ENDBRANCH   9  10
ENDBRANCH   7   8
ENDBRANCH   1   7
BRANCH   1  13
HETATM   13  N2  UNL     1      -3.756   1.187  12.807  1.00  0.00    -0.336 N 
HETATM   14  C9  UNL     1      -4.858   2.065  12.962  1.00  0.00     0.319 C 
HETATM   15  O1  UNL     1      -5.641   2.296  12.009  1.00  0.00    -0.247 OA
HETATM   16  N3  UNL     1      -5.071   2.684  14.202  1.00  0.00    -0.323 N 
HETATM   17  C10 UNL     1      -6.132   3.599  14.534  1.00  0.00     0.098 C 
HETATM   18  C13 UNL     1      -4.268   2.524  15.388  1.00  0.00     0.098 C 
HETATM   19  C11 UNL     1      -6.410   3.366  16.021  1.00  0.00     0.028 C 
HETATM   20  C15 UNL     1      -5.619   5.026  14.329  1.00  0.00     0.099 C 
HETATM   21  C12 UNL     1      -5.272   2.514  16.520  1.00  0.00     0.028 C 
HETATM   22  S1  UNL     1      -3.798   4.979  14.349  1.00  0.00    -0.165 SA
HETATM   23  C14 UNL     1      -3.298   3.684  15.514  1.00  0.00     0.099 C 
ATOM     24  H2  UNL     1      -3.136   1.018  13.599  1.00  0.00     0.164 HD
ENDBRANCH   1  13
TORSDOF 6
ENDMDL
MODEL 2
REMARK VINA RESULT: -6.861903287      1.072      1.112
REMARK  6 active torsions:
REMARK  status: ('A' for Active; 'I' for Inactive)
REMARK    1  A    between atoms: N1_2  and  C2_5 
REMARK    2  A    between atoms: C2_5  and  C3_6 
REMARK    3  A    between atoms: C3_6  and  C4_7 
REMARK    4  A    between atoms: C3_6  and  N2_13 
REMARK    5  A    between atoms: C4_7  and  C5_8 
REMARK    6  A    between atoms: C6_9  and  C7_10 
REMARK       I    between atoms: N2_13  and  C9_15 
REMARK       I    between atoms: C9_15  and  N3_17 
ROOT
HETATM    1  C3  UNL     1      -3.501   0.565  11.521  1.00  0.00     0.122 C 
ENDROOT
BRANCH   1   2
HETATM    2  C2  UNL     1      -3.965  -0.886  11.520  1.00  0.00     0.257 C 
BRANCH   2   3
HETATM    3  N1  UNL     1      -2.835  -1.765  11.508  1.00  0.00    -0.077 N 
HETATM    4  C1  UNL     1      -3.277  -3.138  11.495  1.00  0.00     0.267 C 
ATOM      5  H12 UNL     1      -2.196  -1.576  12.280  1.00  0.00     0.276 HD
ATOM      6  H11 UNL     1      -2.200  -1.560  10.736  1.00  0.00     0.276 HD
ENDBRANCH   2   3
ENDBRANCH   1   2
BRANCH   1   7
HETATM    7  C4  UNL     1      -2.005   0.539  11.243  1.00  0.00     0.121 C 
BRANCH   7   8
HETATM    8  C5  UNL     1      -1.586   1.961  11.205  1.00  0.00    -0.100 C 
HETATM    9  C6  UNL     1      -1.238   3.117  11.183  1.00  0.00    -0.076 C 
BRANCH   9  10
HETATM   10  C7  UNL     1      -0.810   4.493  11.168  1.00  0.00     0.093 C 
HETATM   11  C8  UNL     1       0.444   4.852  11.275  1.00  0.00     0.197 C 
HETATM   12  F1  UNL     1       1.388   3.911  11.407  1.00  0.00    -0.219 F 
ENDBRANCH   9  10
ENDBRANCH   7   8
ENDBRANCH   1   7
BRANCH   1  13
HETATM   13  N2  UNL     1      -3.748   1.208  12.775  1.00  0.00    -0.336 N 
HETATM   14  C9  UNL     1      -4.860   2.067  12.955  1.00  0.00     0.319 C 
HETATM   15  O1  UNL     1      -5.664   2.291  12.018  1.00  0.00    -0.247 OA
HETATM   16  N3  UNL     1      -5.062   2.674  14.203  1.00  0.00    -0.323 N 
HETATM   17  C10 UNL     1      -6.131   3.570  14.559  1.00  0.00     0.098 C 
HETATM   18  C13 UNL     1      -4.236   2.520  15.374  1.00  0.00     0.098 C 
HETATM   19  C11 UNL     1      -6.379   3.323  16.049  1.00  0.00     0.028 C 
HETATM   20  C15 UNL     1      -5.645   5.007  14.354  1.00  0.00     0.099 C 
HETATM   21  C12 UNL     1      -5.220   2.486  16.523  1.00  0.00     0.028 C 
HETATM   22  S1  UNL     1      -3.823   4.988  14.343  1.00  0.00    -0.165 SA
HETATM   23  C14 UNL     1      -3.282   3.694  15.491  1.00  0.00     0.099 C 
ATOM     24  H2  UNL     1      -3.111   1.043  13.555  1.00  0.00     0.164 HD
ENDBRANCH   1  13
TORSDOF 6
ENDMDL
MODEL 3
REMARK VINA RESULT: -6.737118337      1.076      1.130
REMARK  6 active torsions:
REMARK  status: ('A' for Active; 'I' for Inactive)
REMARK    1  A    between atoms: N1_2  and  C2_5 
REMARK    2  A    between atoms: C2_5  and  C3_6 
REMARK    3  A    between atoms: C3_6  and  C4_7 
REMARK    4  A    between atoms: C3_6  and  N2_13 
REMARK    5  A    between atoms: C4_7  and  C5_8 
REMARK    6  A    between atoms: C6_9  and  C7_10 
REMARK       I    between atoms: N2_13  and  C9_15 
REMARK       I    between atoms: C9_15  and  N3_17 
ROOT
HETATM    1  C3  UNL     1      -3.563   0.333  11.618  1.00  0.00     0.122 C 
ENDROOT
BRANCH   1   2
HETATM    2  C2  UNL     1      -3.927  -1.143  11.713  1.00  0.00     0.257 C 
BRANCH   2   3
HETATM    3  N1  UNL     1      -2.751  -1.950  11.593  1.00  0.00    -0.077 N 
HETATM    4  C1  UNL     1      -3.113  -3.345  11.518  1.00  0.00     0.267 C 
ATOM      5  H12 UNL     1      -2.085  -1.768  12.344  1.00  0.00     0.276 HD
ATOM      6  H11 UNL     1      -2.169  -1.663  10.806  1.00  0.00     0.276 HD
ENDBRANCH   2   3
ENDBRANCH   1   2
BRANCH   1   7
HETATM    7  C4  UNL     1      -2.079   0.390  11.282  1.00  0.00     0.121 C 
BRANCH   7   8
HETATM    8  C5  UNL     1      -1.782   1.824  11.047  1.00  0.00    -0.100 C 
HETATM    9  C6  UNL     1      -1.549   2.994  10.864  1.00  0.00    -0.076 C 
BRANCH   9  10
HETATM   10  C7  UNL     1      -1.281   4.395  10.658  1.00  0.00     0.093 C 
HETATM   11  C8  UNL     1      -2.218   5.309  10.661  1.00  0.00     0.197 C 
HETATM   12  F1  UNL     1      -3.491   4.944  10.861  1.00  0.00    -0.219 F 
ENDBRANCH   9  10
ENDBRANCH   7   8
ENDBRANCH   1   7
BRANCH   1  13
HETATM   13  N2  UNL     1      -3.807   1.028  12.845  1.00  0.00    -0.336 N 
HETATM   14  C9  UNL     1      -4.855   1.974  12.958  1.00  0.00     0.319 C 
HETATM   15  O1  UNL     1      -5.602   2.233  11.983  1.00  0.00    -0.247 OA
HETATM   16  N3  UNL     1      -5.056   2.630  14.181  1.00  0.00    -0.323 N 
HETATM   17  C10 UNL     1      -6.065   3.615  14.471  1.00  0.00     0.098 C 
HETATM   18  C13 UNL     1      -4.290   2.446  15.388  1.00  0.00     0.098 C 
HETATM   19  C11 UNL     1      -6.390   3.430  15.955  1.00  0.00     0.028 C 
HETATM   20  C15 UNL     1      -5.461   5.004  14.250  1.00  0.00     0.099 C 
HETATM   21  C12 UNL     1      -5.318   2.520  16.496  1.00  0.00     0.028 C 
HETATM   22  S1  UNL     1      -3.647   4.846  14.313  1.00  0.00    -0.165 SA
HETATM   23  C14 UNL     1      -3.254   3.546  15.514  1.00  0.00     0.099 C 
ATOM     24  H2  UNL     1      -3.215   0.837  13.654  1.00  0.00     0.164 HD
ENDBRANCH   1  13
TORSDOF 6
ENDMDL
MODEL 4
REMARK VINA RESULT: -6.688722495      3.132      5.918
REMARK  6 active torsions:
REMARK  status: ('A' for Active; 'I' for Inactive)
REMARK    1  A    between atoms: N1_2  and  C2_5 
REMARK    2  A    between atoms: C2_5  and  C3_6 
REMARK    3  A    between atoms: C3_6  and  C4_7 
REMARK    4  A    between atoms: C3_6  and  N2_13 
REMARK    5  A    between atoms: C4_7  and  C5_8 
REMARK    6  A    between atoms: C6_9  and  C7_10 
REMARK       I    between atoms: N2_13  and  C9_15 
REMARK       I    between atoms: C9_15  and  N3_17 
ROOT
HETATM    1  C3  UNL     1      -5.617   3.712  15.402  1.00  0.00     0.122 C 
ENDROOT
BRANCH   1   2
HETATM    2  C2  UNL     1      -6.728   3.004  16.165  1.00  0.00     0.257 C 
BRANCH   2   3
HETATM    3  N1  UNL     1      -6.175   2.001  17.024  1.00  0.00    -0.077 N 
HETATM    4  C1  UNL     1      -7.204   1.075  17.431  1.00  0.00     0.267 C 
ATOM      5  H12 UNL     1      -5.690   2.409  17.824  1.00  0.00     0.276 HD
ATOM      6  H11 UNL     1      -5.381   1.526  16.596  1.00  0.00     0.276 HD
ENDBRANCH   2   3
ENDBRANCH   1   2
BRANCH   1   7
HETATM    7  C4  UNL     1      -6.036   5.171  15.284  1.00  0.00     0.121 C 
BRANCH   7   8
HETATM    8  C5  UNL     1      -4.793   5.914  14.966  1.00  0.00    -0.100 C 
HETATM    9  C6  UNL     1      -3.775   6.510  14.709  1.00  0.00    -0.076 C 
BRANCH   9  10
HETATM   10  C7  UNL     1      -2.550   7.207  14.407  1.00  0.00     0.093 C 
HETATM   11  C8  UNL     1      -2.069   8.164  15.158  1.00  0.00     0.197 C 
HETATM   12  F1  UNL     1      -2.732   8.530  16.262  1.00  0.00    -0.219 F 
ENDBRANCH   9  10
ENDBRANCH   7   8
ENDBRANCH   1   7
BRANCH   1  13
HETATM   13  N2  UNL     1      -5.423   3.159  14.097  1.00  0.00    -0.336 N 
HETATM   14  C9  UNL     1      -4.513   2.096  13.876  1.00  0.00     0.319 C 
HETATM   15  O1  UNL     1      -3.847   1.607  14.821  1.00  0.00    -0.247 OA
HETATM   16  N3  UNL     1      -4.357   1.586  12.580  1.00  0.00    -0.323 N 
HETATM   17  C10 UNL     1      -3.481   0.516  12.177  1.00  0.00     0.098 C 
HETATM   18  C13 UNL     1      -5.043   2.035  11.394  1.00  0.00     0.098 C 
HETATM   19  C11 UNL     1      -4.190  -0.160  11.001  1.00  0.00     0.028 C 
HETATM   20  C15 UNL     1      -2.163   1.126  11.695  1.00  0.00     0.099 C 
HETATM   21  C12 UNL     1      -5.316   0.764  10.618  1.00  0.00     0.028 C 
HETATM   22  S1  UNL     1      -2.472   2.872  11.274  1.00  0.00    -0.165 SA
HETATM   23  C14 UNL     1      -4.155   2.985  10.613  1.00  0.00     0.099 C 
ATOM     24  H2  UNL     1      -5.951   3.537  13.310  1.00  0.00     0.164 HD
ENDBRANCH   1  13
TORSDOF 6
ENDMDL
MODEL 5
REMARK VINA RESULT: -6.478906457      2.998      5.749
REMARK  6 active torsions:
REMARK  status: ('A' for Active; 'I' for Inactive)
REMARK    1  A    between atoms: N1_2  and  C2_5 
REMARK    2  A    between atoms: C2_5  and  C3_6 
REMARK    3  A    between atoms: C3_6  and  C4_7 
REMARK    4  A    between atoms: C3_6  and  N2_13 
REMARK    5  A    between atoms: C4_7  and  C5_8 
REMARK    6  A    between atoms: C6_9  and  C7_10 
REMARK       I    between atoms: N2_13  and  C9_15 
REMARK       I    between atoms: C9_15  and  N3_17 
ROOT
HETATM    1  C3  UNL     1      -5.700   3.456  15.681  1.00  0.00     0.122 C 
ENDROOT
BRANCH   1   2
HETATM    2  C2  UNL     1      -6.529   2.472  16.496  1.00  0.00     0.257 C 
BRANCH   2   3
HETATM    3  N1  UNL     1      -5.712   1.843  17.489  1.00  0.00    -0.077 N 
HETATM    4  C1  UNL     1      -6.064   0.449  17.610  1.00  0.00     0.267 C 
ATOM      5  H12 UNL     1      -5.758   2.328  18.386  1.00  0.00     0.276 HD
ATOM      6  H11 UNL     1      -4.717   1.971  17.302  1.00  0.00     0.276 HD
ENDBRANCH   2   3
ENDBRANCH   1   2
BRANCH   1   7
HETATM    7  C4  UNL     1      -6.470   4.769  15.677  1.00  0.00     0.121 C 
BRANCH   7   8
HETATM    8  C5  UNL     1      -6.014   5.490  14.464  1.00  0.00    -0.100 C 
HETATM    9  C6  UNL     1      -5.650   6.085  13.478  1.00  0.00    -0.076 C 
BRANCH   9  10
HETATM   10  C7  UNL     1      -5.228   6.808  12.305  1.00  0.00     0.093 C 
HETATM   11  C8  UNL     1      -5.996   7.664  11.680  1.00  0.00     0.197 C 
HETATM   12  F1  UNL     1      -7.233   7.892  12.135  1.00  0.00    -0.219 F 
ENDBRANCH   9  10
ENDBRANCH   7   8
ENDBRANCH   1   7
BRANCH   1  13
HETATM   13  N2  UNL     1      -5.504   3.008  14.336  1.00  0.00    -0.336 N 
HETATM   14  C9  UNL     1      -4.551   2.007  14.026  1.00  0.00     0.319 C 
HETATM   15  O1  UNL     1      -3.849   1.481  14.923  1.00  0.00    -0.247 OA
HETATM   16  N3  UNL     1      -4.395   1.600  12.693  1.00  0.00    -0.323 N 
HETATM   17  C10 UNL     1      -3.479   0.603  12.202  1.00  0.00     0.098 C 
HETATM   18  C13 UNL     1      -5.120   2.101  11.553  1.00  0.00     0.098 C 
HETATM   19  C11 UNL     1      -4.177  -0.018  10.989  1.00  0.00     0.028 C 
HETATM   20  C15 UNL     1      -2.198   1.306  11.748  1.00  0.00     0.099 C 
HETATM   21  C12 UNL     1      -5.350   0.879  10.691  1.00  0.00     0.028 C 
HETATM   22  S1  UNL     1      -2.592   3.062  11.460  1.00  0.00    -0.165 SA
HETATM   23  C14 UNL     1      -4.289   3.146  10.832  1.00  0.00     0.099 C 
ATOM     24  H2  UNL     1      -6.062   3.418  13.586  1.00  0.00     0.164 HD
ENDBRANCH   1  13
TORSDOF 6
ENDMDL
