MODEL 1
REMARK VINA RESULT: -7.124509425      0.000      0.000
REMARK  4 active torsions:
REMARK  status: ('A' for Active; 'I' for Inactive)
REMARK    1  A    between atoms: C2_2  and  N1_3 
REMARK       I    between atoms: N1_3  and  C3_5 
REMARK       I    between atoms: C3_5  and  N2_7 
REMARK    2  A    between atoms: N2_7  and  C4_9 
REMARK    3  A    between atoms: C4_9  and  C5_10 
REMARK    4  A    between atoms: C5_10  and  N3_11 
ROOT
HETATM    1  C5  UNL     1      -3.966   4.302  14.222  1.00  0.00     0.178 C 
HETATM    2  C11 UNL     1      -2.453   4.330  14.378  1.00  0.00     0.044 C 
HETATM    3  C12 UNL     1      -1.835   5.661  14.580  1.00  0.00     0.003 C 
HETATM    4  C13 UNL     1      -2.281   6.717  13.604  1.00  0.00     0.001 C 
HETATM    5  C14 UNL     1      -3.679   6.573  13.152  1.00  0.00     0.007 C 
HETATM    6  C15 UNL     1      -4.519   5.707  14.045  1.00  0.00     0.022 C 
HETATM    7  C16 UNL     1      -4.893   6.382  15.329  1.00  0.00     0.012 C 
ENDROOT
BRANCH   1   8
HETATM    8  C4  UNL     1      -4.209   3.586  12.923  1.00  0.00     0.166 C 
BRANCH   8   9
HETATM    9  N2  UNL     1      -3.367   2.503  12.584  1.00  0.00    -0.341 N 
HETATM   10  C3  UNL     1      -4.014   1.277  12.244  1.00  0.00     0.316 C 
HETATM   11  N1  UNL     1      -3.297   0.102  11.892  1.00  0.00    -0.344 N 
HETATM   12  O1  UNL     1      -5.288   1.163  12.238  1.00  0.00    -0.247 OA
ATOM     13  H1  UNL     1      -2.277   0.143  11.886  1.00  0.00     0.164 HD
ATOM     14  H2  UNL     1      -2.351   2.592  12.583  1.00  0.00     0.164 HD
BRANCH  11  15
HETATM   15  C2  UNL     1      -3.927  -1.136  11.545  1.00  0.00     0.120 C 
HETATM   16  C1  UNL     1      -2.989  -2.299  11.525  1.00  0.00     0.026 C 
ENDBRANCH  11  15
ENDBRANCH   8   9
ENDBRANCH   1   8
BRANCH   1  17
HETATM   17  N3  UNL     1      -4.683   3.727  15.291  1.00  0.00     0.103 N 
HETATM   18  C6  UNL     1      -3.970   2.732  16.054  1.00  0.00     0.303 C 
HETATM   19  C7  UNL     1      -4.523   1.332  15.906  1.00  0.00     0.302 C 
HETATM   20  N4  UNL     1      -5.891   1.248  16.383  1.00  0.00     0.087 N 
HETATM   21  C8  UNL     1      -6.017   0.540  17.619  1.00  0.00     0.310 C 
HETATM   22  C9  UNL     1      -6.455   2.568  16.399  1.00  0.00     0.302 C 
HETATM   23  C10 UNL     1      -5.998   3.250  15.091  1.00  0.00     0.303 C 
ENDBRANCH   1  17
TORSDOF 4
ENDMDL
MODEL 2
REMARK VINA RESULT: -6.094201383      1.654      4.694
REMARK  4 active torsions:
REMARK  status: ('A' for Active; 'I' for Inactive)
REMARK    1  A    between atoms: C2_2  and  N1_3 
REMARK       I    between atoms: N1_3  and  C3_5 
REMARK       I    between atoms: C3_5  and  N2_7 
REMARK    2  A    between atoms: N2_7  and  C4_9 
REMARK    3  A    between atoms: C4_9  and  C5_10 
REMARK    4  A    between atoms: C5_10  and  N3_11 
ROOT
HETATM    1  C5  UNL     1      -3.295   4.661  12.625  1.00  0.00     0.178 C 
HETATM    2  C11 UNL     1      -4.686   5.276  12.581  1.00  0.00     0.044 C 
HETATM    3  C12 UNL     1      -4.786   6.645  12.025  1.00  0.00     0.003 C 
HETATM    4  C13 UNL     1      -3.795   7.627  12.593  1.00  0.00     0.001 C 
HETATM    5  C14 UNL     1      -2.496   7.034  12.961  1.00  0.00     0.007 C 
HETATM    6  C15 UNL     1      -2.232   5.703  12.319  1.00  0.00     0.022 C 
HETATM    7  C16 UNL     1      -1.887   5.815  10.865  1.00  0.00     0.012 C 
ENDROOT
BRANCH   1   8
HETATM    8  C4  UNL     1      -3.094   4.260  14.060  1.00  0.00     0.166 C 
BRANCH   8   9
HETATM    9  N2  UNL     1      -4.229   4.147  14.892  1.00  0.00    -0.341 N 
HETATM   10  C3  UNL     1      -4.512   2.845  15.407  1.00  0.00     0.316 C 
HETATM   11  N1  UNL     1      -5.625   2.579  16.248  1.00  0.00    -0.344 N 
HETATM   12  O1  UNL     1      -3.774   1.836  15.137  1.00  0.00    -0.247 OA
ATOM     13  H1  UNL     1      -6.245   3.353  16.489  1.00  0.00     0.164 HD
ATOM     14  H2  UNL     1      -4.816   4.951  15.113  1.00  0.00     0.164 HD
BRANCH  11  15
HETATM   15  C2  UNL     1      -5.924   1.282  16.777  1.00  0.00     0.120 C 
HETATM   16  C1  UNL     1      -7.292   1.179  17.369  1.00  0.00     0.026 C 
ENDBRANCH  11  15
ENDBRANCH   8   9
ENDBRANCH   1   8
BRANCH   1  17
HETATM   17  N3  UNL     1      -3.068   3.591  11.734  1.00  0.00     0.103 N 
HETATM   18  C6  UNL     1      -4.252   2.962  11.202  1.00  0.00     0.303 C 
HETATM   19  C7  UNL     1      -4.463   1.544  11.682  1.00  0.00     0.302 C 
HETATM   20  N4  UNL     1      -3.372   0.678  11.272  1.00  0.00     0.087 N 
HETATM   21  C8  UNL     1      -3.736  -0.238  10.235  1.00  0.00     0.310 C 
HETATM   22  C9  UNL     1      -2.228   1.490  10.968  1.00  0.00     0.302 C 
HETATM   23  C10 UNL     1      -2.156   2.567  12.072  1.00  0.00     0.303 C 
ENDBRANCH   1  17
TORSDOF 4
ENDMDL
MODEL 3
REMARK VINA RESULT: -5.998071774      2.062      2.489
REMARK  4 active torsions:
REMARK  status: ('A' for Active; 'I' for Inactive)
REMARK    1  A    between atoms: C2_2  and  N1_3 
REMARK       I    between atoms: N1_3  and  C3_5 
REMARK       I    between atoms: C3_5  and  N2_7 
REMARK    2  A    between atoms: N2_7  and  C4_9 
REMARK    3  A    between atoms: C4_9  and  C5_10 
REMARK    4  A    between atoms: C5_10  and  N3_11 
ROOT
HETATM    1  C5  UNL     1      -4.367   4.227  14.421  1.00  0.00     0.178 C 
HETATM    2  C11 UNL     1      -2.931   4.681  14.635  1.00  0.00     0.044 C 
HETATM    3  C12 UNL     1      -2.707   6.142  14.726  1.00  0.00     0.003 C 
HETATM    4  C13 UNL     1      -3.354   6.947  13.630  1.00  0.00     0.001 C 
HETATM    5  C14 UNL     1      -4.629   6.388  13.139  1.00  0.00     0.007 C 
HETATM    6  C15 UNL     1      -5.264   5.406  14.080  1.00  0.00     0.022 C 
HETATM    7  C16 UNL     1      -5.890   6.063  15.272  1.00  0.00     0.012 C 
ENDROOT
BRANCH   1   8
HETATM    8  C4  UNL     1      -4.322   3.362  13.192  1.00  0.00     0.166 C 
BRANCH   8   9
HETATM    9  N2  UNL     1      -3.079   2.821  12.797  1.00  0.00    -0.341 N 
HETATM   10  C3  UNL     1      -2.529   3.318  11.576  1.00  0.00     0.316 C 
HETATM   11  N1  UNL     1      -1.292   2.860  11.049  1.00  0.00    -0.344 N 
HETATM   12  O1  UNL     1      -3.125   4.209  10.880  1.00  0.00    -0.247 OA
ATOM     13  H1  UNL     1      -0.781   2.146  11.569  1.00  0.00     0.164 HD
ATOM     14  H2  UNL     1      -2.599   2.114  13.353  1.00  0.00     0.164 HD
BRANCH  11  15
HETATM   15  C2  UNL     1      -0.723   3.347   9.829  1.00  0.00     0.120 C 
HETATM   16  C1  UNL     1       0.606   4.007  10.010  1.00  0.00     0.026 C 
ENDBRANCH  11  15
ENDBRANCH   8   9
ENDBRANCH   1   8
BRANCH   1  17
HETATM   17  N3  UNL     1      -4.974   3.573  15.513  1.00  0.00     0.103 N 
HETATM   18  C6  UNL     1      -4.161   2.582  16.174  1.00  0.00     0.303 C 
HETATM   19  C7  UNL     1      -4.659   1.165  16.004  1.00  0.00     0.302 C 
HETATM   20  N4  UNL     1      -5.982   0.995  16.576  1.00  0.00     0.087 N 
HETATM   21  C8  UNL     1      -5.981   0.229  17.784  1.00  0.00     0.310 C 
HETATM   22  C9  UNL     1      -6.601   2.284  16.695  1.00  0.00     0.302 C 
HETATM   23  C10 UNL     1      -6.277   3.042  15.390  1.00  0.00     0.303 C 
ENDBRANCH   1  17
TORSDOF 4
ENDMDL
MODEL 4
REMARK VINA RESULT: -5.892516751      3.245      5.342
REMARK  4 active torsions:
REMARK  status: ('A' for Active; 'I' for Inactive)
REMARK    1  A    between atoms: C2_2  and  N1_3 
REMARK       I    between atoms: N1_3  and  C3_5 
REMARK       I    between atoms: C3_5  and  N2_7 
REMARK    2  A    between atoms: N2_7  and  C4_9 
REMARK    3  A    between atoms: C4_9  and  C5_10 
REMARK    4  A    between atoms: C5_10  and  N3_11 
ROOT
HETATM    1  C5  UNL     1      -3.497   5.189  13.077  1.00  0.00     0.178 C 
HETATM    2  C11 UNL     1      -2.481   5.829  12.142  1.00  0.00     0.044 C 
HETATM    3  C12 UNL     1      -1.275   6.409  12.776  1.00  0.00     0.003 C 
HETATM    4  C13 UNL     1      -1.553   7.313  13.948  1.00  0.00     0.001 C 
HETATM    5  C14 UNL     1      -2.736   6.930  14.742  1.00  0.00     0.007 C 
HETATM    6  C15 UNL     1      -3.178   5.512  14.528  1.00  0.00     0.022 C 
HETATM    7  C16 UNL     1      -2.280   4.514  15.192  1.00  0.00     0.012 C 
ENDROOT
BRANCH   1   8
HETATM    8  C4  UNL     1      -4.797   5.878  12.767  1.00  0.00     0.166 C 
BRANCH   8   9
HETATM    9  N2  UNL     1      -4.959   6.466  11.493  1.00  0.00    -0.341 N 
HETATM   10  C3  UNL     1      -6.193   7.146  11.259  1.00  0.00     0.316 C 
HETATM   11  N1  UNL     1      -6.499   7.777  10.024  1.00  0.00    -0.344 N 
HETATM   12  O1  UNL     1      -7.101   7.226  12.156  1.00  0.00    -0.247 OA
ATOM     13  H1  UNL     1      -5.805   7.737   9.277  1.00  0.00     0.164 HD
ATOM     14  H2  UNL     1      -4.234   6.409  10.779  1.00  0.00     0.164 HD
BRANCH  11  15
HETATM   15  C2  UNL     1      -7.728   8.466   9.771  1.00  0.00     0.120 C 
HETATM   16  C1  UNL     1      -8.511   7.894   8.635  1.00  0.00     0.026 C 
ENDBRANCH  11  15
ENDBRANCH   8   9
ENDBRANCH   1   8
BRANCH   1  17
HETATM   17  N3  UNL     1      -3.604   3.785  12.999  1.00  0.00     0.103 N 
HETATM   18  C6  UNL     1      -3.201   3.199  11.744  1.00  0.00     0.303 C 
HETATM   19  C7  UNL     1      -4.339   2.587  10.959  1.00  0.00     0.302 C 
HETATM   20  N4  UNL     1      -4.962   1.497  11.688  1.00  0.00     0.087 N 
HETATM   21  C8  UNL     1      -4.664   0.209  11.144  1.00  0.00     0.310 C 
HETATM   22  C9  UNL     1      -4.646   1.637  13.082  1.00  0.00     0.302 C 
HETATM   23  C10 UNL     1      -4.791   3.138  13.410  1.00  0.00     0.303 C 
ENDBRANCH   1  17
TORSDOF 4
ENDMDL
MODEL 5
REMARK VINA RESULT: -5.775543490      3.084      4.874
REMARK  4 active torsions:
REMARK  status: ('A' for Active; 'I' for Inactive)
REMARK    1  A    between atoms: C2_2  and  N1_3 
REMARK       I    between atoms: N1_3  and  C3_5 
REMARK       I    between atoms: C3_5  and  N2_7 
REMARK    2  A    between atoms: N2_7  and  C4_9 
REMARK    3  A    between atoms: C4_9  and  C5_10 
REMARK    4  A    between atoms: C5_10  and  N3_11 
ROOT
HETATM    1  C5  UNL     1      -3.216   4.697  12.837  1.00  0.00     0.178 C 
HETATM    2  C11 UNL     1      -2.039   5.162  11.992  1.00  0.00     0.044 C 
HETATM    3  C12 UNL     1      -0.946   5.860  12.708  1.00  0.00     0.003 C 
HETATM    4  C13 UNL     1      -1.401   6.963  13.628  1.00  0.00     0.001 C 
HETATM    5  C14 UNL     1      -2.712   6.723  14.261  1.00  0.00     0.007 C 
HETATM    6  C15 UNL     1      -3.144   5.285  14.237  1.00  0.00     0.022 C 
HETATM    7  C16 UNL     1      -2.397   4.436  15.219  1.00  0.00     0.012 C 
ENDROOT
BRANCH   1   8
HETATM    8  C4  UNL     1      -4.426   5.305  12.185  1.00  0.00     0.166 C 
BRANCH   8   9
HETATM    9  N2  UNL     1      -4.463   5.381  10.776  1.00  0.00    -0.341 N 
HETATM   10  C3  UNL     1      -5.477   6.212  10.210  1.00  0.00     0.316 C 
HETATM   11  N1  UNL     1      -5.640   6.378   8.809  1.00  0.00    -0.344 N 
HETATM   12  O1  UNL     1      -6.304   6.860  10.939  1.00  0.00    -0.247 OA
ATOM     13  H1  UNL     1      -5.005   5.878   8.187  1.00  0.00     0.164 HD
ATOM     14  H2  UNL     1      -3.800   4.870  10.192  1.00  0.00     0.164 HD
BRANCH  11  15
HETATM   15  C2  UNL     1      -6.649   7.209   8.223  1.00  0.00     0.120 C 
HETATM   16  C1  UNL     1      -7.973   6.532   8.080  1.00  0.00     0.026 C 
ENDBRANCH  11  15
ENDBRANCH   8   9
ENDBRANCH   1   8
BRANCH   1  17
HETATM   17  N3  UNL     1      -3.340   3.302  13.001  1.00  0.00     0.103 N 
HETATM   18  C6  UNL     1      -2.779   2.499  11.943  1.00  0.00     0.303 C 
HETATM   19  C7  UNL     1      -3.808   1.748  11.129  1.00  0.00     0.302 C 
HETATM   20  N4  UNL     1      -4.549   0.807  11.949  1.00  0.00     0.087 N 
HETATM   21  C8  UNL     1      -4.206  -0.558  11.695  1.00  0.00     0.310 C 
HETATM   22  C9  UNL     1      -4.429   1.200  13.325  1.00  0.00     0.302 C 
HETATM   23  C10 UNL     1      -4.586   2.736  13.351  1.00  0.00     0.303 C 
ENDBRANCH   1  17
TORSDOF 4
ENDMDL
