MODEL 1
REMARK VINA RESULT: -6.350456490      0.000      0.000
REMARK  6 active torsions:
REMARK  status: ('A' for Active; 'I' for Inactive)
REMARK    1  A    between atoms: C1_2  and  N1_3 
REMARK    2  A    between atoms: C1_2  and  N3_13 
REMARK    3  A    between atoms: N1_3  and  C2_5 
REMARK    4  A    between atoms: C2_5  and  C3_6 
REMARK    5  A    between atoms: C3_6  and  N2_7 
REMARK    6  A    between atoms: N3_13  and  C8_15 
ROOT
HETATM    1  S1  UNL     1      -2.950   5.714  14.510  1.00  0.00    -0.041 SA
HETATM    2  C1  UNL     1      -3.604   4.406  13.787  1.00  0.00     0.167 C 
ENDROOT
BRANCH   2   3
HETATM    3  N1  UNL     1      -4.990   4.361  13.564  1.00  0.00    -0.366 N 
ATOM      4  H1  UNL     1      -5.338   4.345  12.605  1.00  0.00     0.161 HD
BRANCH   3   5
HETATM    5  C2  UNL     1      -5.930   4.338  14.647  1.00  0.00     0.152 C 
BRANCH   5   6
HETATM    6  C3  UNL     1      -6.105   2.931  15.139  1.00  0.00     0.292 C 
BRANCH   6   7
HETATM    7  N2  UNL     1      -5.615   2.808  16.502  1.00  0.00     0.094 N 
HETATM    8  C4  UNL     1      -4.398   1.991  16.500  1.00  0.00     0.298 C 
HETATM    9  C5  UNL     1      -4.626   0.598  15.995  1.00  0.00     0.198 C 
HETATM   10  O1  UNL     1      -5.787   0.042  16.531  1.00  0.00    -0.388 OA
HETATM   11  C6  UNL     1      -6.173   0.752  17.658  1.00  0.00     0.198 C 
HETATM   12  C7  UNL     1      -6.646   2.149  17.289  1.00  0.00     0.298 C 
ENDBRANCH   6   7
ENDBRANCH   5   6
ENDBRANCH   3   5
ENDBRANCH   2   3
BRANCH   2  13
HETATM   13  N3  UNL     1      -2.743   3.323  13.348  1.00  0.00    -0.363 N 
ATOM     14  H3  UNL     1      -1.811   3.192  13.739  1.00  0.00     0.162 HD
BRANCH  13  15
HETATM   15  C8  UNL     1      -3.265   2.448  12.341  1.00  0.00     0.085 C 
HETATM   16  C9  UNL     1      -2.261   2.187  11.236  1.00  0.00     0.025 C 
HETATM   17  C10 UNL     1      -2.044   0.698  11.027  1.00  0.00     0.004 C 
HETATM   18  C11 UNL     1      -3.360   0.001  10.756  1.00  0.00     0.020 C 
HETATM   19  C12 UNL     1      -4.420   0.390  11.752  1.00  0.00     0.084 C 
HETATM   20 CL1  UNL     1      -5.564   1.481  10.895  1.00  0.00    -0.125 Cl
HETATM   21  C13 UNL     1      -3.752   1.136  12.892  1.00  0.00     0.045 C 
ENDBRANCH  13  15
ENDBRANCH   2  13
TORSDOF 6
ENDMDL
MODEL 2
REMARK VINA RESULT: -6.196027126      1.517      1.848
REMARK  6 active torsions:
REMARK  status: ('A' for Active; 'I' for Inactive)
REMARK    1  A    between atoms: C1_2  and  N1_3 
REMARK    2  A    between atoms: C1_2  and  N3_13 
REMARK    3  A    between atoms: N1_3  and  C2_5 
REMARK    4  A    between atoms: C2_5  and  C3_6 
REMARK    5  A    between atoms: C3_6  and  N2_7 
REMARK    6  A    between atoms: N3_13  and  C8_15 
ROOT
HETATM    1  S1  UNL     1      -3.217   3.931  13.405  1.00  0.00    -0.041 SA
HETATM    2  C1  UNL     1      -4.795   3.519  13.386  1.00  0.00     0.167 C 
ENDROOT
BRANCH   2   3
HETATM    3  N1  UNL     1      -5.744   4.392  13.943  1.00  0.00    -0.366 N 
ATOM      4  H1  UNL     1      -6.278   5.002  13.326  1.00  0.00     0.161 HD
BRANCH   3   5
HETATM    5  C2  UNL     1      -5.981   4.449  15.357  1.00  0.00     0.152 C 
BRANCH   5   6
HETATM    6  C3  UNL     1      -6.470   3.117  15.844  1.00  0.00     0.292 C 
BRANCH   6   7
HETATM    7  N2  UNL     1      -5.802   2.754  17.083  1.00  0.00     0.094 N 
HETATM    8  C4  UNL     1      -4.552   2.056  16.764  1.00  0.00     0.298 C 
HETATM    9  C5  UNL     1      -4.767   0.784  16.001  1.00  0.00     0.198 C 
HETATM   10  O1  UNL     1      -5.817   0.037  16.536  1.00  0.00    -0.388 OA
HETATM   11  C6  UNL     1      -6.091   0.466  17.826  1.00  0.00     0.198 C 
HETATM   12  C7  UNL     1      -6.684   1.865  17.823  1.00  0.00     0.298 C 
ENDBRANCH   6   7
ENDBRANCH   5   6
ENDBRANCH   3   5
ENDBRANCH   2   3
BRANCH   2  13
HETATM   13  N3  UNL     1      -5.204   2.276  12.758  1.00  0.00    -0.363 N 
ATOM     14  H3  UNL     1      -6.188   2.021  12.670  1.00  0.00     0.162 HD
BRANCH  13  15
HETATM   15  C8  UNL     1      -4.162   1.423  12.268  1.00  0.00     0.085 C 
HETATM   16  C9  UNL     1      -4.150   0.078  12.965  1.00  0.00     0.025 C 
HETATM   17  C10 UNL     1      -4.209  -1.062  11.964  1.00  0.00     0.004 C 
HETATM   18  C11 UNL     1      -3.082  -0.949  10.959  1.00  0.00     0.020 C 
HETATM   19  C12 UNL     1      -2.976   0.439  10.386  1.00  0.00     0.084 C 
HETATM   20 CL1  UNL     1      -1.523   1.197  11.128  1.00  0.00    -0.125 Cl
HETATM   21  C13 UNL     1      -4.220   1.215  10.780  1.00  0.00     0.045 C 
ENDBRANCH  13  15
ENDBRANCH   2  13
TORSDOF 6
ENDMDL
MODEL 3
REMARK VINA RESULT: -6.046735691      1.586      2.049
REMARK  6 active torsions:
REMARK  status: ('A' for Active; 'I' for Inactive)
REMARK    1  A    between atoms: C1_2  and  N1_3 
REMARK    2  A    between atoms: C1_2  and  N3_13 
REMARK    3  A    between atoms: N1_3  and  C2_5 
REMARK    4  A    between atoms: C2_5  and  C3_6 
REMARK    5  A    between atoms: C3_6  and  N2_7 
REMARK    6  A    between atoms: N3_13  and  C8_15 
ROOT
HETATM    1  S1  UNL     1      -3.449   6.769  13.535  1.00  0.00    -0.041 SA
HETATM    2  C1  UNL     1      -4.300   5.381  13.651  1.00  0.00     0.167 C 
ENDROOT
BRANCH   2   3
HETATM    3  N1  UNL     1      -4.935   5.061  14.862  1.00  0.00    -0.366 N 
ATOM      4  H1  UNL     1      -4.463   5.273  15.741  1.00  0.00     0.161 HD
BRANCH   3   5
HETATM    5  C2  UNL     1      -6.229   4.441  14.897  1.00  0.00     0.152 C 
BRANCH   5   6
HETATM    6  C3  UNL     1      -6.085   2.980  15.203  1.00  0.00     0.292 C 
BRANCH   6   7
HETATM    7  N2  UNL     1      -5.499   2.794  16.520  1.00  0.00     0.094 N 
HETATM    8  C4  UNL     1      -4.292   1.971  16.394  1.00  0.00     0.298 C 
HETATM    9  C5  UNL     1      -4.569   0.603  15.849  1.00  0.00     0.198 C 
HETATM   10  O1  UNL     1      -5.693   0.031  16.444  1.00  0.00    -0.388 OA
HETATM   11  C6  UNL     1      -5.990   0.694  17.624  1.00  0.00     0.198 C 
HETATM   12  C7  UNL     1      -6.476   2.108  17.351  1.00  0.00     0.298 C 
ENDBRANCH   6   7
ENDBRANCH   5   6
ENDBRANCH   3   5
ENDBRANCH   2   3
BRANCH   2  13
HETATM   13  N3  UNL     1      -4.424   4.517  12.492  1.00  0.00    -0.363 N 
ATOM     14  H3  UNL     1      -5.256   4.532  11.902  1.00  0.00     0.162 HD
BRANCH  13  15
HETATM   15  C8  UNL     1      -3.324   3.642  12.215  1.00  0.00     0.085 C 
HETATM   16  C9  UNL     1      -3.621   2.209  12.609  1.00  0.00     0.025 C 
HETATM   17  C10 UNL     1      -3.396   1.259  11.446  1.00  0.00     0.004 C 
HETATM   18  C11 UNL     1      -1.990   1.404  10.903  1.00  0.00     0.020 C 
HETATM   19  C12 UNL     1      -1.622   2.845  10.671  1.00  0.00     0.084 C 
HETATM   20 CL1  UNL     1      -0.470   3.304  11.975  1.00  0.00    -0.125 Cl
HETATM   21  C13 UNL     1      -2.882   3.684  10.779  1.00  0.00     0.045 C 
ENDBRANCH  13  15
ENDBRANCH   2  13
TORSDOF 6
ENDMDL
MODEL 4
REMARK VINA RESULT: -5.956681386      3.193      4.995
REMARK  6 active torsions:
REMARK  status: ('A' for Active; 'I' for Inactive)
REMARK    1  A    between atoms: C1_2  and  N1_3 
REMARK    2  A    between atoms: C1_2  and  N3_13 
REMARK    3  A    between atoms: N1_3  and  C2_5 
REMARK    4  A    between atoms: C2_5  and  C3_6 
REMARK    5  A    between atoms: C3_6  and  N2_7 
REMARK    6  A    between atoms: N3_13  and  C8_15 
ROOT
HETATM    1  S1  UNL     1      -3.263   3.717  12.918  1.00  0.00    -0.041 SA
HETATM    2  C1  UNL     1      -3.961   4.777  13.943  1.00  0.00     0.167 C 
ENDROOT
BRANCH   2   3
HETATM    3  N1  UNL     1      -5.360   4.890  13.970  1.00  0.00    -0.366 N 
ATOM      4  H1  UNL     1      -5.850   5.189  13.127  1.00  0.00     0.161 HD
BRANCH   3   5
HETATM    5  C2  UNL     1      -6.120   4.596  15.151  1.00  0.00     0.152 C 
BRANCH   5   6
HETATM    6  C3  UNL     1      -6.117   3.116  15.402  1.00  0.00     0.292 C 
BRANCH   6   7
HETATM    7  N2  UNL     1      -5.462   2.819  16.665  1.00  0.00     0.094 N 
HETATM    8  C4  UNL     1      -4.277   1.995  16.406  1.00  0.00     0.298 C 
HETATM    9  C5  UNL     1      -4.604   0.679  15.769  1.00  0.00     0.198 C 
HETATM   10  O1  UNL     1      -5.702   0.073  16.378  1.00  0.00    -0.388 OA
HETATM   11  C6  UNL     1      -5.923   0.641  17.623  1.00  0.00     0.198 C 
HETATM   12  C7  UNL     1      -6.402   2.078  17.492  1.00  0.00     0.298 C 
ENDBRANCH   6   7
ENDBRANCH   5   6
ENDBRANCH   3   5
ENDBRANCH   2   3
BRANCH   2  13
HETATM   13  N3  UNL     1      -3.132   5.560  14.839  1.00  0.00    -0.363 N 
ATOM     14  H3  UNL     1      -2.748   5.161  15.696  1.00  0.00     0.162 HD
BRANCH  13  15
HETATM   15  C8  UNL     1      -2.876   6.920  14.466  1.00  0.00     0.085 C 
HETATM   16  C9  UNL     1      -3.096   7.879  15.617  1.00  0.00     0.025 C 
HETATM   17  C10 UNL     1      -1.871   8.745  15.856  1.00  0.00     0.004 C 
HETATM   18  C11 UNL     1      -1.483   9.479  14.590  1.00  0.00     0.020 C 
HETATM   19  C12 UNL     1      -1.431   8.559  13.399  1.00  0.00     0.084 C 
HETATM   20 CL1  UNL     1      -2.878   8.927  12.395  1.00  0.00    -0.125 Cl
HETATM   21  C13 UNL     1      -1.500   7.128  13.898  1.00  0.00     0.045 C 
ENDBRANCH  13  15
ENDBRANCH   2  13
TORSDOF 6
ENDMDL
MODEL 5
REMARK VINA RESULT: -5.862133846      3.421      5.410
REMARK  6 active torsions:
REMARK  status: ('A' for Active; 'I' for Inactive)
REMARK    1  A    between atoms: C1_2  and  N1_3 
REMARK    2  A    between atoms: C1_2  and  N3_13 
REMARK    3  A    between atoms: N1_3  and  C2_5 
REMARK    4  A    between atoms: C2_5  and  C3_6 
REMARK    5  A    between atoms: C3_6  and  N2_7 
REMARK    6  A    between atoms: N3_13  and  C8_15 
ROOT
HETATM    1  S1  UNL     1      -0.749   5.112  10.377  1.00  0.00    -0.041 SA
HETATM    2  C1  UNL     1      -0.836   4.362  11.824  1.00  0.00     0.167 C 
ENDROOT
BRANCH   2   3
HETATM    3  N1  UNL     1      -0.895   2.959  11.871  1.00  0.00    -0.366 N 
ATOM      4  H1  UNL     1      -0.479   2.472  12.665  1.00  0.00     0.161 HD
BRANCH   3   5
HETATM    5  C2  UNL     1      -1.523   2.193  10.833  1.00  0.00     0.152 C 
BRANCH   5   6
HETATM    6  C3  UNL     1      -1.857   0.823  11.345  1.00  0.00     0.292 C 
BRANCH   6   7
HETATM    7  N2  UNL     1      -3.030   0.300  10.663  1.00  0.00     0.094 N 
HETATM    8  C4  UNL     1      -4.197   1.107  11.036  1.00  0.00     0.298 C 
HETATM    9  C5  UNL     1      -4.496   1.064  12.504  1.00  0.00     0.198 C 
HETATM   10  O1  UNL     1      -4.409  -0.234  13.008  1.00  0.00    -0.388 OA
HETATM   11  C6  UNL     1      -4.470  -1.148  11.968  1.00  0.00     0.198 C 
HETATM   12  C7  UNL     1      -3.225  -1.074  11.099  1.00  0.00     0.298 C 
ENDBRANCH   6   7
ENDBRANCH   5   6
ENDBRANCH   3   5
ENDBRANCH   2   3
BRANCH   2  13
HETATM   13  N3  UNL     1      -0.811   5.148  13.042  1.00  0.00    -0.363 N 
ATOM     14  H3  UNL     1      -0.006   5.724  13.289  1.00  0.00     0.162 HD
BRANCH  13  15
HETATM   15  C8  UNL     1      -1.970   5.080  13.883  1.00  0.00     0.085 C 
HETATM   16  C9  UNL     1      -2.075   6.274  14.808  1.00  0.00     0.025 C 
HETATM   17  C10 UNL     1      -3.423   6.960  14.673  1.00  0.00     0.004 C 
HETATM   18  C11 UNL     1      -4.549   5.976  14.909  1.00  0.00     0.020 C 
HETATM   19  C12 UNL     1      -4.361   4.707  14.121  1.00  0.00     0.084 C 
HETATM   20 CL1  UNL     1      -3.871   3.434  15.294  1.00  0.00    -0.125 Cl
HETATM   21  C13 UNL     1      -3.252   4.931  13.111  1.00  0.00     0.045 C 
ENDBRANCH  13  15
ENDBRANCH   2  13
TORSDOF 6
ENDMDL
