MODEL 1
REMARK VINA RESULT: -7.122734301      0.000      0.000
REMARK  9 active torsions:
REMARK  status: ('A' for Active; 'I' for Inactive)
REMARK    1  A    between atoms: N3_4  and  C2_6 
REMARK    2  A    between atoms: C2_6  and  C3_7 
REMARK    3  A    between atoms: C3_7  and  C4_8 
REMARK    4  A    between atoms: C4_8  and  C5_9 
REMARK    5  A    between atoms: N4_13  and  C8_14 
REMARK    6  A    between atoms: C8_14  and  C9_15 
REMARK    7  A    between atoms: C12_18  and  O2_19 
REMARK    8  A    between atoms: O2_19  and  C13_20 
REMARK    9  A    between atoms: C13_20  and  C14_21 
ROOT
HETATM    1  C5  UNL     1      47.361   8.030  13.210  1.00  0.00     0.249 C 
HETATM    2  C6  UNL     1      48.472   8.438  12.270  1.00  0.00     0.205 C 
HETATM    3  O1  UNL     1      48.069   9.683  11.737  1.00  0.00    -0.360 OA
HETATM    4  C7  UNL     1      47.374  10.220  12.822  1.00  0.00     0.441 C 
HETATM    5  N4  UNL     1      46.443   9.147  13.100  1.00  0.00     0.122 N 
ENDROOT
BRANCH   5   6
HETATM    6  C8  UNL     1      45.586   8.858  11.984  1.00  0.00     0.314 C 
BRANCH   6   7
HETATM    7  C9  UNL     1      44.165   8.738  12.317  1.00  0.00    -0.030 A 
HETATM    8  C10 UNL     1      43.628   7.515  12.651  1.00  0.00     0.011 A 
HETATM    9  C11 UNL     1      42.276   7.378  12.970  1.00  0.00     0.037 A 
HETATM   10  C12 UNL     1      41.425   8.464  12.962  1.00  0.00     0.068 A 
HETATM   11  C17 UNL     1      41.964   9.688  12.629  1.00  0.00     0.037 A 
HETATM   12  C18 UNL     1      43.310   9.828  12.310  1.00  0.00     0.011 A 
BRANCH  10  13
HETATM   13  O2  UNL     1      40.079   8.340  13.279  1.00  0.00    -0.351 OA
BRANCH  13  14
HETATM   14  C13 UNL     1      39.046   8.886  12.507  1.00  0.00     0.180 C 
BRANCH  14  15
HETATM   15  C14 UNL     1      37.810   9.044  13.364  1.00  0.00     0.010 A 
HETATM   16  C15 UNL     1      36.657   8.099  13.181  1.00  0.00     0.007 A 
HETATM   17  C16 UNL     1      36.573   9.482  12.643  1.00  0.00     0.007 A 
ENDBRANCH  14  15
ENDBRANCH  13  14
ENDBRANCH  10  13
ENDBRANCH   6   7
ENDBRANCH   5   6
BRANCH   1  18
HETATM   18  C4  UNL     1      47.911   7.836  14.593  1.00  0.00     0.040 C 
BRANCH  18  19
HETATM   19  C3  UNL     1      47.750   6.376  14.954  1.00  0.00     0.022 C 
BRANCH  19  20
HETATM   20  C2  UNL     1      46.619   5.802  14.129  1.00  0.00     0.122 C 
BRANCH  20  21
HETATM   21  N3  UNL     1      45.493   5.499  14.980  1.00  0.00    -0.367 N 
HETATM   22  C1  UNL     1      44.653   4.573  14.688  1.00  0.00     0.196 C 
HETATM   23  N1  UNL     1      43.565   4.310  15.548  1.00  0.00    -0.067 NA
HETATM   24  N2  UNL     1      44.834   3.830  13.501  1.00  0.00    -0.067 NA
ATOM     25  H3  UNL     1      45.361   6.036  15.837  1.00  0.00     0.161 HD
ENDBRANCH  20  21
ENDBRANCH  19  20
ENDBRANCH  18  19
ENDBRANCH   1  18
TORSDOF 9
ENDMDL
MODEL 2
REMARK VINA RESULT: -6.959749978      2.249      6.426
REMARK  9 active torsions:
REMARK  status: ('A' for Active; 'I' for Inactive)
REMARK    1  A    between atoms: N3_4  and  C2_6 
REMARK    2  A    between atoms: C2_6  and  C3_7 
REMARK    3  A    between atoms: C3_7  and  C4_8 
REMARK    4  A    between atoms: C4_8  and  C5_9 
REMARK    5  A    between atoms: N4_13  and  C8_14 
REMARK    6  A    between atoms: C8_14  and  C9_15 
REMARK    7  A    between atoms: C12_18  and  O2_19 
REMARK    8  A    between atoms: O2_19  and  C13_20 
REMARK    9  A    between atoms: C13_20  and  C14_21 
ROOT
HETATM    1  C5  UNL     1      42.266   8.765  12.509  1.00  0.00     0.249 C 
HETATM    2  C6  UNL     1      41.321   9.850  12.973  1.00  0.00     0.205 C 
HETATM    3  O1  UNL     1      40.968  10.560  11.804  1.00  0.00    -0.360 OA
HETATM    4  C7  UNL     1      40.990   9.535  10.858  1.00  0.00     0.441 C 
HETATM    5  N4  UNL     1      42.316   8.997  11.079  1.00  0.00     0.122 N 
ENDROOT
BRANCH   5   6
HETATM    6  C8  UNL     1      43.349   9.970  10.862  1.00  0.00     0.314 C 
BRANCH   6   7
HETATM    7  C9  UNL     1      44.681   9.560  11.309  1.00  0.00    -0.030 A 
HETATM    8  C10 UNL     1      45.440   8.700  10.546  1.00  0.00     0.011 A 
HETATM    9  C11 UNL     1      46.712   8.296  10.954  1.00  0.00     0.037 A 
HETATM   10  C12 UNL     1      47.258   8.742  12.140  1.00  0.00     0.068 A 
HETATM   11  C17 UNL     1      46.499   9.602  12.903  1.00  0.00     0.037 A 
HETATM   12  C18 UNL     1      45.231  10.007  12.499  1.00  0.00     0.011 A 
BRANCH  10  13
HETATM   13  O2  UNL     1      48.522   8.347  12.556  1.00  0.00    -0.351 OA
BRANCH  13  14
HETATM   14  C13 UNL     1      48.858   8.098  13.893  1.00  0.00     0.180 C 
BRANCH  14  15
HETATM   15  C14 UNL     1      48.793   6.611  14.157  1.00  0.00     0.010 A 
HETATM   16  C15 UNL     1      47.688   6.059  15.013  1.00  0.00     0.007 A 
HETATM   17  C16 UNL     1      49.061   6.191  15.569  1.00  0.00     0.007 A 
ENDBRANCH  14  15
ENDBRANCH  13  14
ENDBRANCH  10  13
ENDBRANCH   6   7
ENDBRANCH   5   6
BRANCH   1  18
HETATM   18  C4  UNL     1      41.716   7.420  12.884  1.00  0.00     0.040 C 
BRANCH  18  19
HETATM   19  C3  UNL     1      42.650   6.368  12.327  1.00  0.00     0.022 C 
BRANCH  19  20
HETATM   20  C2  UNL     1      43.865   6.285  13.225  1.00  0.00     0.122 C 
BRANCH  20  21
HETATM   21  N3  UNL     1      43.566   5.482  14.386  1.00  0.00    -0.367 N 
HETATM   22  C1  UNL     1      44.039   4.297  14.530  1.00  0.00     0.196 C 
HETATM   23  N1  UNL     1      43.721   3.545  15.682  1.00  0.00    -0.067 NA
HETATM   24  N2  UNL     1      44.874   3.762  13.525  1.00  0.00    -0.067 NA
ATOM     25  H3  UNL     1      42.963   5.866  15.113  1.00  0.00     0.161 HD
ENDBRANCH  20  21
ENDBRANCH  19  20
ENDBRANCH  18  19
ENDBRANCH   1  18
TORSDOF 9
ENDMDL
MODEL 3
REMARK VINA RESULT: -6.868015326      2.892      7.314
REMARK  9 active torsions:
REMARK  status: ('A' for Active; 'I' for Inactive)
REMARK    1  A    between atoms: N3_4  and  C2_6 
REMARK    2  A    between atoms: C2_6  and  C3_7 
REMARK    3  A    between atoms: C3_7  and  C4_8 
REMARK    4  A    between atoms: C4_8  and  C5_9 
REMARK    5  A    between atoms: N4_13  and  C8_14 
REMARK    6  A    between atoms: C8_14  and  C9_15 
REMARK    7  A    between atoms: C12_18  and  O2_19 
REMARK    8  A    between atoms: O2_19  and  C13_20 
REMARK    9  A    between atoms: C13_20  and  C14_21 
ROOT
HETATM    1  C5  UNL     1      41.700   8.758  11.246  1.00  0.00     0.249 C 
HETATM    2  C6  UNL     1      40.192   8.834  11.187  1.00  0.00     0.205 C 
HETATM    3  O1  UNL     1      39.752   8.535  12.496  1.00  0.00    -0.360 OA
HETATM    4  C7  UNL     1      40.792   9.078  13.251  1.00  0.00     0.441 C 
HETATM    5  N4  UNL     1      41.933   8.431  12.640  1.00  0.00     0.122 N 
ENDROOT
BRANCH   5   6
HETATM    6  C8  UNL     1      41.872   7.000  12.735  1.00  0.00     0.314 C 
BRANCH   6   7
HETATM    7  C9  UNL     1      43.071   6.370  13.291  1.00  0.00    -0.030 A 
HETATM    8  C10 UNL     1      44.324   6.793  12.905  1.00  0.00     0.011 A 
HETATM    9  C11 UNL     1      45.480   6.206  13.421  1.00  0.00     0.037 A 
HETATM   10  C12 UNL     1      45.412   5.177  14.339  1.00  0.00     0.068 A 
HETATM   11  C17 UNL     1      44.158   4.755  14.724  1.00  0.00     0.037 A 
HETATM   12  C18 UNL     1      43.004   5.338  14.211  1.00  0.00     0.011 A 
BRANCH  10  13
HETATM   13  O2  UNL     1      46.554   4.586  14.860  1.00  0.00    -0.351 OA
BRANCH  13  14
HETATM   14  C13 UNL     1      47.855   4.922  14.460  1.00  0.00     0.180 C 
BRANCH  14  15
HETATM   15  C14 UNL     1      48.370   6.050  15.324  1.00  0.00     0.010 A 
HETATM   16  C15 UNL     1      48.566   7.413  14.721  1.00  0.00     0.007 A 
HETATM   17  C16 UNL     1      49.743   6.546  14.993  1.00  0.00     0.007 A 
ENDBRANCH  14  15
ENDBRANCH  13  14
ENDBRANCH  10  13
ENDBRANCH   6   7
ENDBRANCH   5   6
BRANCH   1  18
HETATM   18  C4  UNL     1      42.291  10.073  10.829  1.00  0.00     0.040 C 
BRANCH  18  19
HETATM   19  C3  UNL     1      43.123   9.833   9.589  1.00  0.00     0.022 C 
BRANCH  19  20
HETATM   20  C2  UNL     1      44.476   9.310  10.017  1.00  0.00     0.122 C 
BRANCH  20  21
HETATM   21  N3  UNL     1      44.901   9.971  11.228  1.00  0.00    -0.367 N 
HETATM   22  C1  UNL     1      46.034   9.720  11.776  1.00  0.00     0.196 C 
HETATM   23  N1  UNL     1      46.409  10.390  12.961  1.00  0.00    -0.067 NA
HETATM   24  N2  UNL     1      46.891   8.770  11.180  1.00  0.00    -0.067 NA
ATOM     25  H3  UNL     1      44.282  10.658  11.660  1.00  0.00     0.161 HD
ENDBRANCH  20  21
ENDBRANCH  19  20
ENDBRANCH  18  19
ENDBRANCH   1  18
TORSDOF 9
ENDMDL
MODEL 4
REMARK VINA RESULT: -6.801141107      3.628      7.495
REMARK  9 active torsions:
REMARK  status: ('A' for Active; 'I' for Inactive)
REMARK    1  A    between atoms: N3_4  and  C2_6 
REMARK    2  A    between atoms: C2_6  and  C3_7 
REMARK    3  A    between atoms: C3_7  and  C4_8 
REMARK    4  A    between atoms: C4_8  and  C5_9 
REMARK    5  A    between atoms: N4_13  and  C8_14 
REMARK    6  A    between atoms: C8_14  and  C9_15 
REMARK    7  A    between atoms: C12_18  and  O2_19 
REMARK    8  A    between atoms: O2_19  and  C13_20 
REMARK    9  A    between atoms: C13_20  and  C14_21 
ROOT
HETATM    1  C5  UNL     1      41.897   9.739  10.860  1.00  0.00     0.249 C 
HETATM    2  C6  UNL     1      41.395   9.970   9.453  1.00  0.00     0.205 C 
HETATM    3  O1  UNL     1      40.624   8.827   9.141  1.00  0.00    -0.360 OA
HETATM    4  C7  UNL     1      40.097   8.517  10.395  1.00  0.00     0.441 C 
HETATM    5  N4  UNL     1      41.309   8.454  11.186  1.00  0.00     0.122 N 
ENDROOT
BRANCH   5   6
HETATM    6  C8  UNL     1      42.226   7.457  10.710  1.00  0.00     0.314 C 
BRANCH   6   7
HETATM    7  C9  UNL     1      43.128   6.916  11.729  1.00  0.00    -0.030 A 
HETATM    8  C10 UNL     1      42.640   6.113  12.737  1.00  0.00     0.011 A 
HETATM    9  C11 UNL     1      43.481   5.589  13.719  1.00  0.00     0.037 A 
HETATM   10  C12 UNL     1      44.836   5.855  13.718  1.00  0.00     0.068 A 
HETATM   11  C17 UNL     1      45.322   6.658  12.710  1.00  0.00     0.037 A 
HETATM   12  C18 UNL     1      44.486   7.183  11.730  1.00  0.00     0.011 A 
BRANCH  10  13
HETATM   13  O2  UNL     1      45.682   5.339  14.689  1.00  0.00    -0.351 OA
BRANCH  13  14
HETATM   14  C13 UNL     1      47.071   5.239  14.536  1.00  0.00     0.180 C 
BRANCH  14  15
HETATM   15  C14 UNL     1      47.735   6.422  15.202  1.00  0.00     0.010 A 
HETATM   16  C15 UNL     1      48.811   7.175  14.471  1.00  0.00     0.007 A 
HETATM   17  C16 UNL     1      49.176   6.238  15.566  1.00  0.00     0.007 A 
ENDBRANCH  14  15
ENDBRANCH  13  14
ENDBRANCH  10  13
ENDBRANCH   6   7
ENDBRANCH   5   6
BRANCH   1  18
HETATM   18  C4  UNL     1      41.439  10.855  11.752  1.00  0.00     0.040 C 
BRANCH  18  19
HETATM   19  C3  UNL     1      41.549  10.379  13.183  1.00  0.00     0.022 C 
BRANCH  19  20
HETATM   20  C2  UNL     1      40.272  10.743  13.907  1.00  0.00     0.122 C 
BRANCH  20  21
HETATM   21  N3  UNL     1      39.401   9.594  13.980  1.00  0.00    -0.367 N 
HETATM   22  C1  UNL     1      38.286   9.547  13.345  1.00  0.00     0.196 C 
HETATM   23  N1  UNL     1      37.465   8.403  13.446  1.00  0.00    -0.067 NA
HETATM   24  N2  UNL     1      37.899  10.649  12.553  1.00  0.00    -0.067 NA
ATOM     25  H3  UNL     1      39.680   8.797  14.553  1.00  0.00     0.161 HD
ENDBRANCH  20  21
ENDBRANCH  19  20
ENDBRANCH  18  19
ENDBRANCH   1  18
TORSDOF 9
ENDMDL
MODEL 5
REMARK VINA RESULT: -6.670100037      2.661      3.649
REMARK  9 active torsions:
REMARK  status: ('A' for Active; 'I' for Inactive)
REMARK    1  A    between atoms: N3_4  and  C2_6 
REMARK    2  A    between atoms: C2_6  and  C3_7 
REMARK    3  A    between atoms: C3_7  and  C4_8 
REMARK    4  A    between atoms: C4_8  and  C5_9 
REMARK    5  A    between atoms: N4_13  and  C8_14 
REMARK    6  A    between atoms: C8_14  and  C9_15 
REMARK    7  A    between atoms: C12_18  and  O2_19 
REMARK    8  A    between atoms: O2_19  and  C13_20 
REMARK    9  A    between atoms: C13_20  and  C14_21 
ROOT
HETATM    1  C5  UNL     1      47.650   6.472  13.942  1.00  0.00     0.249 C 
HETATM    2  C6  UNL     1      48.987   5.768  13.954  1.00  0.00     0.205 C 
HETATM    3  O1  UNL     1      49.937   6.780  14.220  1.00  0.00    -0.360 OA
HETATM    4  C7  UNL     1      49.197   7.621  15.051  1.00  0.00     0.441 C 
HETATM    5  N4  UNL     1      48.024   7.842  14.232  1.00  0.00     0.122 N 
ENDROOT
BRANCH   5   6
HETATM    6  C8  UNL     1      48.340   8.451  12.971  1.00  0.00     0.314 C 
BRANCH   6   7
HETATM    7  C9  UNL     1      47.179   8.890  12.194  1.00  0.00    -0.030 A 
HETATM    8  C10 UNL     1      46.129   9.533  12.811  1.00  0.00     0.011 A 
HETATM    9  C11 UNL     1      45.012   9.959  12.090  1.00  0.00     0.037 A 
HETATM   10  C12 UNL     1      44.918   9.750  10.729  1.00  0.00     0.068 A 
HETATM   11  C17 UNL     1      45.969   9.106  10.112  1.00  0.00     0.037 A 
HETATM   12  C18 UNL     1      47.082   8.681  10.828  1.00  0.00     0.011 A 
BRANCH  10  13
HETATM   13  O2  UNL     1      43.812  10.169  10.001  1.00  0.00    -0.351 OA
BRANCH  13  14
HETATM   14  C13 UNL     1      42.807   9.305   9.547  1.00  0.00     0.180 C 
BRANCH  14  15
HETATM   15  C14 UNL     1      41.948   8.878  10.716  1.00  0.00     0.010 A 
HETATM   16  C15 UNL     1      41.923   7.433  11.126  1.00  0.00     0.007 A 
HETATM   17  C16 UNL     1      40.776   8.010  10.377  1.00  0.00     0.007 A 
ENDBRANCH  14  15
ENDBRANCH  13  14
ENDBRANCH  10  13
ENDBRANCH   6   7
ENDBRANCH   5   6
BRANCH   1  18
HETATM   18  C4  UNL     1      46.747   5.862  14.974  1.00  0.00     0.040 C 
BRANCH  18  19
HETATM   19  C3  UNL     1      46.555   4.405  14.618  1.00  0.00     0.022 C 
BRANCH  19  20
HETATM   20  C2  UNL     1      45.242   4.263  13.879  1.00  0.00     0.122 C 
BRANCH  20  21
HETATM   21  N3  UNL     1      44.261   3.635  14.731  1.00  0.00    -0.367 N 
HETATM   22  C1  UNL     1      43.091   4.135  14.902  1.00  0.00     0.196 C 
HETATM   23  N1  UNL     1      42.163   3.487  15.745  1.00  0.00    -0.067 NA
HETATM   24  N2  UNL     1      42.752   5.334  14.239  1.00  0.00    -0.067 NA
ATOM     25  H3  UNL     1      44.505   2.768  15.212  1.00  0.00     0.161 HD
ENDBRANCH  20  21
ENDBRANCH  19  20
ENDBRANCH  18  19
ENDBRANCH   1  18
TORSDOF 9
ENDMDL
