MODEL 1
REMARK VINA RESULT: -8.954110612      0.000      0.000
REMARK  14 active torsions:
REMARK  status: ('A' for Active; 'I' for Inactive)
REMARK    1  A    between atoms: C2_2  and  C3_3 
REMARK    2  A    between atoms: C10_10  and  O1_11 
REMARK    3  A    between atoms: O1_11  and  C11_12 
REMARK       I    between atoms: C11_12  and  N1_14 
REMARK    4  A    between atoms: N1_14  and  C12_16 
REMARK    5  A    between atoms: C12_16  and  C14_18 
REMARK    6  A    between atoms: C14_18  and  C15_19 
REMARK    7  A    between atoms: C15_19  and  O3_20 
REMARK    8  A    between atoms: C15_19  and  C16_22 
REMARK       I    between atoms: C16_22  and  N2_24 
REMARK    9  A    between atoms: N2_24  and  C18_26 
REMARK   10  A    between atoms: C18_26  and  C20_28 
REMARK   11  A    between atoms: C20_28  and  N3_30 
REMARK       I    between atoms: N3_30  and  C22_32 
REMARK   12  A    between atoms: C22_32  and  C23_34 
REMARK   13  A    between atoms: C23_34  and  N4_35 
REMARK   14  A    between atoms: C23_34  and  C29_45 
REMARK       I    between atoms: N4_35  and  C24_37 
REMARK       I    between atoms: C24_37  and  N5_39 
ROOT
HETATM    1  C16 UNL     1       9.743  24.093   4.332  1.00  0.00     0.248 C 
HETATM    2  O4  UNL     1       8.544  23.837   4.732  1.00  0.00    -0.270 OA
HETATM    3  N2  UNL     1      10.779  23.663   5.125  1.00  0.00    -0.348 N 
HETATM    4  C17 UNL     1      10.408  22.964   6.386  1.00  0.00     0.153 C 
ENDROOT
BRANCH   3   5
HETATM    5  C18 UNL     1      12.214  23.758   4.939  1.00  0.00     0.105 C 
HETATM    6  C19 UNL     1      12.624  22.687   3.916  1.00  0.00     0.034 C 
BRANCH   5   7
HETATM    7  C20 UNL     1      12.829  23.477   6.280  1.00  0.00     0.103 C 
HETATM    8  C21 UNL     1      13.066  24.791   7.003  1.00  0.00     0.034 C 
BRANCH   7   9
HETATM    9  N3  UNL     1      14.071  22.755   6.272  1.00  0.00    -0.350 N 
HETATM   10  C22 UNL     1      14.298  21.771   7.284  1.00  0.00     0.265 C 
HETATM   11  O5  UNL     1      13.329  21.635   8.086  1.00  0.00    -0.266 OA
ATOM     12  H3  UNL     1      14.776  22.939   5.559  1.00  0.00     0.163 HD
BRANCH  10  13
HETATM   13  C23 UNL     1      15.501  20.953   7.459  1.00  0.00     0.089 C 
BRANCH  13  14
HETATM   14  N4  UNL     1      15.994  20.267   6.331  1.00  0.00    -0.307 N 
HETATM   15  C24 UNL     1      15.450  19.821   5.148  1.00  0.00     0.322 C 
HETATM   16  O6  UNL     1      14.263  19.939   4.794  1.00  0.00    -0.247 OA
HETATM   17  N5  UNL     1      16.283  19.140   4.163  1.00  0.00    -0.330 N 
HETATM   18  C25 UNL     1      15.774  18.718   2.902  1.00  0.00     0.153 C 
HETATM   19  C28 UNL     1      17.657  18.895   4.505  1.00  0.00     0.153 C 
HETATM   20  C26 UNL     1      16.889  18.955   1.895  1.00  0.00     0.187 C 
HETATM   21  O7  UNL     1      18.067  18.332   2.204  1.00  0.00    -0.388 OA
HETATM   22  C27 UNL     1      18.232  17.912   3.499  1.00  0.00     0.187 C 
ATOM     23  H4  UNL     1      16.988  20.051   6.410  1.00  0.00     0.170 HD
ENDBRANCH  13  14
BRANCH  13  24
HETATM   24  C29 UNL     1      16.584  21.555   8.310  1.00  0.00    -0.003 C 
HETATM   25  C30 UNL     1      16.371  23.007   8.549  1.00  0.00     0.021 C 
HETATM   26  C31 UNL     1      16.522  20.884   9.698  1.00  0.00     0.021 C 
HETATM   27  C32 UNL     1      17.959  21.244   7.775  1.00  0.00     0.021 C 
ENDBRANCH  13  24
ENDBRANCH  10  13
ENDBRANCH   7   9
ENDBRANCH   5   7
ENDBRANCH   3   5
BRANCH   1  28
HETATM   28  C15 UNL     1       9.771  24.831   3.046  1.00  0.00     0.212 C 
BRANCH  28  29
HETATM   29  C14 UNL     1       8.452  24.812   2.342  1.00  0.00     0.066 C 
BRANCH  29  30
HETATM   30  C12 UNL     1       7.722  26.101   2.268  1.00  0.00     0.085 C 
HETATM   31  C13 UNL     1       6.532  26.097   1.349  1.00  0.00     0.032 C 
BRANCH  30  32
HETATM   32  N1  UNL     1       7.190  26.366   3.610  1.00  0.00    -0.333 N 
HETATM   33  C11 UNL     1       7.498  27.530   4.349  1.00  0.00     0.361 C 
HETATM   34  O2  UNL     1       8.253  28.442   3.934  1.00  0.00    -0.238 OA
ATOM     35  H1  UNL     1       6.568  25.675   4.030  1.00  0.00     0.165 HD
BRANCH  33  36
HETATM   36  O1  UNL     1       6.940  27.679   5.590  1.00  0.00    -0.298 OA
BRANCH  36  37
HETATM   37  C10 UNL     1       7.637  27.768   6.816  1.00  0.00     0.138 C 
HETATM   38  C3  UNL     1       6.835  28.466   7.907  1.00  0.00     0.015 C 
HETATM   39  C4  UNL     1       7.792  28.636   9.061  1.00  0.00     0.008 C 
HETATM   40  C5  UNL     1       8.243  27.347   9.623  1.00  0.00     0.009 C 
HETATM   41  C6  UNL     1       8.669  26.309   8.625  1.00  0.00    -0.045 C 
HETATM   42  C7  UNL     1      10.191  26.478   8.506  1.00  0.00     0.015 C 
HETATM   43  C8  UNL     1       8.467  24.928   9.231  1.00  0.00     0.015 C 
HETATM   44  C9  UNL     1       8.119  26.419   7.274  1.00  0.00     0.041 C 
BRANCH  38  45
HETATM   45  C2  UNL     1       6.399  29.824   7.399  1.00  0.00     0.002 C 
HETATM   46  C1  UNL     1       4.877  29.871   7.484  1.00  0.00     0.005 C 
ENDBRANCH  38  45
ENDBRANCH  36  37
ENDBRANCH  33  36
ENDBRANCH  30  32
ENDBRANCH  29  30
ENDBRANCH  28  29
BRANCH  28  47
HETATM   47  O3  UNL     1      10.315  26.076   3.088  1.00  0.00    -0.386 OA
ATOM     48  H3  UNL     1      11.203  26.093   2.751  1.00  0.00     0.210 HD
ENDBRANCH  28  47
ENDBRANCH   1  28
TORSDOF 14
ENDMDL
MODEL 2
REMARK VINA RESULT: -8.901576651      2.564     10.046
REMARK  14 active torsions:
REMARK  status: ('A' for Active; 'I' for Inactive)
REMARK    1  A    between atoms: C2_2  and  C3_3 
REMARK    2  A    between atoms: C10_10  and  O1_11 
REMARK    3  A    between atoms: O1_11  and  C11_12 
REMARK       I    between atoms: C11_12  and  N1_14 
REMARK    4  A    between atoms: N1_14  and  C12_16 
REMARK    5  A    between atoms: C12_16  and  C14_18 
REMARK    6  A    between atoms: C14_18  and  C15_19 
REMARK    7  A    between atoms: C15_19  and  O3_20 
REMARK    8  A    between atoms: C15_19  and  C16_22 
REMARK       I    between atoms: C16_22  and  N2_24 
REMARK    9  A    between atoms: N2_24  and  C18_26 
REMARK   10  A    between atoms: C18_26  and  C20_28 
REMARK   11  A    between atoms: C20_28  and  N3_30 
REMARK       I    between atoms: N3_30  and  C22_32 
REMARK   12  A    between atoms: C22_32  and  C23_34 
REMARK   13  A    between atoms: C23_34  and  N4_35 
REMARK   14  A    between atoms: C23_34  and  C29_45 
REMARK       I    between atoms: N4_35  and  C24_37 
REMARK       I    between atoms: C24_37  and  N5_39 
ROOT
HETATM    1  C16 UNL     1      10.441  25.898   7.172  1.00  0.00     0.248 C 
HETATM    2  O4  UNL     1      11.644  25.931   6.711  1.00  0.00    -0.270 OA
HETATM    3  N2  UNL     1      10.243  26.346   8.456  1.00  0.00    -0.348 N 
HETATM    4  C17 UNL     1      11.451  26.802   9.197  1.00  0.00     0.153 C 
ENDROOT
BRANCH   3   5
HETATM    5  C18 UNL     1       9.028  26.473   9.236  1.00  0.00     0.105 C 
HETATM    6  C19 UNL     1       8.117  25.288   8.880  1.00  0.00     0.034 C 
BRANCH   5   7
HETATM    7  C20 UNL     1       8.398  27.772   8.822  1.00  0.00     0.103 C 
HETATM    8  C21 UNL     1       8.194  28.640  10.051  1.00  0.00     0.034 C 
BRANCH   7   9
HETATM    9  N3  UNL     1       7.138  27.680   8.139  1.00  0.00    -0.350 N 
HETATM   10  C22 UNL     1       6.849  28.621   7.103  1.00  0.00     0.265 C 
HETATM   11  O5  UNL     1       7.786  29.442   6.888  1.00  0.00    -0.266 OA
ATOM     12  H3  UNL     1       6.462  26.958   8.389  1.00  0.00     0.163 HD
BRANCH  10  13
HETATM   13  C23 UNL     1       5.618  28.706   6.313  1.00  0.00     0.089 C 
BRANCH  13  14
HETATM   14  N4  UNL     1       5.476  27.820   5.226  1.00  0.00    -0.307 N 
HETATM   15  C24 UNL     1       6.195  27.561   4.081  1.00  0.00     0.322 C 
HETATM   16  O6  UNL     1       7.240  28.133   3.723  1.00  0.00    -0.247 OA
HETATM   17  N5  UNL     1       5.754  26.527   3.151  1.00  0.00    -0.330 N 
HETATM   18  C25 UNL     1       6.501  26.185   1.988  1.00  0.00     0.153 C 
HETATM   19  C28 UNL     1       4.519  25.851   3.440  1.00  0.00     0.153 C 
HETATM   20  C26 UNL     1       6.374  24.677   1.832  1.00  0.00     0.187 C 
HETATM   21  O7  UNL     1       5.085  24.225   1.761  1.00  0.00    -0.388 OA
HETATM   22  C27 UNL     1       4.101  25.071   2.205  1.00  0.00     0.187 C 
ATOM     23  H4  UNL     1       4.646  27.232   5.307  1.00  0.00     0.170 HD
ENDBRANCH  13  14
BRANCH  13  24
HETATM   24  C29 UNL     1       4.349  28.894   7.096  1.00  0.00    -0.003 C 
HETATM   25  C30 UNL     1       4.528  29.824   8.243  1.00  0.00     0.021 C 
HETATM   26  C31 UNL     1       3.314  29.562   6.167  1.00  0.00     0.021 C 
HETATM   27  C32 UNL     1       3.734  27.578   7.499  1.00  0.00     0.021 C 
ENDBRANCH  13  24
ENDBRANCH  10  13
ENDBRANCH   7   9
ENDBRANCH   5   7
ENDBRANCH   3   5
BRANCH   1  28
HETATM   28  C15 UNL     1       9.467  25.361   6.191  1.00  0.00     0.212 C 
BRANCH  28  29
HETATM   29  C14 UNL     1       9.716  25.857   4.802  1.00  0.00     0.066 C 
BRANCH  29  30
HETATM   30  C12 UNL     1      10.135  24.845   3.803  1.00  0.00     0.085 C 
HETATM   31  C13 UNL     1      10.006  25.284   2.370  1.00  0.00     0.032 C 
BRANCH  30  32
HETATM   32  N1  UNL     1      11.567  24.601   4.019  1.00  0.00    -0.333 N 
HETATM   33  C11 UNL     1      12.085  23.359   4.449  1.00  0.00     0.361 C 
HETATM   34  O2  UNL     1      11.377  22.352   4.690  1.00  0.00    -0.238 OA
ATOM     35  H1  UNL     1      12.219  25.367   3.850  1.00  0.00     0.165 HD
BRANCH  33  36
HETATM   36  O1  UNL     1      13.439  23.241   4.611  1.00  0.00    -0.298 OA
BRANCH  36  37
HETATM   37  C10 UNL     1      14.103  22.352   5.486  1.00  0.00     0.138 C 
HETATM   38  C3  UNL     1      15.271  21.630   4.826  1.00  0.00     0.015 C 
HETATM   39  C4  UNL     1      15.728  20.602   5.833  1.00  0.00     0.008 C 
HETATM   40  C5  UNL     1      16.249  21.212   7.073  1.00  0.00     0.009 C 
HETATM   41  C6  UNL     1      15.419  22.317   7.661  1.00  0.00    -0.045 C 
HETATM   42  C7  UNL     1      14.525  21.625   8.701  1.00  0.00     0.015 C 
HETATM   43  C8  UNL     1      16.323  23.241   8.463  1.00  0.00     0.015 C 
HETATM   44  C9  UNL     1      14.534  23.042   6.750  1.00  0.00     0.041 C 
BRANCH  38  45
HETATM   45  C2  UNL     1      14.773  20.935   3.577  1.00  0.00     0.002 C 
HETATM   46  C1  UNL     1      15.591  19.659   3.411  1.00  0.00     0.005 C 
ENDBRANCH  38  45
ENDBRANCH  36  37
ENDBRANCH  33  36
ENDBRANCH  30  32
ENDBRANCH  29  30
ENDBRANCH  28  29
BRANCH  28  47
HETATM   47  O3  UNL     1       9.264  24.017   6.230  1.00  0.00    -0.386 OA
ATOM     48  H3  UNL     1       8.929  23.728   7.071  1.00  0.00     0.210 HD
ENDBRANCH  28  47
ENDBRANCH   1  28
TORSDOF 14
ENDMDL
MODEL 3
REMARK VINA RESULT: -8.805563010      1.312      1.783
REMARK  14 active torsions:
REMARK  status: ('A' for Active; 'I' for Inactive)
REMARK    1  A    between atoms: C2_2  and  C3_3 
REMARK    2  A    between atoms: C10_10  and  O1_11 
REMARK    3  A    between atoms: O1_11  and  C11_12 
REMARK       I    between atoms: C11_12  and  N1_14 
REMARK    4  A    between atoms: N1_14  and  C12_16 
REMARK    5  A    between atoms: C12_16  and  C14_18 
REMARK    6  A    between atoms: C14_18  and  C15_19 
REMARK    7  A    between atoms: C15_19  and  O3_20 
REMARK    8  A    between atoms: C15_19  and  C16_22 
REMARK       I    between atoms: C16_22  and  N2_24 
REMARK    9  A    between atoms: N2_24  and  C18_26 
REMARK   10  A    between atoms: C18_26  and  C20_28 
REMARK   11  A    between atoms: C20_28  and  N3_30 
REMARK       I    between atoms: N3_30  and  C22_32 
REMARK   12  A    between atoms: C22_32  and  C23_34 
REMARK   13  A    between atoms: C23_34  and  N4_35 
REMARK   14  A    between atoms: C23_34  and  C29_45 
REMARK       I    between atoms: N4_35  and  C24_37 
REMARK       I    between atoms: C24_37  and  N5_39 
ROOT
HETATM    1  C16 UNL     1      10.054  25.453   4.897  1.00  0.00     0.248 C 
HETATM    2  O4  UNL     1      10.228  26.716   5.090  1.00  0.00    -0.270 OA
HETATM    3  N2  UNL     1      10.504  24.597   5.873  1.00  0.00    -0.348 N 
HETATM    4  C17 UNL     1      11.174  25.217   7.049  1.00  0.00     0.153 C 
ENDROOT
BRANCH   3   5
HETATM    5  C18 UNL     1      10.425  23.152   5.973  1.00  0.00     0.105 C 
HETATM    6  C19 UNL     1      10.593  22.775   7.453  1.00  0.00     0.034 C 
BRANCH   5   7
HETATM    7  C20 UNL     1      11.563  22.614   5.154  1.00  0.00     0.103 C 
HETATM    8  C21 UNL     1      11.010  21.987   3.885  1.00  0.00     0.034 C 
BRANCH   7   9
HETATM    9  N3  UNL     1      12.400  21.637   5.792  1.00  0.00    -0.350 N 
HETATM   10  C22 UNL     1      13.731  22.010   6.160  1.00  0.00     0.265 C 
HETATM   11  O5  UNL     1      14.014  23.211   5.887  1.00  0.00    -0.266 OA
ATOM     12  H3  UNL     1      12.053  20.696   5.979  1.00  0.00     0.163 HD
BRANCH  10  13
HETATM   13  C23 UNL     1      14.738  21.155   6.793  1.00  0.00     0.089 C 
BRANCH  13  14
HETATM   14  N4  UNL     1      15.529  20.345   5.954  1.00  0.00    -0.307 N 
HETATM   15  C24 UNL     1      15.344  19.734   4.735  1.00  0.00     0.322 C 
HETATM   16  O6  UNL     1      14.309  19.769   4.044  1.00  0.00    -0.247 OA
HETATM   17  N5  UNL     1      16.419  18.958   4.126  1.00  0.00    -0.330 N 
HETATM   18  C25 UNL     1      16.290  18.362   2.840  1.00  0.00     0.153 C 
HETATM   19  C28 UNL     1      17.635  18.801   4.876  1.00  0.00     0.153 C 
HETATM   20  C26 UNL     1      17.649  18.501   2.171  1.00  0.00     0.187 C 
HETATM   21  O7  UNL     1      18.684  17.960   2.882  1.00  0.00    -0.388 OA
HETATM   22  C27 UNL     1      18.467  17.715   4.214  1.00  0.00     0.187 C 
ATOM     23  H4  UNL     1      16.457  20.171   6.341  1.00  0.00     0.170 HD
ENDBRANCH  13  14
BRANCH  13  24
HETATM   24  C29 UNL     1      15.514  21.780   7.920  1.00  0.00    -0.003 C 
HETATM   25  C30 UNL     1      14.714  21.875   9.169  1.00  0.00     0.021 C 
HETATM   26  C31 UNL     1      16.702  20.853   8.247  1.00  0.00     0.021 C 
HETATM   27  C32 UNL     1      16.131  23.096   7.516  1.00  0.00     0.021 C 
ENDBRANCH  13  24
ENDBRANCH  10  13
ENDBRANCH   7   9
ENDBRANCH   5   7
ENDBRANCH   3   5
BRANCH   1  28
HETATM   28  C15 UNL     1       9.379  25.159   3.610  1.00  0.00     0.212 C 
BRANCH  28  29
HETATM   29  C14 UNL     1       8.031  24.538   3.795  1.00  0.00     0.066 C 
BRANCH  29  30
HETATM   30  C12 UNL     1       6.881  25.264   3.204  1.00  0.00     0.085 C 
HETATM   31  C13 UNL     1       5.737  24.387   2.776  1.00  0.00     0.032 C 
BRANCH  30  32
HETATM   32  N1  UNL     1       6.344  26.137   4.255  1.00  0.00    -0.333 N 
HETATM   33  C11 UNL     1       6.620  27.521   4.328  1.00  0.00     0.361 C 
HETATM   34  O2  UNL     1       7.349  28.132   3.510  1.00  0.00    -0.238 OA
ATOM     35  H1  UNL     1       5.742  25.725   4.967  1.00  0.00     0.165 HD
BRANCH  33  36
HETATM   36  O1  UNL     1       6.060  28.243   5.348  1.00  0.00    -0.298 OA
BRANCH  36  37
HETATM   37  C10 UNL     1       6.690  28.610   6.557  1.00  0.00     0.138 C 
HETATM   38  C3  UNL     1       5.707  29.082   7.620  1.00  0.00     0.015 C 
HETATM   39  C4  UNL     1       6.559  29.605   8.752  1.00  0.00     0.008 C 
HETATM   40  C5  UNL     1       7.387  28.552   9.374  1.00  0.00     0.009 C 
HETATM   41  C6  UNL     1       8.118  27.645   8.426  1.00  0.00    -0.045 C 
HETATM   42  C7  UNL     1       9.512  28.273   8.278  1.00  0.00     0.015 C 
HETATM   43  C8  UNL     1       8.355  26.305   9.107  1.00  0.00     0.015 C 
HETATM   44  C9  UNL     1       7.567  27.506   7.079  1.00  0.00     0.041 C 
BRANCH  38  45
HETATM   45  C2  UNL     1       4.871  30.207   7.048  1.00  0.00     0.002 C 
HETATM   46  C1  UNL     1       3.407  29.827   7.241  1.00  0.00     0.005 C 
ENDBRANCH  38  45
ENDBRANCH  36  37
ENDBRANCH  33  36
ENDBRANCH  30  32
ENDBRANCH  29  30
ENDBRANCH  28  29
BRANCH  28  47
HETATM   47  O3  UNL     1       9.360  26.173   2.705  1.00  0.00    -0.386 OA
ATOM     48  H3  UNL     1      10.072  26.788   2.837  1.00  0.00     0.210 HD
ENDBRANCH  28  47
ENDBRANCH   1  28
TORSDOF 14
ENDMDL
MODEL 4
REMARK VINA RESULT: -8.698026905      2.244     12.018
REMARK  14 active torsions:
REMARK  status: ('A' for Active; 'I' for Inactive)
REMARK    1  A    between atoms: C2_2  and  C3_3 
REMARK    2  A    between atoms: C10_10  and  O1_11 
REMARK    3  A    between atoms: O1_11  and  C11_12 
REMARK       I    between atoms: C11_12  and  N1_14 
REMARK    4  A    between atoms: N1_14  and  C12_16 
REMARK    5  A    between atoms: C12_16  and  C14_18 
REMARK    6  A    between atoms: C14_18  and  C15_19 
REMARK    7  A    between atoms: C15_19  and  O3_20 
REMARK    8  A    between atoms: C15_19  and  C16_22 
REMARK       I    between atoms: C16_22  and  N2_24 
REMARK    9  A    between atoms: N2_24  and  C18_26 
REMARK   10  A    between atoms: C18_26  and  C20_28 
REMARK   11  A    between atoms: C20_28  and  N3_30 
REMARK       I    between atoms: N3_30  and  C22_32 
REMARK   12  A    between atoms: C22_32  and  C23_34 
REMARK   13  A    between atoms: C23_34  and  N4_35 
REMARK   14  A    between atoms: C23_34  and  C29_45 
REMARK       I    between atoms: N4_35  and  C24_37 
REMARK       I    between atoms: C24_37  and  N5_39 
ROOT
HETATM    1  C16 UNL     1      14.633  22.788   6.878  1.00  0.00     0.248 C 
HETATM    2  O4  UNL     1      15.558  22.646   5.991  1.00  0.00    -0.270 OA
HETATM    3  N2  UNL     1      13.351  22.994   6.427  1.00  0.00    -0.348 N 
HETATM    4  C17 UNL     1      13.165  23.059   4.951  1.00  0.00     0.153 C 
ENDROOT
BRANCH   3   5
HETATM    5  C18 UNL     1      12.106  23.147   7.154  1.00  0.00     0.105 C 
HETATM    6  C19 UNL     1      11.224  21.931   6.834  1.00  0.00     0.034 C 
BRANCH   5   7
HETATM    7  C20 UNL     1      11.476  24.411   6.644  1.00  0.00     0.103 C 
HETATM    8  C21 UNL     1      11.579  25.485   7.714  1.00  0.00     0.034 C 
BRANCH   7   9
HETATM    9  N3  UNL     1      10.099  24.321   6.249  1.00  0.00    -0.350 N 
HETATM   10  C22 UNL     1       9.689  24.968   5.041  1.00  0.00     0.265 C 
HETATM   11  O5  UNL     1      10.632  25.547   4.430  1.00  0.00    -0.266 OA
ATOM     12  H3  UNL     1       9.426  23.807   6.817  1.00  0.00     0.163 HD
BRANCH  10  13
HETATM   13  C23 UNL     1       8.334  25.012   4.485  1.00  0.00     0.089 C 
BRANCH  13  14
HETATM   14  N4  UNL     1       7.454  25.994   4.984  1.00  0.00    -0.307 N 
HETATM   15  C24 UNL     1       7.268  26.605   6.203  1.00  0.00     0.322 C 
HETATM   16  O6  UNL     1       7.911  26.381   7.245  1.00  0.00    -0.247 OA
HETATM   17  N5  UNL     1       6.241  27.628   6.367  1.00  0.00    -0.330 N 
HETATM   18  C25 UNL     1       6.056  28.328   7.593  1.00  0.00     0.153 C 
HETATM   19  C28 UNL     1       5.397  27.913   5.239  1.00  0.00     0.153 C 
HETATM   20  C26 UNL     1       5.707  29.759   7.214  1.00  0.00     0.187 C 
HETATM   21  O7  UNL     1       4.620  29.875   6.392  1.00  0.00    -0.388 OA
HETATM   22  C27 UNL     1       4.222  28.748   5.720  1.00  0.00     0.187 C 
ATOM     23  H4  UNL     1       6.803  26.331   4.274  1.00  0.00     0.170 HD
ENDBRANCH  13  14
BRANCH  13  24
HETATM   24  C29 UNL     1       8.229  24.819   2.998  1.00  0.00    -0.003 C 
HETATM   25  C30 UNL     1       8.989  23.630   2.529  1.00  0.00     0.021 C 
HETATM   26  C31 UNL     1       6.750  24.536   2.661  1.00  0.00     0.021 C 
HETATM   27  C32 UNL     1       8.579  26.075   2.241  1.00  0.00     0.021 C 
ENDBRANCH  13  24
ENDBRANCH  10  13
ENDBRANCH   7   9
ENDBRANCH   5   7
ENDBRANCH   3   5
BRANCH   1  28
HETATM   28  C15 UNL     1      15.151  22.700   8.264  1.00  0.00     0.212 C 
BRANCH  28  29
HETATM   29  C14 UNL     1      14.857  21.382   8.906  1.00  0.00     0.066 C 
BRANCH  29  30
HETATM   30  C12 UNL     1      16.005  20.460   9.082  1.00  0.00     0.085 C 
HETATM   31  C13 UNL     1      15.735  19.282   9.977  1.00  0.00     0.032 C 
BRANCH  30  32
HETATM   32  N1  UNL     1      16.306  19.898   7.760  1.00  0.00    -0.333 N 
HETATM   33  C11 UNL     1      17.521  20.129   7.078  1.00  0.00     0.361 C 
HETATM   34  O2  UNL     1      18.454  20.837   7.531  1.00  0.00    -0.238 OA
ATOM     35  H1  UNL     1      15.603  19.310   7.312  1.00  0.00     0.165 HD
BRANCH  33  36
HETATM   36  O1  UNL     1      17.699  19.548   5.851  1.00  0.00    -0.298 OA
BRANCH  36  37
HETATM   37  C10 UNL     1      17.894  18.172   5.597  1.00  0.00     0.138 C 
HETATM   38  C3  UNL     1      18.413  17.895   4.192  1.00  0.00     0.015 C 
HETATM   39  C4  UNL     1      18.377  16.393   4.040  1.00  0.00     0.008 C 
HETATM   40  C5  UNL     1      19.290  15.705   4.976  1.00  0.00     0.009 C 
HETATM   41  C6  UNL     1      19.248  16.176   6.400  1.00  0.00    -0.045 C 
HETATM   42  C7  UNL     1      18.259  15.231   7.099  1.00  0.00     0.015 C 
HETATM   43  C8  UNL     1      20.595  15.898   7.053  1.00  0.00     0.015 C 
HETATM   44  C9  UNL     1      18.776  17.540   6.637  1.00  0.00     0.041 C 
BRANCH  38  45
HETATM   45  C2  UNL     1      17.475  18.532   3.190  1.00  0.00     0.002 C 
HETATM   46  C1  UNL     1      17.314  17.552   2.033  1.00  0.00     0.005 C 
ENDBRANCH  38  45
ENDBRANCH  36  37
ENDBRANCH  33  36
ENDBRANCH  30  32
ENDBRANCH  29  30
ENDBRANCH  28  29
BRANCH  28  47
HETATM   47  O3  UNL     1      16.444  23.082   8.440  1.00  0.00    -0.386 OA
ATOM     48  H3  UNL     1      16.745  23.662   7.750  1.00  0.00     0.210 HD
ENDBRANCH  28  47
ENDBRANCH   1  28
TORSDOF 14
ENDMDL
MODEL 5
REMARK VINA RESULT: -8.656251025      2.064     10.174
REMARK  14 active torsions:
REMARK  status: ('A' for Active; 'I' for Inactive)
REMARK    1  A    between atoms: C2_2  and  C3_3 
REMARK    2  A    between atoms: C10_10  and  O1_11 
REMARK    3  A    between atoms: O1_11  and  C11_12 
REMARK       I    between atoms: C11_12  and  N1_14 
REMARK    4  A    between atoms: N1_14  and  C12_16 
REMARK    5  A    between atoms: C12_16  and  C14_18 
REMARK    6  A    between atoms: C14_18  and  C15_19 
REMARK    7  A    between atoms: C15_19  and  O3_20 
REMARK    8  A    between atoms: C15_19  and  C16_22 
REMARK       I    between atoms: C16_22  and  N2_24 
REMARK    9  A    between atoms: N2_24  and  C18_26 
REMARK   10  A    between atoms: C18_26  and  C20_28 
REMARK   11  A    between atoms: C20_28  and  N3_30 
REMARK       I    between atoms: N3_30  and  C22_32 
REMARK   12  A    between atoms: C22_32  and  C23_34 
REMARK   13  A    between atoms: C23_34  and  N4_35 
REMARK   14  A    between atoms: C23_34  and  C29_45 
REMARK       I    between atoms: N4_35  and  C24_37 
REMARK       I    between atoms: C24_37  and  N5_39 
ROOT
HETATM    1  C16 UNL     1      14.133  21.958   4.226  1.00  0.00     0.248 C 
HETATM    2  O4  UNL     1      15.262  22.534   3.988  1.00  0.00    -0.270 OA
HETATM    3  N2  UNL     1      13.073  22.763   4.566  1.00  0.00    -0.348 N 
HETATM    4  C17 UNL     1      13.345  24.225   4.651  1.00  0.00     0.153 C 
ENDROOT
BRANCH   3   5
HETATM    5  C18 UNL     1      11.690  22.434   4.850  1.00  0.00     0.105 C 
HETATM    6  C19 UNL     1      10.837  22.951   3.680  1.00  0.00     0.034 C 
BRANCH   5   7
HETATM    7  C20 UNL     1      11.341  23.153   6.121  1.00  0.00     0.103 C 
HETATM    8  C21 UNL     1      11.252  22.145   7.253  1.00  0.00     0.034 C 
BRANCH   7   9
HETATM    9  N3  UNL     1      10.118  23.906   6.112  1.00  0.00    -0.350 N 
HETATM   10  C22 UNL     1      10.104  25.199   6.722  1.00  0.00     0.265 C 
HETATM   11  O5  UNL     1      11.222  25.547   7.198  1.00  0.00    -0.266 OA
ATOM     12  H3  UNL     1       9.276  23.526   5.679  1.00  0.00     0.163 HD
BRANCH  10  13
HETATM   13  C23 UNL     1       8.957  26.103   6.836  1.00  0.00     0.089 C 
BRANCH  13  14
HETATM   14  N4  UNL     1       7.983  26.056   5.818  1.00  0.00    -0.307 N 
HETATM   15  C24 UNL     1       8.014  26.017   4.443  1.00  0.00     0.322 C 
HETATM   16  O6  UNL     1       9.034  26.026   3.729  1.00  0.00    -0.247 OA
HETATM   17  N5  UNL     1       6.774  25.952   3.678  1.00  0.00    -0.330 N 
HETATM   18  C25 UNL     1       6.763  25.848   2.258  1.00  0.00     0.153 C 
HETATM   19  C28 UNL     1       5.537  26.004   4.407  1.00  0.00     0.153 C 
HETATM   20  C26 UNL     1       5.606  24.923   1.911  1.00  0.00     0.187 C 
HETATM   21  O7  UNL     1       4.396  25.327   2.402  1.00  0.00    -0.388 OA
HETATM   22  C27 UNL     1       4.409  26.248   3.419  1.00  0.00     0.187 C 
ATOM     23  H4  UNL     1       7.033  26.048   6.188  1.00  0.00     0.170 HD
ENDBRANCH  13  14
BRANCH  13  24
HETATM   24  C29 UNL     1       8.372  26.249   8.213  1.00  0.00    -0.003 C 
HETATM   25  C30 UNL     1       9.092  27.263   9.027  1.00  0.00     0.021 C 
HETATM   26  C31 UNL     1       6.930  26.775   8.061  1.00  0.00     0.021 C 
HETATM   27  C32 UNL     1       8.241  24.919   8.913  1.00  0.00     0.021 C 
ENDBRANCH  13  24
ENDBRANCH  10  13
ENDBRANCH   7   9
ENDBRANCH   5   7
ENDBRANCH   3   5
BRANCH   1  28
HETATM   28  C15 UNL     1      14.202  20.484   4.083  1.00  0.00     0.212 C 
BRANCH  28  29
HETATM   29  C14 UNL     1      15.333  20.041   3.211  1.00  0.00     0.066 C 
BRANCH  29  30
HETATM   30  C12 UNL     1      16.324  19.125   3.826  1.00  0.00     0.085 C 
HETATM   31  C13 UNL     1      17.497  18.787   2.948  1.00  0.00     0.032 C 
BRANCH  30  32
HETATM   32  N1  UNL     1      16.884  19.823   4.990  1.00  0.00    -0.333 N 
HETATM   33  C11 UNL     1      17.683  19.185   5.965  1.00  0.00     0.361 C 
HETATM   34  O2  UNL     1      17.986  17.968   5.934  1.00  0.00    -0.238 OA
ATOM     35  H1  UNL     1      16.686  20.818   5.099  1.00  0.00     0.165 HD
BRANCH  33  36
HETATM   36  O1  UNL     1      18.159  19.935   7.007  1.00  0.00    -0.298 OA
BRANCH  36  37
HETATM   37  C10 UNL     1      17.522  20.140   8.251  1.00  0.00     0.138 C 
HETATM   38  C3  UNL     1      16.143  20.773   8.116  1.00  0.00     0.015 C 
HETATM   39  C4  UNL     1      15.706  21.086   9.527  1.00  0.00     0.008 C 
HETATM   40  C5  UNL     1      15.540  19.874  10.354  1.00  0.00     0.009 C 
HETATM   41  C6  UNL     1      16.646  18.862  10.268  1.00  0.00    -0.045 C 
HETATM   42  C7  UNL     1      17.581  19.201  11.438  1.00  0.00     0.015 C 
HETATM   43  C8  UNL     1      16.084  17.485  10.591  1.00  0.00     0.015 C 
HETATM   44  C9  UNL     1      17.461  18.869   9.053  1.00  0.00     0.041 C 
BRANCH  38  45
HETATM   45  C2  UNL     1      16.271  22.056   7.324  1.00  0.00     0.002 C 
HETATM   46  C1  UNL     1      15.060  22.920   7.663  1.00  0.00     0.005 C 
ENDBRANCH  38  45
ENDBRANCH  36  37
ENDBRANCH  33  36
ENDBRANCH  30  32
ENDBRANCH  29  30
ENDBRANCH  28  29
BRANCH  28  47
HETATM   47  O3  UNL     1      14.133  19.771   5.239  1.00  0.00    -0.386 OA
ATOM     48  H3  UNL     1      13.514  20.145   5.856  1.00  0.00     0.210 HD
ENDBRANCH  28  47
ENDBRANCH   1  28
TORSDOF 14
ENDMDL
