MODEL 1
REMARK VINA RESULT: -8.137450894      0.000      0.000
REMARK  16 active torsions:
REMARK  status: ('A' for Active; 'I' for Inactive)
REMARK    1  A    between atoms: C2_2  and  C3_3 
REMARK    2  A    between atoms: C3_3  and  C4_4 
REMARK    3  A    between atoms: C3_3  and  C6_6 
REMARK    4  A    between atoms: C3_3  and  C28_36 
REMARK    5  A    between atoms: C6_6  and  C7_7 
REMARK       I    between atoms: C7_7  and  N1_9 
REMARK    6  A    between atoms: N2_12  and  C10_13 
REMARK    7  A    between atoms: C10_13  and  O2_14 
REMARK    8  A    between atoms: C10_13  and  C11_16 
REMARK    9  A    between atoms: C11_16  and  N3_17 
REMARK   10  A    between atoms: C11_16  and  C17_25 
REMARK       I    between atoms: N3_17  and  C12_18 
REMARK   11  A    between atoms: C12_18  and  O4_20 
REMARK   12  A    between atoms: O4_20  and  C13_21 
REMARK       I    between atoms: C28_36  and  N4_38 
REMARK   13  A    between atoms: N4_38  and  C29_40 
REMARK   14  A    between atoms: C29_40  and  C30_41 
REMARK   15  A    between atoms: C30_41  and  S1_42 
REMARK   16  A    between atoms: S1_42  and  N5_43 
ROOT
HETATM    1  C7  UNL     1      11.765  21.865   4.150  1.00  0.00     0.224 C 
HETATM    2  O1  UNL     1      11.887  21.376   3.017  1.00  0.00    -0.273 OA
HETATM    3  N1  UNL     1      10.780  22.910   4.332  1.00  0.00    -0.328 N 
HETATM    4  C8  UNL     1      10.006  23.316   3.190  1.00  0.00     0.151 C 
HETATM    5  C9  UNL     1       9.729  24.757   3.114  1.00  0.00     0.146 C 
HETATM    6  N2  UNL     1       9.348  25.374   4.434  1.00  0.00    -0.347 N 
HETATM    7  C21 UNL     1      10.073  24.934   5.578  1.00  0.00     0.066 C 
HETATM    8  C22 UNL     1      11.318  25.847   5.621  1.00  0.00     0.037 C 
HETATM    9  C23 UNL     1      12.141  25.714   6.846  1.00  0.00     0.003 C 
HETATM   10  C24 UNL     1      11.295  25.837   8.083  1.00  0.00     0.000 C 
HETATM   11  C25 UNL     1      10.228  24.790   8.063  1.00  0.00     0.003 C 
HETATM   12  C26 UNL     1       9.291  25.003   6.877  1.00  0.00     0.037 C 
HETATM   13  C27 UNL     1      10.544  23.499   5.573  1.00  0.00     0.098 C 
ENDROOT
BRANCH   1  14
HETATM   14  C6  UNL     1      12.564  21.418   5.276  1.00  0.00     0.122 C 
BRANCH  14  15
HETATM   15  C3  UNL     1      13.964  21.944   5.342  1.00  0.00     0.049 C 
BRANCH  15  16
HETATM   16  C2  UNL     1      14.394  22.853   4.252  1.00  0.00     0.015 C 
HETATM   17  C1  UNL     1      14.986  24.160   4.689  1.00  0.00     0.006 C 
ENDBRANCH  15  16
BRANCH  15  18
HETATM   18  C4  UNL     1      14.156  22.646   6.669  1.00  0.00     0.015 C 
HETATM   19  C5  UNL     1      13.148  22.223   7.717  1.00  0.00     0.006 C 
ENDBRANCH  15  18
BRANCH  15  20
HETATM   20  C28 UNL     1      14.916  20.746   5.442  1.00  0.00     0.230 C 
HETATM   21  O5  UNL     1      14.467  19.668   5.076  1.00  0.00    -0.272 OA
HETATM   22  N4  UNL     1      16.212  20.934   5.935  1.00  0.00    -0.336 N 
ATOM     23  H4  UNL     1      16.449  21.883   6.223  1.00  0.00     0.168 HD
BRANCH  22  24
HETATM   24  C29 UNL     1      17.222  19.977   6.081  1.00  0.00     0.104 C 
BRANCH  24  25
HETATM   25  C30 UNL     1      18.154  19.506   5.078  1.00  0.00     0.148 C 
BRANCH  25  26
HETATM   26  S1  UNL     1      17.880  18.176   4.005  1.00  0.00     0.247 S 
HETATM   27  O6  UNL     1      18.025  18.618   2.537  1.00  0.00    -0.202 OA
HETATM   28  O7  UNL     1      18.929  17.086   4.141  1.00  0.00    -0.202 OA
BRANCH  26  29
HETATM   29  N5  UNL     1      16.306  17.536   4.140  1.00  0.00    -0.325 N 
ATOM     30  H52 UNL     1      16.061  16.806   4.808  1.00  0.00     0.169 HD
ATOM     31  H51 UNL     1      15.651  17.963   3.485  1.00  0.00     0.169 HD
ENDBRANCH  26  29
ENDBRANCH  25  26
ENDBRANCH  24  25
ENDBRANCH  22  24
ENDBRANCH  15  20
ENDBRANCH  14  15
ENDBRANCH   1  14
BRANCH   6  32
HETATM   32  C10 UNL     1       8.328  26.293   4.352  1.00  0.00     0.152 C 
BRANCH  32  33
HETATM   33  O2  UNL     1       8.932  27.523   4.006  1.00  0.00    -0.347 OA
ATOM     34  H2  UNL     1       8.721  28.128   4.708  1.00  0.00     0.219 HD
ENDBRANCH  32  33
BRANCH  32  35
HETATM   35  C11 UNL     1       6.932  26.606   4.449  1.00  0.00     0.250 C 
BRANCH  35  36
HETATM   36  N3  UNL     1       6.479  26.684   5.766  1.00  0.00    -0.376 NA
HETATM   37  C12 UNL     1       6.026  26.758   7.051  1.00  0.00     0.436 C 
HETATM   38  O3  UNL     1       4.820  26.594   7.440  1.00  0.00    -0.221 OA
BRANCH  37  39
HETATM   39  O4  UNL     1       6.891  27.042   8.145  1.00  0.00    -0.283 OA
BRANCH  39  40
HETATM   40  C13 UNL     1       7.403  28.343   8.296  1.00  0.00     0.062 C 
HETATM   41  C14 UNL     1       6.377  29.391   7.995  1.00  0.00     0.046 C 
HETATM   42  C15 UNL     1       8.617  28.462   7.392  1.00  0.00     0.046 C 
HETATM   43  C16 UNL     1       7.891  28.582   9.720  1.00  0.00     0.046 C 
ENDBRANCH  39  40
ENDBRANCH  37  39
ENDBRANCH  35  36
BRANCH  35  44
HETATM   44  C17 UNL     1       5.917  25.785   3.676  1.00  0.00    -0.011 C 
HETATM   45  C18 UNL     1       4.502  26.265   3.721  1.00  0.00     0.018 C 
HETATM   46  C19 UNL     1       6.271  26.097   2.131  1.00  0.00     0.018 C 
HETATM   47  C20 UNL     1       5.997  24.311   3.708  1.00  0.00     0.018 C 
ENDBRANCH  35  44
ENDBRANCH  32  35
ENDBRANCH   6  32
TORSDOF 16
ENDMDL
MODEL 2
REMARK VINA RESULT: -8.022973389      2.630      3.932
REMARK  16 active torsions:
REMARK  status: ('A' for Active; 'I' for Inactive)
REMARK    1  A    between atoms: C2_2  and  C3_3 
REMARK    2  A    between atoms: C3_3  and  C4_4 
REMARK    3  A    between atoms: C3_3  and  C6_6 
REMARK    4  A    between atoms: C3_3  and  C28_36 
REMARK    5  A    between atoms: C6_6  and  C7_7 
REMARK       I    between atoms: C7_7  and  N1_9 
REMARK    6  A    between atoms: N2_12  and  C10_13 
REMARK    7  A    between atoms: C10_13  and  O2_14 
REMARK    8  A    between atoms: C10_13  and  C11_16 
REMARK    9  A    between atoms: C11_16  and  N3_17 
REMARK   10  A    between atoms: C11_16  and  C17_25 
REMARK       I    between atoms: N3_17  and  C12_18 
REMARK   11  A    between atoms: C12_18  and  O4_20 
REMARK   12  A    between atoms: O4_20  and  C13_21 
REMARK       I    between atoms: C28_36  and  N4_38 
REMARK   13  A    between atoms: N4_38  and  C29_40 
REMARK   14  A    between atoms: C29_40  and  C30_41 
REMARK   15  A    between atoms: C30_41  and  S1_42 
REMARK   16  A    between atoms: S1_42  and  N5_43 
ROOT
HETATM    1  C7  UNL     1      11.637  25.561   7.040  1.00  0.00     0.224 C 
HETATM    2  O1  UNL     1      11.590  25.939   8.220  1.00  0.00    -0.273 OA
HETATM    3  N1  UNL     1      10.577  25.988   6.150  1.00  0.00    -0.328 N 
HETATM    4  C8  UNL     1       9.536  26.821   6.690  1.00  0.00     0.151 C 
HETATM    5  C9  UNL     1       8.191  26.538   6.173  1.00  0.00     0.146 C 
HETATM    6  N2  UNL     1       8.148  26.291   4.688  1.00  0.00    -0.347 N 
HETATM    7  C21 UNL     1       9.208  25.513   4.139  1.00  0.00     0.066 C 
HETATM    8  C22 UNL     1       8.736  24.051   4.298  1.00  0.00     0.037 C 
HETATM    9  C23 UNL     1       9.589  23.048   3.617  1.00  0.00     0.003 C 
HETATM   10  C24 UNL     1       9.826  23.424   2.181  1.00  0.00     0.000 C 
HETATM   11  C25 UNL     1      10.465  24.774   2.117  1.00  0.00     0.003 C 
HETATM   12  C26 UNL     1       9.533  25.836   2.692  1.00  0.00     0.037 C 
HETATM   13  C27 UNL     1      10.559  25.644   4.801  1.00  0.00     0.098 C 
ENDROOT
BRANCH   1  14
HETATM   14  C6  UNL     1      12.713  24.725   6.538  1.00  0.00     0.122 C 
BRANCH  14  15
HETATM   15  C3  UNL     1      12.571  23.254   6.776  1.00  0.00     0.049 C 
BRANCH  15  16
HETATM   16  C2  UNL     1      11.294  22.787   7.367  1.00  0.00     0.015 C 
HETATM   17  C1  UNL     1      10.737  21.518   6.795  1.00  0.00     0.006 C 
ENDBRANCH  15  16
BRANCH  15  18
HETATM   18  C4  UNL     1      12.801  22.527   5.469  1.00  0.00     0.015 C 
HETATM   19  C5  UNL     1      13.305  23.433   4.365  1.00  0.00     0.006 C 
ENDBRANCH  15  18
BRANCH  15  20
HETATM   20  C28 UNL     1      13.754  22.799   7.639  1.00  0.00     0.230 C 
HETATM   21  O5  UNL     1      13.512  21.946   8.482  1.00  0.00    -0.272 OA
HETATM   22  N4  UNL     1      15.017  23.366   7.433  1.00  0.00    -0.336 N 
ATOM     23  H4  UNL     1      15.074  24.083   6.709  1.00  0.00     0.168 HD
BRANCH  22  24
HETATM   24  C29 UNL     1      16.211  23.071   8.098  1.00  0.00     0.104 C 
BRANCH  24  25
HETATM   25  C30 UNL     1      17.208  22.083   7.742  1.00  0.00     0.148 C 
BRANCH  25  26
HETATM   26  S1  UNL     1      17.356  20.511   8.450  1.00  0.00     0.247 S 
HETATM   27  O6  UNL     1      17.964  19.514   7.446  1.00  0.00    -0.202 OA
HETATM   28  O7  UNL     1      18.339  20.478   9.607  1.00  0.00    -0.202 OA
BRANCH  26  29
HETATM   29  N5  UNL     1      15.851  19.849   8.901  1.00  0.00    -0.325 N 
ATOM     30  H52 UNL     1      15.118  20.398   9.349  1.00  0.00     0.169 HD
ATOM     31  H51 UNL     1      15.774  18.858   8.674  1.00  0.00     0.169 HD
ENDBRANCH  26  29
ENDBRANCH  25  26
ENDBRANCH  24  25
ENDBRANCH  22  24
ENDBRANCH  15  20
ENDBRANCH  14  15
ENDBRANCH   1  14
BRANCH   6  32
HETATM   32  C10 UNL     1       7.073  26.866   4.053  1.00  0.00     0.152 C 
BRANCH  32  33
HETATM   33  O2  UNL     1       7.295  28.262   4.090  1.00  0.00    -0.347 OA
ATOM     34  H2  UNL     1       6.447  28.660   4.250  1.00  0.00     0.219 HD
ENDBRANCH  32  33
BRANCH  32  35
HETATM   35  C11 UNL     1       5.822  26.731   3.364  1.00  0.00     0.250 C 
BRANCH  35  36
HETATM   36  N3  UNL     1       4.733  27.171   4.116  1.00  0.00    -0.376 NA
HETATM   37  C12 UNL     1       3.661  27.595   4.847  1.00  0.00     0.436 C 
HETATM   38  O3  UNL     1       2.480  27.109   4.810  1.00  0.00    -0.221 OA
BRANCH  37  39
HETATM   39  O4  UNL     1       3.752  28.676   5.768  1.00  0.00    -0.283 OA
BRANCH  39  40
HETATM   40  C13 UNL     1       4.360  28.463   7.018  1.00  0.00     0.062 C 
HETATM   41  C14 UNL     1       4.626  27.013   7.278  1.00  0.00     0.046 C 
HETATM   42  C15 UNL     1       3.453  29.071   8.074  1.00  0.00     0.046 C 
HETATM   43  C16 UNL     1       5.695  29.193   7.114  1.00  0.00     0.046 C 
ENDBRANCH  39  40
ENDBRANCH  37  39
ENDBRANCH  35  36
BRANCH  35  44
HETATM   44  C17 UNL     1       5.434  25.396   2.756  1.00  0.00    -0.011 C 
HETATM   45  C18 UNL     1       4.863  24.381   3.692  1.00  0.00     0.018 C 
HETATM   46  C19 UNL     1       4.120  25.743   1.882  1.00  0.00     0.018 C 
HETATM   47  C20 UNL     1       6.311  24.776   1.742  1.00  0.00     0.018 C 
ENDBRANCH  35  44
ENDBRANCH  32  35
ENDBRANCH   6  32
TORSDOF 16
ENDMDL
MODEL 3
REMARK VINA RESULT: -7.989307469      2.694      4.002
REMARK  16 active torsions:
REMARK  status: ('A' for Active; 'I' for Inactive)
REMARK    1  A    between atoms: C2_2  and  C3_3 
REMARK    2  A    between atoms: C3_3  and  C4_4 
REMARK    3  A    between atoms: C3_3  and  C6_6 
REMARK    4  A    between atoms: C3_3  and  C28_36 
REMARK    5  A    between atoms: C6_6  and  C7_7 
REMARK       I    between atoms: C7_7  and  N1_9 
REMARK    6  A    between atoms: N2_12  and  C10_13 
REMARK    7  A    between atoms: C10_13  and  O2_14 
REMARK    8  A    between atoms: C10_13  and  C11_16 
REMARK    9  A    between atoms: C11_16  and  N3_17 
REMARK   10  A    between atoms: C11_16  and  C17_25 
REMARK       I    between atoms: N3_17  and  C12_18 
REMARK   11  A    between atoms: C12_18  and  O4_20 
REMARK   12  A    between atoms: O4_20  and  C13_21 
REMARK       I    between atoms: C28_36  and  N4_38 
REMARK   13  A    between atoms: N4_38  and  C29_40 
REMARK   14  A    between atoms: C29_40  and  C30_41 
REMARK   15  A    between atoms: C30_41  and  S1_42 
REMARK   16  A    between atoms: S1_42  and  N5_43 
ROOT
HETATM    1  C7  UNL     1      11.661  25.542   6.905  1.00  0.00     0.224 C 
HETATM    2  O1  UNL     1      11.640  25.949   8.077  1.00  0.00    -0.273 OA
HETATM    3  N1  UNL     1      10.583  25.950   6.029  1.00  0.00    -0.328 N 
HETATM    4  C8  UNL     1       9.555  26.798   6.571  1.00  0.00     0.151 C 
HETATM    5  C9  UNL     1       8.198  26.505   6.091  1.00  0.00     0.146 C 
HETATM    6  N2  UNL     1       8.123  26.223   4.613  1.00  0.00    -0.347 N 
HETATM    7  C21 UNL     1       9.169  25.430   4.059  1.00  0.00     0.066 C 
HETATM    8  C22 UNL     1       8.699  23.973   4.263  1.00  0.00     0.037 C 
HETATM    9  C23 UNL     1       9.536  22.953   3.589  1.00  0.00     0.003 C 
HETATM   10  C24 UNL     1       9.741  23.294   2.139  1.00  0.00     0.000 C 
HETATM   11  C25 UNL     1      10.382  24.640   2.029  1.00  0.00     0.003 C 
HETATM   12  C26 UNL     1       9.463  25.718   2.598  1.00  0.00     0.037 C 
HETATM   13  C27 UNL     1      10.535  25.574   4.688  1.00  0.00     0.098 C 
ENDROOT
BRANCH   1  14
HETATM   14  C6  UNL     1      12.725  24.693   6.400  1.00  0.00     0.122 C 
BRANCH  14  15
HETATM   15  C3  UNL     1      12.626  23.239   6.742  1.00  0.00     0.049 C 
BRANCH  15  16
HETATM   16  C2  UNL     1      11.421  22.803   7.488  1.00  0.00     0.015 C 
HETATM   17  C1  UNL     1      10.706  21.609   6.929  1.00  0.00     0.006 C 
ENDBRANCH  15  16
BRANCH  15  18
HETATM   18  C4  UNL     1      12.731  22.432   5.466  1.00  0.00     0.015 C 
HETATM   19  C5  UNL     1      13.213  23.248   4.285  1.00  0.00     0.006 C 
ENDBRANCH  15  18
BRANCH  15  20
HETATM   20  C28 UNL     1      13.896  22.847   7.507  1.00  0.00     0.230 C 
HETATM   21  O5  UNL     1      14.930  23.403   7.160  1.00  0.00    -0.272 OA
HETATM   22  N4  UNL     1      13.818  21.896   8.532  1.00  0.00    -0.336 N 
ATOM     23  H4  UNL     1      12.896  21.496   8.703  1.00  0.00     0.168 HD
BRANCH  22  24
HETATM   24  C29 UNL     1      14.852  21.428   9.348  1.00  0.00     0.104 C 
BRANCH  24  25
HETATM   25  C30 UNL     1      15.771  20.339   9.087  1.00  0.00     0.148 C 
BRANCH  25  26
HETATM   26  S1  UNL     1      17.367  20.510   8.442  1.00  0.00     0.247 S 
HETATM   27  O6  UNL     1      18.401  20.668   9.572  1.00  0.00    -0.202 OA
HETATM   28  O7  UNL     1      17.842  19.265   7.712  1.00  0.00    -0.202 OA
BRANCH  26  29
HETATM   29  N5  UNL     1      17.537  21.898   7.466  1.00  0.00    -0.325 N 
ATOM     30  H52 UNL     1      17.152  21.961   6.524  1.00  0.00     0.169 HD
ATOM     31  H51 UNL     1      18.059  22.642   7.929  1.00  0.00     0.169 HD
ENDBRANCH  26  29
ENDBRANCH  25  26
ENDBRANCH  24  25
ENDBRANCH  22  24
ENDBRANCH  15  20
ENDBRANCH  14  15
ENDBRANCH   1  14
BRANCH   6  32
HETATM   32  C10 UNL     1       7.035  26.785   3.987  1.00  0.00     0.152 C 
BRANCH  32  33
HETATM   33  O2  UNL     1       7.272  28.178   3.962  1.00  0.00    -0.347 OA
ATOM     34  H2  UNL     1       7.159  28.449   3.058  1.00  0.00     0.219 HD
ENDBRANCH  32  33
BRANCH  32  35
HETATM   35  C11 UNL     1       5.763  26.637   3.343  1.00  0.00     0.250 C 
BRANCH  35  36
HETATM   36  N3  UNL     1       4.697  27.084   4.124  1.00  0.00    -0.376 NA
HETATM   37  C12 UNL     1       3.649  27.515   4.885  1.00  0.00     0.436 C 
HETATM   38  O3  UNL     1       2.482  26.996   4.929  1.00  0.00    -0.221 OA
BRANCH  37  39
HETATM   39  O4  UNL     1       3.751  28.642   5.747  1.00  0.00    -0.283 OA
BRANCH  39  40
HETATM   40  C13 UNL     1       4.410  28.505   6.981  1.00  0.00     0.062 C 
HETATM   41  C14 UNL     1       4.665  27.071   7.329  1.00  0.00     0.046 C 
HETATM   42  C15 UNL     1       3.559  29.200   8.030  1.00  0.00     0.046 C 
HETATM   43  C16 UNL     1       5.759  29.215   6.970  1.00  0.00     0.046 C 
ENDBRANCH  39  40
ENDBRANCH  37  39
ENDBRANCH  35  36
BRANCH  35  44
HETATM   44  C17 UNL     1       5.359  25.293   2.766  1.00  0.00    -0.011 C 
HETATM   45  C18 UNL     1       4.852  24.278   3.738  1.00  0.00     0.018 C 
HETATM   46  C19 UNL     1       3.996  25.618   1.961  1.00  0.00     0.018 C 
HETATM   47  C20 UNL     1       6.187  24.676   1.710  1.00  0.00     0.018 C 
ENDBRANCH  35  44
ENDBRANCH  32  35
ENDBRANCH   6  32
TORSDOF 16
ENDMDL
MODEL 4
REMARK VINA RESULT: -7.799644770      3.375      9.910
REMARK  16 active torsions:
REMARK  status: ('A' for Active; 'I' for Inactive)
REMARK    1  A    between atoms: C2_2  and  C3_3 
REMARK    2  A    between atoms: C3_3  and  C4_4 
REMARK    3  A    between atoms: C3_3  and  C6_6 
REMARK    4  A    between atoms: C3_3  and  C28_36 
REMARK    5  A    between atoms: C6_6  and  C7_7 
REMARK       I    between atoms: C7_7  and  N1_9 
REMARK    6  A    between atoms: N2_12  and  C10_13 
REMARK    7  A    between atoms: C10_13  and  O2_14 
REMARK    8  A    between atoms: C10_13  and  C11_16 
REMARK    9  A    between atoms: C11_16  and  N3_17 
REMARK   10  A    between atoms: C11_16  and  C17_25 
REMARK       I    between atoms: N3_17  and  C12_18 
REMARK   11  A    between atoms: C12_18  and  O4_20 
REMARK   12  A    between atoms: O4_20  and  C13_21 
REMARK       I    between atoms: C28_36  and  N4_38 
REMARK   13  A    between atoms: N4_38  and  C29_40 
REMARK   14  A    between atoms: C29_40  and  C30_41 
REMARK   15  A    between atoms: C30_41  and  S1_42 
REMARK   16  A    between atoms: S1_42  and  N5_43 
ROOT
HETATM    1  C7  UNL     1       8.905  26.761   6.882  1.00  0.00     0.224 C 
HETATM    2  O1  UNL     1       9.023  27.262   8.010  1.00  0.00    -0.273 OA
HETATM    3  N1  UNL     1       9.571  25.500   6.629  1.00  0.00    -0.328 N 
HETATM    4  C8  UNL     1      10.329  24.910   7.700  1.00  0.00     0.151 C 
HETATM    5  C9  UNL     1      11.574  24.252   7.284  1.00  0.00     0.146 C 
HETATM    6  N2  UNL     1      11.439  23.431   6.028  1.00  0.00    -0.347 N 
HETATM    7  C21 UNL     1      10.643  23.985   4.985  1.00  0.00     0.066 C 
HETATM    8  C22 UNL     1      11.621  24.873   4.184  1.00  0.00     0.037 C 
HETATM    9  C23 UNL     1      11.071  25.412   2.918  1.00  0.00     0.003 C 
HETATM   10  C24 UNL     1      10.468  24.319   2.080  1.00  0.00     0.000 C 
HETATM   11  C25 UNL     1       9.393  23.631   2.857  1.00  0.00     0.003 C 
HETATM   12  C26 UNL     1       9.976  22.953   4.094  1.00  0.00     0.037 C 
HETATM   13  C27 UNL     1       9.472  24.840   5.406  1.00  0.00     0.098 C 
ENDROOT
BRANCH   1  14
HETATM   14  C6  UNL     1       8.123  27.390   5.833  1.00  0.00     0.122 C 
BRANCH  14  15
HETATM   15  C3  UNL     1       6.637  27.374   6.019  1.00  0.00     0.049 C 
BRANCH  15  16
HETATM   16  C2  UNL     1       6.116  26.677   7.219  1.00  0.00     0.015 C 
HETATM   17  C1  UNL     1       4.633  26.764   7.430  1.00  0.00     0.006 C 
ENDBRANCH  15  16
BRANCH  15  18
HETATM   18  C4  UNL     1       6.134  28.802   6.024  1.00  0.00     0.015 C 
HETATM   19  C5  UNL     1       6.578  29.583   7.243  1.00  0.00     0.006 C 
ENDBRANCH  15  18
BRANCH  15  20
HETATM   20  C28 UNL     1       6.008  26.790   4.749  1.00  0.00     0.230 C 
HETATM   21  O5  UNL     1       5.385  27.572   4.043  1.00  0.00    -0.272 OA
HETATM   22  N4  UNL     1       6.166  25.428   4.465  1.00  0.00    -0.336 N 
ATOM     23  H4  UNL     1       6.692  24.885   5.149  1.00  0.00     0.168 HD
BRANCH  22  24
HETATM   24  C29 UNL     1       5.689  24.721   3.356  1.00  0.00     0.104 C 
BRANCH  24  25
HETATM   25  C30 UNL     1       4.335  24.273   3.100  1.00  0.00     0.148 C 
BRANCH  25  26
HETATM   26  S1  UNL     1       3.323  23.448   4.236  1.00  0.00     0.247 S 
HETATM   27  O6  UNL     1       3.386  24.124   5.618  1.00  0.00    -0.202 OA
HETATM   28  O7  UNL     1       1.849  23.533   3.878  1.00  0.00    -0.202 OA
BRANCH  26  29
HETATM   29  N5  UNL     1       3.803  21.832   4.492  1.00  0.00    -0.325 N 
ATOM     30  H52 UNL     1       4.405  21.325   3.844  1.00  0.00     0.169 HD
ATOM     31  H51 UNL     1       3.423  21.442   5.354  1.00  0.00     0.169 HD
ENDBRANCH  26  29
ENDBRANCH  25  26
ENDBRANCH  24  25
ENDBRANCH  22  24
ENDBRANCH  15  20
ENDBRANCH  14  15
ENDBRANCH   1  14
BRANCH   6  32
HETATM   32  C10 UNL     1      12.112  22.232   6.064  1.00  0.00     0.152 C 
BRANCH  32  33
HETATM   33  O2  UNL     1      11.140  21.243   6.334  1.00  0.00    -0.347 OA
ATOM     34  H2  UNL     1      11.527  20.414   6.076  1.00  0.00     0.219 HD
ENDBRANCH  32  33
BRANCH  32  35
HETATM   35  C11 UNL     1      13.338  21.496   5.960  1.00  0.00     0.250 C 
BRANCH  35  36
HETATM   36  N3  UNL     1      14.004  21.365   7.178  1.00  0.00    -0.376 NA
HETATM   37  C12 UNL     1      14.650  21.244   8.374  1.00  0.00     0.436 C 
HETATM   38  O3  UNL     1      14.426  21.930   9.428  1.00  0.00    -0.221 OA
BRANCH  37  39
HETATM   39  O4  UNL     1      15.694  20.299   8.579  1.00  0.00    -0.283 OA
BRANCH  39  40
HETATM   40  C13 UNL     1      17.028  20.694   8.378  1.00  0.00     0.062 C 
HETATM   41  C14 UNL     1      17.144  22.154   8.063  1.00  0.00     0.046 C 
HETATM   42  C15 UNL     1      17.596  19.828   7.267  1.00  0.00     0.046 C 
HETATM   43  C16 UNL     1      17.876  20.430   9.617  1.00  0.00     0.046 C 
ENDBRANCH  39  40
ENDBRANCH  37  39
ENDBRANCH  35  36
BRANCH  35  44
HETATM   44  C17 UNL     1      14.374  21.895   4.926  1.00  0.00    -0.011 C 
HETATM   45  C18 UNL     1      15.449  20.896   4.641  1.00  0.00     0.018 C 
HETATM   46  C19 UNL     1      13.562  21.841   3.530  1.00  0.00     0.018 C 
HETATM   47  C20 UNL     1      14.894  23.278   4.914  1.00  0.00     0.018 C 
ENDBRANCH  35  44
ENDBRANCH  32  35
ENDBRANCH   6  32
TORSDOF 16
ENDMDL
MODEL 5
REMARK VINA RESULT: -7.772049614      2.733      4.402
REMARK  16 active torsions:
REMARK  status: ('A' for Active; 'I' for Inactive)
REMARK    1  A    between atoms: C2_2  and  C3_3 
REMARK    2  A    between atoms: C3_3  and  C4_4 
REMARK    3  A    between atoms: C3_3  and  C6_6 
REMARK    4  A    between atoms: C3_3  and  C28_36 
REMARK    5  A    between atoms: C6_6  and  C7_7 
REMARK       I    between atoms: C7_7  and  N1_9 
REMARK    6  A    between atoms: N2_12  and  C10_13 
REMARK    7  A    between atoms: C10_13  and  O2_14 
REMARK    8  A    between atoms: C10_13  and  C11_16 
REMARK    9  A    between atoms: C11_16  and  N3_17 
REMARK   10  A    between atoms: C11_16  and  C17_25 
REMARK       I    between atoms: N3_17  and  C12_18 
REMARK   11  A    between atoms: C12_18  and  O4_20 
REMARK   12  A    between atoms: O4_20  and  C13_21 
REMARK       I    between atoms: C28_36  and  N4_38 
REMARK   13  A    between atoms: N4_38  and  C29_40 
REMARK   14  A    between atoms: C29_40  and  C30_41 
REMARK   15  A    between atoms: C30_41  and  S1_42 
REMARK   16  A    between atoms: S1_42  and  N5_43 
ROOT
HETATM    1  C7  UNL     1      11.597  25.551   7.025  1.00  0.00     0.224 C 
HETATM    2  O1  UNL     1      11.541  25.943   8.201  1.00  0.00    -0.273 OA
HETATM    3  N1  UNL     1      10.539  25.961   6.125  1.00  0.00    -0.328 N 
HETATM    4  C8  UNL     1       9.490  26.794   6.650  1.00  0.00     0.151 C 
HETATM    5  C9  UNL     1       8.149  26.496   6.130  1.00  0.00     0.146 C 
HETATM    6  N2  UNL     1       8.115  26.231   4.647  1.00  0.00    -0.347 N 
HETATM    7  C21 UNL     1       9.183  25.454   4.113  1.00  0.00     0.066 C 
HETATM    8  C22 UNL     1       8.719  23.990   4.287  1.00  0.00     0.037 C 
HETATM    9  C23 UNL     1       9.582  22.985   3.622  1.00  0.00     0.003 C 
HETATM   10  C24 UNL     1       9.823  23.345   2.183  1.00  0.00     0.000 C 
HETATM   11  C25 UNL     1      10.455  24.698   2.106  1.00  0.00     0.003 C 
HETATM   12  C26 UNL     1       9.513  25.761   2.664  1.00  0.00     0.037 C 
HETATM   13  C27 UNL     1      10.530  25.601   4.779  1.00  0.00     0.098 C 
ENDROOT
BRANCH   1  14
HETATM   14  C6  UNL     1      12.680  24.717   6.538  1.00  0.00     0.122 C 
BRANCH  14  15
HETATM   15  C3  UNL     1      12.538  23.246   6.776  1.00  0.00     0.049 C 
BRANCH  15  16
HETATM   16  C2  UNL     1      11.266  22.781   7.381  1.00  0.00     0.015 C 
HETATM   17  C1  UNL     1      10.716  21.497   6.835  1.00  0.00     0.006 C 
ENDBRANCH  15  16
BRANCH  15  18
HETATM   18  C4  UNL     1      12.752  22.519   5.466  1.00  0.00     0.015 C 
HETATM   19  C5  UNL     1      13.262  23.422   4.363  1.00  0.00     0.006 C 
ENDBRANCH  15  18
BRANCH  15  20
HETATM   20  C28 UNL     1      13.729  22.787   7.626  1.00  0.00     0.230 C 
HETATM   21  O5  UNL     1      13.491  21.944   8.481  1.00  0.00    -0.272 OA
HETATM   22  N4  UNL     1      14.994  23.340   7.396  1.00  0.00    -0.336 N 
ATOM     23  H4  UNL     1      15.047  24.049   6.665  1.00  0.00     0.168 HD
BRANCH  22  24
HETATM   24  C29 UNL     1      16.195  23.039   8.047  1.00  0.00     0.104 C 
BRANCH  24  25
HETATM   25  C30 UNL     1      17.161  22.015   7.706  1.00  0.00     0.148 C 
BRANCH  25  26
HETATM   26  S1  UNL     1      17.290  20.468   8.469  1.00  0.00     0.247 S 
HETATM   27  O6  UNL     1      17.821  19.413   7.482  1.00  0.00    -0.202 OA
HETATM   28  O7  UNL     1      18.323  20.448   9.584  1.00  0.00    -0.202 OA
BRANCH  26  29
HETATM   29  N5  UNL     1      15.787  19.875   9.012  1.00  0.00    -0.325 N 
ATOM     30  H52 UNL     1      15.130  20.442   9.549  1.00  0.00     0.169 HD
ATOM     31  H51 UNL     1      15.626  18.905   8.741  1.00  0.00     0.169 HD
ENDBRANCH  26  29
ENDBRANCH  25  26
ENDBRANCH  24  25
ENDBRANCH  22  24
ENDBRANCH  15  20
ENDBRANCH  14  15
ENDBRANCH   1  14
BRANCH   6  32
HETATM   32  C10 UNL     1       7.039  26.792   4.000  1.00  0.00     0.152 C 
BRANCH  32  33
HETATM   33  O2  UNL     1       7.231  28.191   4.058  1.00  0.00    -0.347 OA
ATOM     34  H2  UNL     1       6.941  28.533   3.219  1.00  0.00     0.219 HD
ENDBRANCH  32  33
BRANCH  32  35
HETATM   35  C11 UNL     1       5.804  26.639   3.287  1.00  0.00     0.250 C 
BRANCH  35  36
HETATM   36  N3  UNL     1       4.697  27.084   4.010  1.00  0.00    -0.376 NA
HETATM   37  C12 UNL     1       3.620  27.526   4.721  1.00  0.00     0.436 C 
HETATM   38  O3  UNL     1       3.618  28.465   5.587  1.00  0.00    -0.221 OA
BRANCH  37  39
HETATM   39  O4  UNL     1       2.324  26.957   4.566  1.00  0.00    -0.283 OA
BRANCH  39  40
HETATM   40  C13 UNL     1       1.894  25.972   5.473  1.00  0.00     0.062 C 
HETATM   41  C14 UNL     1       2.982  25.559   6.416  1.00  0.00     0.046 C 
HETATM   42  C15 UNL     1       1.374  24.801   4.659  1.00  0.00     0.046 C 
HETATM   43  C16 UNL     1       0.728  26.471   6.319  1.00  0.00     0.046 C 
ENDBRANCH  39  40
ENDBRANCH  37  39
ENDBRANCH  35  36
BRANCH  35  44
HETATM   44  C17 UNL     1       5.436  25.293   2.692  1.00  0.00    -0.011 C 
HETATM   45  C18 UNL     1       4.927  24.261   3.645  1.00  0.00     0.018 C 
HETATM   46  C19 UNL     1       4.084  25.601   1.861  1.00  0.00     0.018 C 
HETATM   47  C20 UNL     1       6.297  24.699   1.649  1.00  0.00     0.018 C 
ENDBRANCH  35  44
ENDBRANCH  32  35
ENDBRANCH   6  32
TORSDOF 16
ENDMDL
