MODEL 1
REMARK VINA RESULT: -9.273544732      0.000      0.000
REMARK  11 active torsions:
REMARK  status: ('A' for Active; 'I' for Inactive)
REMARK    1  A    between atoms: S1_2  and  C2_3 
REMARK    2  A    between atoms: C2_3  and  C3_4 
REMARK    3  A    between atoms: C3_4  and  C4_5 
REMARK    4  A    between atoms: C7_11  and  C8_12 
REMARK    5  A    between atoms: C8_12  and  N3_13 
REMARK    6  A    between atoms: C8_12  and  C28_42 
REMARK       I    between atoms: N3_13  and  C9_15 
REMARK    7  A    between atoms: C9_15  and  C10_17 
REMARK    8  A    between atoms: C10_17  and  C11_19 
REMARK       I    between atoms: C11_19  and  N4_21 
REMARK    9  A    between atoms: C15_25  and  C16_26 
REMARK       I    between atoms: C16_26  and  N5_28 
REMARK   10  A    between atoms: N5_28  and  C17_30 
REMARK   11  A    between atoms: N6_33  and  C20_34 
ROOT
HETATM    1  C10 UNL     1      16.894  20.988   8.390  1.00  0.00     0.306 C 
HETATM    2  O2  UNL     1      17.537  22.052   8.335  1.00  0.00    -0.276 OA
ENDROOT
BRANCH   1   3
HETATM    3  C9  UNL     1      17.589  19.781   8.868  1.00  0.00     0.301 C 
HETATM    4  N3  UNL     1      17.215  18.481   8.475  1.00  0.00    -0.321 N 
ATOM      5  H3  UNL     1      16.430  18.389   7.831  1.00  0.00     0.169 HD
HETATM    6  O1  UNL     1      18.542  19.935   9.650  1.00  0.00    -0.264 OA
BRANCH   4   7
HETATM    7  C8  UNL     1      17.868  17.259   8.920  1.00  0.00     0.040 C 
BRANCH   7   8
HETATM    8  C7  UNL     1      17.186  16.648  10.062  1.00  0.00     0.049 C 
HETATM    9  C4  UNL     1      17.927  16.076  11.194  1.00  0.00     0.054 C 
HETATM   10  C5  UNL     1      16.851  15.980  12.272  1.00  0.00     0.124 C 
HETATM   11  N1  UNL     1      15.749  16.788  11.824  1.00  0.00    -0.235 NA
HETATM   12  C6  UNL     1      14.540  15.991  11.720  1.00  0.00     0.136 C 
HETATM   13  N2  UNL     1      16.112  17.387  10.625  1.00  0.00    -0.321 N 
ATOM     14  H2  UNL     1      15.681  18.217  10.218  1.00  0.00     0.180 HD
BRANCH   9  15
HETATM   15  C3  UNL     1      19.166  16.703  11.672  1.00  0.00     0.022 C 
BRANCH  15  16
HETATM   16  C2  UNL     1      18.937  17.227  13.098  1.00  0.00     0.074 C 
BRANCH  16  17
HETATM   17  S1  UNL     1      18.819  19.058  13.051  1.00  0.00    -0.173 SA
HETATM   18  C1  UNL     1      20.465  19.813  13.087  1.00  0.00     0.089 C 
ENDBRANCH  16  17
ENDBRANCH  15  16
ENDBRANCH   9  15
ENDBRANCH   7   8
BRANCH   7  19
HETATM   19  C28 UNL     1      18.331  16.409   7.787  1.00  0.00     0.038 C 
HETATM   20  C29 UNL     1      18.366  17.262   6.483  1.00  0.00     0.011 C 
HETATM   21  C30 UNL     1      18.650  16.336   5.335  1.00  0.00     0.001 C 
HETATM   22  C31 UNL     1      18.800  14.906   5.744  1.00  0.00     0.000 C 
HETATM   23  C32 UNL     1      19.809  14.728   6.854  1.00  0.00     0.001 C 
HETATM   24  C33 UNL     1      19.750  15.910   7.853  1.00  0.00     0.011 C 
ENDBRANCH   7  19
ENDBRANCH   4   7
ENDBRANCH   1   3
BRANCH   1  25
HETATM   25  C11 UNL     1      15.500  20.944   7.996  1.00  0.00     0.300 C 
HETATM   26  O3  UNL     1      14.640  20.549   8.871  1.00  0.00    -0.264 OA
HETATM   27  N4  UNL     1      15.035  21.304   6.719  1.00  0.00    -0.332 N 
HETATM   28  C12 UNL     1      15.735  21.742   5.551  1.00  0.00     0.127 C 
HETATM   29  C15 UNL     1      13.603  21.310   6.344  1.00  0.00     0.179 C 
HETATM   30  C13 UNL     1      14.984  21.073   4.419  1.00  0.00     0.022 C 
HETATM   31  C14 UNL     1      13.565  21.032   4.885  1.00  0.00     0.037 C 
BRANCH  29  32
HETATM   32  C16 UNL     1      12.975  22.607   6.674  1.00  0.00     0.241 C 
HETATM   33  O4  UNL     1      13.629  23.378   7.436  1.00  0.00    -0.271 OA
HETATM   34  N5  UNL     1      11.720  22.991   6.184  1.00  0.00    -0.355 N 
ATOM     35  H5  UNL     1      11.213  22.353   5.569  1.00  0.00     0.162 HD
BRANCH  34  36
HETATM   36  C17 UNL     1      11.111  24.282   6.527  1.00  0.00     0.087 C 
HETATM   37  C18 UNL     1      10.159  24.050   7.679  1.00  0.00     0.044 C 
HETATM   38  C19 UNL     1       8.981  25.015   7.455  1.00  0.00     0.119 C 
HETATM   39  N6  UNL     1       9.525  26.226   6.987  1.00  0.00    -0.408 N 
HETATM   40  C26 UNL     1       9.903  26.209   5.632  1.00  0.00     0.119 C 
HETATM   41  C27 UNL     1      10.359  24.779   5.304  1.00  0.00     0.044 C 
BRANCH  39  42
HETATM   42  C20 UNL     1       9.163  27.415   7.615  1.00  0.00     0.079 C 
HETATM   43  C21 UNL     1       7.688  27.483   7.942  1.00  0.00     0.025 C 
HETATM   44  C22 UNL     1       7.443  28.918   8.431  1.00  0.00     0.002 C 
HETATM   45  C23 UNL     1       7.912  28.923   9.881  1.00  0.00     0.000 C 
HETATM   46  C24 UNL     1       8.973  27.891  10.076  1.00  0.00     0.002 C 
HETATM   47  C25 UNL     1       9.909  27.776   8.869  1.00  0.00     0.025 C 
ENDBRANCH  39  42
ENDBRANCH  34  36
ENDBRANCH  29  32
ENDBRANCH   1  25
TORSDOF 11
ENDMDL
MODEL 2
REMARK VINA RESULT: -9.207251731      3.285     12.281
REMARK  11 active torsions:
REMARK  status: ('A' for Active; 'I' for Inactive)
REMARK    1  A    between atoms: S1_2  and  C2_3 
REMARK    2  A    between atoms: C2_3  and  C3_4 
REMARK    3  A    between atoms: C3_4  and  C4_5 
REMARK    4  A    between atoms: C7_11  and  C8_12 
REMARK    5  A    between atoms: C8_12  and  N3_13 
REMARK    6  A    between atoms: C8_12  and  C28_42 
REMARK       I    between atoms: N3_13  and  C9_15 
REMARK    7  A    between atoms: C9_15  and  C10_17 
REMARK    8  A    between atoms: C10_17  and  C11_19 
REMARK       I    between atoms: C11_19  and  N4_21 
REMARK    9  A    between atoms: C15_25  and  C16_26 
REMARK       I    between atoms: C16_26  and  N5_28 
REMARK   10  A    between atoms: N5_28  and  C17_30 
REMARK   11  A    between atoms: N6_33  and  C20_34 
ROOT
HETATM    1  C10 UNL     1      11.003  23.687   6.789  1.00  0.00     0.306 C 
HETATM    2  O2  UNL     1      10.316  22.771   7.278  1.00  0.00    -0.276 OA
ENDROOT
BRANCH   1   3
HETATM    3  C9  UNL     1      10.310  24.894   6.309  1.00  0.00     0.301 C 
HETATM    4  N3  UNL     1       8.905  25.005   6.281  1.00  0.00    -0.321 N 
ATOM      5  H3  UNL     1       8.361  24.208   6.611  1.00  0.00     0.169 HD
HETATM    6  O1  UNL     1      11.008  25.843   5.917  1.00  0.00    -0.264 OA
BRANCH   4   7
HETATM    7  C8  UNL     1       8.175  26.174   5.815  1.00  0.00     0.040 C 
BRANCH   7   8
HETATM    8  C7  UNL     1       7.174  25.836   4.800  1.00  0.00     0.049 C 
HETATM    9  C4  UNL     1       7.058  26.588   3.543  1.00  0.00     0.054 C 
HETATM   10  C5  UNL     1       6.238  25.641   2.672  1.00  0.00     0.124 C 
HETATM   11  N1  UNL     1       6.262  24.359   3.326  1.00  0.00    -0.235 NA
HETATM   12  C6  UNL     1       4.913  23.915   3.627  1.00  0.00     0.136 C 
HETATM   13  N2  UNL     1       7.067  24.463   4.452  1.00  0.00    -0.321 N 
ATOM     14  H2  UNL     1       7.506  23.686   4.946  1.00  0.00     0.180 HD
BRANCH   9  15
HETATM   15  C3  UNL     1       8.256  27.103   2.866  1.00  0.00     0.022 C 
BRANCH  15  16
HETATM   16  C2  UNL     1       8.688  26.091   1.792  1.00  0.00     0.074 C 
BRANCH  16  17
HETATM   17  S1  UNL     1      10.109  25.118   2.424  1.00  0.00    -0.173 SA
HETATM   18  C1  UNL     1       9.698  23.357   2.515  1.00  0.00     0.089 C 
ENDBRANCH  16  17
ENDBRANCH  15  16
ENDBRANCH   9  15
ENDBRANCH   7   8
BRANCH   7  19
HETATM   19  C28 UNL     1       7.828  27.113   6.918  1.00  0.00     0.038 C 
HETATM   20  C29 UNL     1       6.309  27.457   6.843  1.00  0.00     0.011 C 
HETATM   21  C30 UNL     1       6.033  28.544   7.842  1.00  0.00     0.001 C 
HETATM   22  C31 UNL     1       7.247  28.987   8.593  1.00  0.00     0.000 C 
HETATM   23  C32 UNL     1       7.984  27.831   9.229  1.00  0.00     0.001 C 
HETATM   24  C33 UNL     1       7.940  26.578   8.321  1.00  0.00     0.011 C 
ENDBRANCH   7  19
ENDBRANCH   4   7
ENDBRANCH   1   3
BRANCH   1  25
HETATM   25  C11 UNL     1      12.443  23.563   6.698  1.00  0.00     0.300 C 
HETATM   26  O3  UNL     1      13.153  24.100   7.631  1.00  0.00    -0.264 OA
HETATM   27  N4  UNL     1      13.109  22.895   5.656  1.00  0.00    -0.332 N 
HETATM   28  C12 UNL     1      12.609  22.241   4.486  1.00  0.00     0.127 C 
HETATM   29  C15 UNL     1      14.579  22.725   5.602  1.00  0.00     0.179 C 
HETATM   30  C13 UNL     1      13.629  22.591   3.423  1.00  0.00     0.022 C 
HETATM   31  C14 UNL     1      14.928  22.660   4.160  1.00  0.00     0.037 C 
BRANCH  29  32
HETATM   32  C16 UNL     1      14.997  21.505   6.326  1.00  0.00     0.241 C 
HETATM   33  O4  UNL     1      15.047  20.433   5.654  1.00  0.00    -0.271 OA
HETATM   34  N5  UNL     1      15.327  21.505   7.688  1.00  0.00    -0.355 N 
ATOM     35  H5  UNL     1      15.281  22.382   8.208  1.00  0.00     0.162 HD
BRANCH  34  36
HETATM   36  C17 UNL     1      15.736  20.282   8.389  1.00  0.00     0.087 C 
HETATM   37  C18 UNL     1      15.334  20.428   9.840  1.00  0.00     0.044 C 
HETATM   38  C19 UNL     1      16.431  19.721  10.657  1.00  0.00     0.119 C 
HETATM   39  N6  UNL     1      16.784  18.557   9.948  1.00  0.00    -0.408 N 
HETATM   40  C26 UNL     1      17.614  18.782   8.835  1.00  0.00     0.119 C 
HETATM   41  C27 UNL     1      17.246  20.160   8.264  1.00  0.00     0.044 C 
BRANCH  39  42
HETATM   42  C20 UNL     1      16.804  17.338  10.622  1.00  0.00     0.079 C 
HETATM   43  C21 UNL     1      17.348  17.452  12.029  1.00  0.00     0.025 C 
HETATM   44  C22 UNL     1      17.485  16.008  12.533  1.00  0.00     0.002 C 
HETATM   45  C23 UNL     1      16.078  15.605  12.955  1.00  0.00     0.000 C 
HETATM   46  C24 UNL     1      15.070  16.373  12.166  1.00  0.00     0.002 C 
HETATM   47  C25 UNL     1      15.504  16.589  10.713  1.00  0.00     0.025 C 
ENDBRANCH  39  42
ENDBRANCH  34  36
ENDBRANCH  29  32
ENDBRANCH   1  25
TORSDOF 11
ENDMDL
MODEL 3
REMARK VINA RESULT: -9.196875321      6.294     12.832
REMARK  11 active torsions:
REMARK  status: ('A' for Active; 'I' for Inactive)
REMARK    1  A    between atoms: S1_2  and  C2_3 
REMARK    2  A    between atoms: C2_3  and  C3_4 
REMARK    3  A    between atoms: C3_4  and  C4_5 
REMARK    4  A    between atoms: C7_11  and  C8_12 
REMARK    5  A    between atoms: C8_12  and  N3_13 
REMARK    6  A    between atoms: C8_12  and  C28_42 
REMARK       I    between atoms: N3_13  and  C9_15 
REMARK    7  A    between atoms: C9_15  and  C10_17 
REMARK    8  A    between atoms: C10_17  and  C11_19 
REMARK       I    between atoms: C11_19  and  N4_21 
REMARK    9  A    between atoms: C15_25  and  C16_26 
REMARK       I    between atoms: C16_26  and  N5_28 
REMARK   10  A    between atoms: N5_28  and  C17_30 
REMARK   11  A    between atoms: N6_33  and  C20_34 
ROOT
HETATM    1  C10 UNL     1       5.407  27.773   6.239  1.00  0.00     0.306 C 
HETATM    2  O2  UNL     1       5.107  28.979   6.320  1.00  0.00    -0.276 OA
ENDROOT
BRANCH   1   3
HETATM    3  C9  UNL     1       5.154  27.079   4.965  1.00  0.00     0.301 C 
HETATM    4  N3  UNL     1       5.333  25.691   4.806  1.00  0.00    -0.321 N 
ATOM      5  H3  UNL     1       5.650  25.159   5.616  1.00  0.00     0.169 HD
HETATM    6  O1  UNL     1       4.767  27.762   4.002  1.00  0.00    -0.264 OA
BRANCH   4   7
HETATM    7  C8  UNL     1       5.098  24.960   3.570  1.00  0.00     0.040 C 
BRANCH   7   8
HETATM    8  C7  UNL     1       6.327  24.378   3.025  1.00  0.00     0.049 C 
HETATM    9  C4  UNL     1       6.921  24.855   1.770  1.00  0.00     0.054 C 
HETATM   10  C5  UNL     1       8.339  24.295   1.849  1.00  0.00     0.124 C 
HETATM   11  N1  UNL     1       8.542  23.885   3.212  1.00  0.00    -0.235 NA
HETATM   12  C6  UNL     1       8.874  22.473   3.277  1.00  0.00     0.136 C 
HETATM   13  N2  UNL     1       7.404  24.212   3.936  1.00  0.00    -0.321 N 
ATOM     14  H2  UNL     1       7.350  24.315   4.950  1.00  0.00     0.180 HD
BRANCH   9  15
HETATM   15  C3  UNL     1       6.883  26.280   1.417  1.00  0.00     0.022 C 
BRANCH  15  16
HETATM   16  C2  UNL     1       8.256  26.901   1.723  1.00  0.00     0.074 C 
BRANCH  16  17
HETATM   17  S1  UNL     1       8.109  27.976   3.202  1.00  0.00    -0.173 SA
HETATM   18  C1  UNL     1       8.821  27.172   4.660  1.00  0.00     0.089 C 
ENDBRANCH  16  17
ENDBRANCH  15  16
ENDBRANCH   9  15
ENDBRANCH   7   8
BRANCH   7  19
HETATM   19  C28 UNL     1       3.846  24.153   3.608  1.00  0.00     0.038 C 
HETATM   20  C29 UNL     1       4.188  22.691   4.028  1.00  0.00     0.011 C 
HETATM   21  C30 UNL     1       2.944  21.864   3.873  1.00  0.00     0.001 C 
HETATM   22  C31 UNL     1       1.771  22.640   3.364  1.00  0.00     0.000 C 
HETATM   23  C32 UNL     1       1.505  23.883   4.182  1.00  0.00     0.001 C 
HETATM   24  C33 UNL     1       2.830  24.530   4.653  1.00  0.00     0.011 C 
ENDBRANCH   7  19
ENDBRANCH   4   7
ENDBRANCH   1   3
BRANCH   1  25
HETATM   25  C11 UNL     1       5.991  27.079   7.368  1.00  0.00     0.300 C 
HETATM   26  O3  UNL     1       5.391  26.022   7.800  1.00  0.00    -0.264 OA
HETATM   27  N4  UNL     1       7.168  27.490   8.019  1.00  0.00    -0.332 N 
HETATM   28  C12 UNL     1       8.022  28.616   7.797  1.00  0.00     0.127 C 
HETATM   29  C15 UNL     1       7.786  26.742   9.136  1.00  0.00     0.179 C 
HETATM   30  C13 UNL     1       8.422  29.035   9.196  1.00  0.00     0.022 C 
HETATM   31  C14 UNL     1       8.486  27.756   9.966  1.00  0.00     0.037 C 
BRANCH  29  32
HETATM   32  C16 UNL     1       8.715  25.708   8.630  1.00  0.00     0.241 C 
HETATM   33  O4  UNL     1       8.422  24.504   8.890  1.00  0.00    -0.271 OA
HETATM   34  N5  UNL     1       9.869  26.015   7.898  1.00  0.00    -0.355 N 
ATOM     35  H5  UNL     1      10.083  26.993   7.699  1.00  0.00     0.162 HD
BRANCH  34  36
HETATM   36  C17 UNL     1      10.780  24.973   7.408  1.00  0.00     0.087 C 
HETATM   37  C18 UNL     1      11.822  25.645   6.540  1.00  0.00     0.044 C 
HETATM   38  C19 UNL     1      12.144  24.646   5.415  1.00  0.00     0.119 C 
HETATM   39  N6  UNL     1      12.169  23.365   5.998  1.00  0.00    -0.408 N 
HETATM   40  C26 UNL     1      10.900  22.819   6.260  1.00  0.00     0.119 C 
HETATM   41  C27 UNL     1       9.960  23.988   6.591  1.00  0.00     0.044 C 
BRANCH  39  42
HETATM   42  C20 UNL     1      13.270  22.542   5.770  1.00  0.00     0.079 C 
HETATM   43  C21 UNL     1      12.888  21.183   5.228  1.00  0.00     0.025 C 
HETATM   44  C22 UNL     1      14.184  20.360   5.234  1.00  0.00     0.002 C 
HETATM   45  C23 UNL     1      14.937  20.806   3.987  1.00  0.00     0.000 C 
HETATM   46  C24 UNL     1      14.560  22.207   3.638  1.00  0.00     0.002 C 
HETATM   47  C25 UNL     1      14.351  23.084   4.876  1.00  0.00     0.025 C 
ENDBRANCH  39  42
ENDBRANCH  34  36
ENDBRANCH  29  32
ENDBRANCH   1  25
TORSDOF 11
ENDMDL
MODEL 4
REMARK VINA RESULT: -8.964539216      3.468     12.586
REMARK  11 active torsions:
REMARK  status: ('A' for Active; 'I' for Inactive)
REMARK    1  A    between atoms: S1_2  and  C2_3 
REMARK    2  A    between atoms: C2_3  and  C3_4 
REMARK    3  A    between atoms: C3_4  and  C4_5 
REMARK    4  A    between atoms: C7_11  and  C8_12 
REMARK    5  A    between atoms: C8_12  and  N3_13 
REMARK    6  A    between atoms: C8_12  and  C28_42 
REMARK       I    between atoms: N3_13  and  C9_15 
REMARK    7  A    between atoms: C9_15  and  C10_17 
REMARK    8  A    between atoms: C10_17  and  C11_19 
REMARK       I    between atoms: C11_19  and  N4_21 
REMARK    9  A    between atoms: C15_25  and  C16_26 
REMARK       I    between atoms: C16_26  and  N5_28 
REMARK   10  A    between atoms: N5_28  and  C17_30 
REMARK   11  A    between atoms: N6_33  and  C20_34 
ROOT
HETATM    1  C10 UNL     1      10.557  24.186   6.659  1.00  0.00     0.306 C 
HETATM    2  O2  UNL     1       9.889  23.273   7.180  1.00  0.00    -0.276 OA
ENDROOT
BRANCH   1   3
HETATM    3  C9  UNL     1       9.835  25.323   6.066  1.00  0.00     0.301 C 
HETATM    4  N3  UNL     1       8.435  25.464   6.153  1.00  0.00    -0.321 N 
ATOM      5  H3  UNL     1       7.917  24.742   6.652  1.00  0.00     0.169 HD
HETATM    6  O1  UNL     1      10.502  26.182   5.468  1.00  0.00    -0.264 OA
BRANCH   4   7
HETATM    7  C8  UNL     1       7.676  26.567   5.582  1.00  0.00     0.040 C 
BRANCH   7   8
HETATM    8  C7  UNL     1       6.729  26.119   4.558  1.00  0.00     0.049 C 
HETATM    9  C4  UNL     1       6.677  26.736   3.226  1.00  0.00     0.054 C 
HETATM   10  C5  UNL     1       5.904  25.698   2.417  1.00  0.00     0.124 C 
HETATM   11  N1  UNL     1       5.897  24.491   3.200  1.00  0.00    -0.235 NA
HETATM   12  C6  UNL     1       4.535  24.071   3.476  1.00  0.00     0.136 C 
HETATM   13  N2  UNL     1       6.642  24.717   4.349  1.00  0.00    -0.321 N 
ATOM     14  H2  UNL     1       7.057  23.998   4.942  1.00  0.00     0.180 HD
BRANCH   9  15
HETATM   15  C3  UNL     1       7.907  27.186   2.561  1.00  0.00     0.022 C 
BRANCH  15  16
HETATM   16  C2  UNL     1       8.334  26.121   1.538  1.00  0.00     0.074 C 
BRANCH  16  17
HETATM   17  S1  UNL     1       9.759  25.182   2.212  1.00  0.00    -0.173 SA
HETATM   18  C1  UNL     1       9.323  23.445   2.477  1.00  0.00     0.089 C 
ENDBRANCH  16  17
ENDBRANCH  15  16
ENDBRANCH   9  15
ENDBRANCH   7   8
BRANCH   7  19
HETATM   19  C28 UNL     1       7.249  27.562   6.606  1.00  0.00     0.038 C 
HETATM   20  C29 UNL     1       5.692  27.589   6.679  1.00  0.00     0.011 C 
HETATM   21  C30 UNL     1       5.293  28.728   7.574  1.00  0.00     0.001 C 
HETATM   22  C31 UNL     1       6.455  29.498   8.114  1.00  0.00     0.000 C 
HETATM   23  C32 UNL     1       7.475  28.605   8.783  1.00  0.00     0.001 C 
HETATM   24  C33 UNL     1       7.606  27.256   8.036  1.00  0.00     0.011 C 
ENDBRANCH   7  19
ENDBRANCH   4   7
ENDBRANCH   1   3
BRANCH   1  25
HETATM   25  C11 UNL     1      12.005  24.125   6.642  1.00  0.00     0.300 C 
HETATM   26  O3  UNL     1      12.645  24.783   7.547  1.00  0.00    -0.264 OA
HETATM   27  N4  UNL     1      12.748  23.394   5.698  1.00  0.00    -0.332 N 
HETATM   28  C12 UNL     1      12.332  22.606   4.578  1.00  0.00     0.127 C 
HETATM   29  C15 UNL     1      14.224  23.292   5.723  1.00  0.00     0.179 C 
HETATM   30  C13 UNL     1      13.384  22.903   3.530  1.00  0.00     0.022 C 
HETATM   31  C14 UNL     1      14.642  23.106   4.310  1.00  0.00     0.037 C 
BRANCH  29  32
HETATM   32  C16 UNL     1      14.663  22.170   6.580  1.00  0.00     0.241 C 
HETATM   33  O4  UNL     1      13.770  21.603   7.277  1.00  0.00    -0.271 OA
HETATM   34  N5  UNL     1      15.993  21.733   6.639  1.00  0.00    -0.355 N 
ATOM     35  H5  UNL     1      16.693  22.204   6.066  1.00  0.00     0.162 HD
BRANCH  34  36
HETATM   36  C17 UNL     1      16.409  20.618   7.500  1.00  0.00     0.087 C 
HETATM   37  C18 UNL     1      16.746  21.189   8.859  1.00  0.00     0.044 C 
HETATM   38  C19 UNL     1      17.918  20.346   9.393  1.00  0.00     0.119 C 
HETATM   39  N6  UNL     1      17.661  19.009   9.032  1.00  0.00    -0.408 N 
HETATM   40  C26 UNL     1      17.924  18.710   7.683  1.00  0.00     0.119 C 
HETATM   41  C27 UNL     1      17.635  19.980   6.869  1.00  0.00     0.044 C 
BRANCH  39  42
HETATM   42  C20 UNL     1      17.727  18.022  10.012  1.00  0.00     0.079 C 
HETATM   43  C21 UNL     1      17.369  18.534  11.390  1.00  0.00     0.025 C 
HETATM   44  C22 UNL     1      17.693  17.382  12.352  1.00  0.00     0.002 C 
HETATM   45  C23 UNL     1      16.506  16.433  12.239  1.00  0.00     0.000 C 
HETATM   46  C24 UNL     1      15.882  16.558  10.889  1.00  0.00     0.002 C 
HETATM   47  C25 UNL     1      16.916  16.778   9.781  1.00  0.00     0.025 C 
ENDBRANCH  39  42
ENDBRANCH  34  36
ENDBRANCH  29  32
ENDBRANCH   1  25
TORSDOF 11
ENDMDL
MODEL 5
REMARK VINA RESULT: -8.905840981      4.226     12.371
REMARK  11 active torsions:
REMARK  status: ('A' for Active; 'I' for Inactive)
REMARK    1  A    between atoms: S1_2  and  C2_3 
REMARK    2  A    between atoms: C2_3  and  C3_4 
REMARK    3  A    between atoms: C3_4  and  C4_5 
REMARK    4  A    between atoms: C7_11  and  C8_12 
REMARK    5  A    between atoms: C8_12  and  N3_13 
REMARK    6  A    between atoms: C8_12  and  C28_42 
REMARK       I    between atoms: N3_13  and  C9_15 
REMARK    7  A    between atoms: C9_15  and  C10_17 
REMARK    8  A    between atoms: C10_17  and  C11_19 
REMARK       I    between atoms: C11_19  and  N4_21 
REMARK    9  A    between atoms: C15_25  and  C16_26 
REMARK       I    between atoms: C16_26  and  N5_28 
REMARK   10  A    between atoms: N5_28  and  C17_30 
REMARK   11  A    between atoms: N6_33  and  C20_34 
ROOT
HETATM    1  C10 UNL     1      10.821  22.330   7.264  1.00  0.00     0.306 C 
HETATM    2  O2  UNL     1      10.365  21.199   7.514  1.00  0.00    -0.276 OA
ENDROOT
BRANCH   1   3
HETATM    3  C9  UNL     1       9.875  23.453   7.158  1.00  0.00     0.301 C 
HETATM    4  N3  UNL     1       9.889  24.361   6.081  1.00  0.00    -0.321 N 
ATOM      5  H3  UNL     1      10.588  24.221   5.352  1.00  0.00     0.169 HD
HETATM    6  O1  UNL     1       9.038  23.590   8.065  1.00  0.00    -0.264 OA
BRANCH   4   7
HETATM    7  C8  UNL     1       8.977  25.486   5.932  1.00  0.00     0.040 C 
BRANCH   7   8
HETATM    8  C7  UNL     1       9.306  26.592   6.835  1.00  0.00     0.049 C 
HETATM    9  C4  UNL     1       8.735  27.934   6.659  1.00  0.00     0.054 C 
HETATM   10  C5  UNL     1       8.995  28.578   8.017  1.00  0.00     0.124 C 
HETATM   11  N1  UNL     1       9.338  27.510   8.918  1.00  0.00    -0.235 NA
HETATM   12  C6  UNL     1      10.652  27.730   9.494  1.00  0.00     0.136 C 
HETATM   13  N2  UNL     1       9.238  26.312   8.226  1.00  0.00    -0.321 N 
ATOM     14  H2  UNL     1       9.135  25.387   8.644  1.00  0.00     0.180 HD
BRANCH   9  15
HETATM   15  C3  UNL     1       7.352  28.104   6.195  1.00  0.00     0.022 C 
BRANCH  15  16
HETATM   16  C2  UNL     1       6.666  29.167   7.068  1.00  0.00     0.074 C 
BRANCH  16  17
HETATM   17  S1  UNL     1       4.935  28.651   7.391  1.00  0.00    -0.173 SA
HETATM   18  C1  UNL     1       4.761  26.853   7.261  1.00  0.00     0.089 C 
ENDBRANCH  16  17
ENDBRANCH  15  16
ENDBRANCH   9  15
ENDBRANCH   7   8
BRANCH   7  19
HETATM   19  C28 UNL     1       8.635  25.764   4.509  1.00  0.00     0.038 C 
HETATM   20  C29 UNL     1       9.692  25.089   3.583  1.00  0.00     0.011 C 
HETATM   21  C30 UNL     1       9.428  25.543   2.176  1.00  0.00     0.001 C 
HETATM   22  C31 UNL     1       8.279  26.493   2.060  1.00  0.00     0.000 C 
HETATM   23  C32 UNL     1       7.023  25.957   2.708  1.00  0.00     0.001 C 
HETATM   24  C33 UNL     1       7.357  25.158   3.991  1.00  0.00     0.011 C 
ENDBRANCH   7  19
ENDBRANCH   4   7
ENDBRANCH   1   3
BRANCH   1  25
HETATM   25  C11 UNL     1      12.245  22.530   7.084  1.00  0.00     0.300 C 
HETATM   26  O3  UNL     1      12.961  22.740   8.136  1.00  0.00    -0.264 OA
HETATM   27  N4  UNL     1      12.889  22.508   5.834  1.00  0.00    -0.332 N 
HETATM   28  C12 UNL     1      12.371  22.335   4.511  1.00  0.00     0.127 C 
HETATM   29  C15 UNL     1      14.352  22.657   5.667  1.00  0.00     0.179 C 
HETATM   30  C13 UNL     1      13.202  23.289   3.680  1.00  0.00     0.022 C 
HETATM   31  C14 UNL     1      14.547  23.280   4.332  1.00  0.00     0.037 C 
BRANCH  29  32
HETATM   32  C16 UNL     1      15.031  21.347   5.768  1.00  0.00     0.241 C 
HETATM   33  O4  UNL     1      15.184  20.874   6.932  1.00  0.00    -0.271 OA
HETATM   34  N5  UNL     1      15.494  20.643   4.649  1.00  0.00    -0.355 N 
ATOM     35  H5  UNL     1      15.358  21.044   3.721  1.00  0.00     0.162 HD
BRANCH  34  36
HETATM   36  C17 UNL     1      16.170  19.345   4.772  1.00  0.00     0.087 C 
HETATM   37  C18 UNL     1      17.572  19.603   5.278  1.00  0.00     0.044 C 
HETATM   38  C19 UNL     1      18.468  18.552   4.598  1.00  0.00     0.119 C 
HETATM   39  N6  UNL     1      17.742  17.346   4.577  1.00  0.00    -0.408 N 
HETATM   40  C26 UNL     1      16.743  17.285   3.588  1.00  0.00     0.119 C 
HETATM   41  C27 UNL     1      16.210  18.712   3.391  1.00  0.00     0.044 C 
BRANCH  39  42
HETATM   42  C20 UNL     1      18.347  16.187   5.058  1.00  0.00     0.079 C 
HETATM   43  C21 UNL     1      19.666  15.887   4.381  1.00  0.00     0.025 C 
HETATM   44  C22 UNL     1      20.075  14.494   4.881  1.00  0.00     0.002 C 
HETATM   45  C23 UNL     1      20.673  14.734   6.262  1.00  0.00     0.000 C 
HETATM   46  C24 UNL     1      20.073  15.956   6.871  1.00  0.00     0.002 C 
HETATM   47  C25 UNL     1      18.585  16.108   6.540  1.00  0.00     0.025 C 
ENDBRANCH  39  42
ENDBRANCH  34  36
ENDBRANCH  29  32
ENDBRANCH   1  25
TORSDOF 11
ENDMDL
