MODEL 1
REMARK VINA RESULT: -6.956004869      0.000      0.000
REMARK  13 active torsions:
REMARK  status: ('A' for Active; 'I' for Inactive)
REMARK    1  A    between atoms: C10_12  and  C11_13 
REMARK    2  A    between atoms: C11_13  and  O3_14 
REMARK    3  A    between atoms: C12_16  and  C13_17 
REMARK    4  A    between atoms: C13_17  and  O4_18 
REMARK    5  A    between atoms: O4_18  and  C14_19 
REMARK    6  A    between atoms: C14_19  and  C15_20 
REMARK    7  A    between atoms: C15_20  and  N1_21 
REMARK    8  A    between atoms: N1_21  and  C16_23 
REMARK    9  A    between atoms: C20_27  and  O5_28 
REMARK   10  A    between atoms: O5_28  and  C21_29 
REMARK   11  A    between atoms: C23_32  and  C24_33 
REMARK   12  A    between atoms: C24_33  and  C25_34 
REMARK   13  A    between atoms: C27_36  and  C29_38 
ROOT
HETATM    1  C1  UNL     1       2.059   3.316  19.852  1.00  0.00     0.017 C 
HETATM    2  C2  UNL     1       2.719   4.523  19.757  1.00  0.00    -0.056 C 
HETATM    3  C3  UNL     1       1.986   5.449  18.937  1.00  0.00     0.018 C 
HETATM    4  C4  UNL     1       1.966   5.182  17.442  1.00  0.00     0.021 C 
HETATM    5  C5  UNL     1       2.918   6.313  17.275  1.00  0.00     0.059 C 
HETATM    6  C6  UNL     1       2.397   6.806  18.616  1.00  0.00     0.021 C 
HETATM    7  C7  UNL     1       4.293   6.167  17.040  1.00  0.00     0.160 C 
HETATM    8  O1  UNL     1       4.751   7.018  16.195  1.00  0.00    -0.295 OA
HETATM    9  C8  UNL     1       5.452   5.359  17.423  1.00  0.00     0.200 C 
HETATM   10  O2  UNL     1       6.514   6.249  17.802  1.00  0.00    -0.371 OA
HETATM   11  C9  UNL     1       5.985   7.055  18.803  1.00  0.00     0.134 C 
HETATM   12  C10 UNL     1       7.036   7.818  19.660  1.00  0.00     0.045 C 
HETATM   13  C12 UNL     1       6.976   6.728  20.673  1.00  0.00     0.025 C 
HETATM   14  C18 UNL     1       5.672   6.306  20.027  1.00  0.00     0.029 C 
HETATM   15  C19 UNL     1       5.275   4.888  19.878  1.00  0.00     0.037 C 
HETATM   16  C20 UNL     1       3.951   4.583  20.530  1.00  0.00     0.166 C 
HETATM   17  C23 UNL     1       5.382   4.341  18.446  1.00  0.00     0.059 C 
ENDROOT
BRANCH  13  18
HETATM   18  C13 UNL     1       6.744   7.108  22.103  1.00  0.00     0.173 C 
BRANCH  18  19
HETATM   19  O4  UNL     1       7.675   7.205  23.021  1.00  0.00    -0.389 OA
BRANCH  19  20
HETATM   20  C14 UNL     1       7.494   7.562  24.302  1.00  0.00     0.186 C 
BRANCH  20  21
HETATM   21  C15 UNL     1       8.830   7.977  24.961  1.00  0.00     0.140 C 
BRANCH  21  22
HETATM   22  N1  UNL     1       9.012   7.226  26.154  1.00  0.00    -0.419 N 
ATOM     23  H1  UNL     1       8.230   6.779  26.633  1.00  0.00     0.153 HD
BRANCH  22  24
HETATM   24  C16 UNL     1      10.355   7.130  26.644  1.00  0.00     0.109 C 
HETATM   25  C17 UNL     1      11.288   8.113  25.973  1.00  0.00     0.026 C 
ENDBRANCH  22  24
ENDBRANCH  21  22
ENDBRANCH  20  21
ENDBRANCH  19  20
ENDBRANCH  18  19
ENDBRANCH  13  18
BRANCH  12  26
HETATM   26  C11 UNL     1       8.307   7.980  18.847  1.00  0.00     0.171 C 
BRANCH  26  27
HETATM   27  O3  UNL     1       9.236   8.795  19.430  1.00  0.00    -0.400 OA
ATOM     28  H3  UNL     1      10.130   8.605  19.172  1.00  0.00     0.209 HD
ENDBRANCH  26  27
ENDBRANCH  12  26
BRANCH  16  29
HETATM   29  O5  UNL     1       3.722   5.394  21.697  1.00  0.00    -0.311 OA
BRANCH  29  30
HETATM   30  C21 UNL     1       3.719   4.897  22.990  1.00  0.00     0.255 C 
HETATM   31  C22 UNL     1       3.242   3.544  23.344  1.00  0.00     0.126 C 
HETATM   32  O6  UNL     1       4.153   5.653  23.904  1.00  0.00    -0.266 OA
ENDBRANCH  29  30
ENDBRANCH  16  29
BRANCH  17  33
HETATM   33  C24 UNL     1       6.352   3.220  18.305  1.00  0.00    -0.060 C 
HETATM   34  C27 UNL     1       6.193   2.133  17.524  1.00  0.00     0.017 C 
HETATM   35  C28 UNL     1       7.302   1.085  17.520  1.00  0.00     0.056 C 
BRANCH  33  36
HETATM   36  C25 UNL     1       7.619   3.148  19.076  1.00  0.00     0.031 C 
HETATM   37  C26 UNL     1       8.631   4.084  18.469  1.00  0.00     0.010 C 
ENDBRANCH  33  36
BRANCH  34  38
HETATM   38  C29 UNL     1       5.133   1.852  16.603  1.00  0.00     0.205 C 
HETATM   39  O7  UNL     1       4.112   1.190  16.701  1.00  0.00    -0.644 OA
HETATM   40  O8  UNL     1       5.272   2.455  15.299  1.00  0.00    -0.644 OA
ENDBRANCH  34  38
ENDBRANCH  17  33
TORSDOF 13
ENDMDL
MODEL 2
REMARK VINA RESULT: -6.936138185      2.033      2.648
REMARK  13 active torsions:
REMARK  status: ('A' for Active; 'I' for Inactive)
REMARK    1  A    between atoms: C10_12  and  C11_13 
REMARK    2  A    between atoms: C11_13  and  O3_14 
REMARK    3  A    between atoms: C12_16  and  C13_17 
REMARK    4  A    between atoms: C13_17  and  O4_18 
REMARK    5  A    between atoms: O4_18  and  C14_19 
REMARK    6  A    between atoms: C14_19  and  C15_20 
REMARK    7  A    between atoms: C15_20  and  N1_21 
REMARK    8  A    between atoms: N1_21  and  C16_23 
REMARK    9  A    between atoms: C20_27  and  O5_28 
REMARK   10  A    between atoms: O5_28  and  C21_29 
REMARK   11  A    between atoms: C23_32  and  C24_33 
REMARK   12  A    between atoms: C24_33  and  C25_34 
REMARK   13  A    between atoms: C27_36  and  C29_38 
ROOT
HETATM    1  C1  UNL     1       2.700   5.568  22.971  1.00  0.00     0.017 C 
HETATM    2  C2  UNL     1       3.332   6.568  22.264  1.00  0.00    -0.056 C 
HETATM    3  C3  UNL     1       2.393   7.315  21.471  1.00  0.00     0.018 C 
HETATM    4  C4  UNL     1       1.816   6.622  20.250  1.00  0.00     0.021 C 
HETATM    5  C5  UNL     1       2.691   7.481  19.407  1.00  0.00     0.059 C 
HETATM    6  C6  UNL     1       2.720   8.429  20.596  1.00  0.00     0.021 C 
HETATM    7  C7  UNL     1       3.876   7.050  18.794  1.00  0.00     0.160 C 
HETATM    8  O1  UNL     1       4.032   7.525  17.612  1.00  0.00    -0.295 OA
HETATM    9  C8  UNL     1       5.057   6.215  19.021  1.00  0.00     0.200 C 
HETATM   10  O2  UNL     1       6.223   6.992  18.704  1.00  0.00    -0.371 OA
HETATM   11  C9  UNL     1       6.134   8.134  19.491  1.00  0.00     0.134 C 
HETATM   12  C10 UNL     1       7.460   8.936  19.642  1.00  0.00     0.045 C 
HETATM   13  C12 UNL     1       7.725   8.222  20.922  1.00  0.00     0.025 C 
HETATM   14  C18 UNL     1       6.257   7.845  20.925  1.00  0.00     0.029 C 
HETATM   15  C19 UNL     1       5.770   6.531  21.402  1.00  0.00     0.037 C 
HETATM   16  C20 UNL     1       4.763   6.654  22.518  1.00  0.00     0.166 C 
HETATM   17  C23 UNL     1       5.320   5.573  20.288  1.00  0.00     0.059 C 
ENDROOT
BRANCH  13  18
HETATM   18  C13 UNL     1       8.049   9.042  22.132  1.00  0.00     0.173 C 
BRANCH  18  19
HETATM   19  O4  UNL     1       8.824   8.661  23.119  1.00  0.00    -0.389 OA
BRANCH  19  20
HETATM   20  C14 UNL     1       9.640   9.447  23.838  1.00  0.00     0.186 C 
BRANCH  20  21
HETATM   21  C15 UNL     1      10.371   8.639  24.936  1.00  0.00     0.140 C 
BRANCH  21  22
HETATM   22  N1  UNL     1       9.414   7.889  25.674  1.00  0.00    -0.419 N 
ATOM     23  H1  UNL     1       8.413   7.967  25.493  1.00  0.00     0.153 HD
BRANCH  22  24
HETATM   24  C16 UNL     1       9.935   7.017  26.684  1.00  0.00     0.109 C 
HETATM   25  C17 UNL     1      11.434   7.139  26.838  1.00  0.00     0.026 C 
ENDBRANCH  22  24
ENDBRANCH  21  22
ENDBRANCH  20  21
ENDBRANCH  19  20
ENDBRANCH  18  19
ENDBRANCH  13  18
BRANCH  12  26
HETATM   26  C11 UNL     1       8.351   8.639  18.451  1.00  0.00     0.171 C 
BRANCH  26  27
HETATM   27  O3  UNL     1       9.620   8.264  18.790  1.00  0.00    -0.400 OA
ATOM     28  H3  UNL     1      10.053   8.867  19.382  1.00  0.00     0.209 HD
ENDBRANCH  26  27
ENDBRANCH  12  26
BRANCH  16  29
HETATM   29  O5  UNL     1       5.014   7.802  23.350  1.00  0.00    -0.311 OA
BRANCH  29  30
HETATM   30  C21 UNL     1       5.216   7.729  24.718  1.00  0.00     0.255 C 
HETATM   31  C22 UNL     1       4.135   7.889  25.713  1.00  0.00     0.126 C 
HETATM   32  O6  UNL     1       6.393   7.512  25.121  1.00  0.00    -0.266 OA
ENDBRANCH  29  30
ENDBRANCH  16  29
BRANCH  17  33
HETATM   33  C24 UNL     1       6.120   4.318  20.220  1.00  0.00    -0.060 C 
HETATM   34  C27 UNL     1       5.635   3.067  20.345  1.00  0.00     0.017 C 
HETATM   35  C28 UNL     1       6.619   1.904  20.253  1.00  0.00     0.056 C 
BRANCH  33  36
HETATM   36  C25 UNL     1       7.595   4.311  20.054  1.00  0.00     0.031 C 
HETATM   37  C26 UNL     1       7.937   4.314  18.588  1.00  0.00     0.010 C 
ENDBRANCH  33  36
BRANCH  34  38
HETATM   38  C29 UNL     1       4.270   2.655  20.475  1.00  0.00     0.205 C 
HETATM   39  O7  UNL     1       3.610   2.287  21.434  1.00  0.00    -0.644 OA
HETATM   40  O8  UNL     1       3.502   2.668  19.253  1.00  0.00    -0.644 OA
ENDBRANCH  34  38
ENDBRANCH  17  33
TORSDOF 13
ENDMDL
MODEL 3
REMARK VINA RESULT: -6.831416465      3.638      6.422
REMARK  13 active torsions:
REMARK  status: ('A' for Active; 'I' for Inactive)
REMARK    1  A    between atoms: C10_12  and  C11_13 
REMARK    2  A    between atoms: C11_13  and  O3_14 
REMARK    3  A    between atoms: C12_16  and  C13_17 
REMARK    4  A    between atoms: C13_17  and  O4_18 
REMARK    5  A    between atoms: O4_18  and  C14_19 
REMARK    6  A    between atoms: C14_19  and  C15_20 
REMARK    7  A    between atoms: C15_20  and  N1_21 
REMARK    8  A    between atoms: N1_21  and  C16_23 
REMARK    9  A    between atoms: C20_27  and  O5_28 
REMARK   10  A    between atoms: O5_28  and  C21_29 
REMARK   11  A    between atoms: C23_32  and  C24_33 
REMARK   12  A    between atoms: C24_33  and  C25_34 
REMARK   13  A    between atoms: C27_36  and  C29_38 
ROOT
HETATM    1  C1  UNL     1       4.469  13.285  18.681  1.00  0.00     0.017 C 
HETATM    2  C2  UNL     1       5.313  12.252  18.329  1.00  0.00    -0.056 C 
HETATM    3  C3  UNL     1       5.440  12.152  16.901  1.00  0.00     0.018 C 
HETATM    4  C4  UNL     1       4.240  11.619  16.137  1.00  0.00     0.021 C 
HETATM    5  C5  UNL     1       4.983  10.344  15.952  1.00  0.00     0.059 C 
HETATM    6  C6  UNL     1       6.239  11.168  16.188  1.00  0.00     0.021 C 
HETATM    7  C7  UNL     1       4.739   9.169  16.678  1.00  0.00     0.160 C 
HETATM    8  O1  UNL     1       4.813   8.109  15.957  1.00  0.00    -0.295 OA
HETATM    9  C8  UNL     1       4.414   8.687  18.021  1.00  0.00     0.200 C 
HETATM   10  O2  UNL     1       5.346   7.648  18.362  1.00  0.00    -0.371 OA
HETATM   11  C9  UNL     1       6.606   8.214  18.215  1.00  0.00     0.134 C 
HETATM   12  C10 UNL     1       7.763   7.439  18.909  1.00  0.00     0.045 C 
HETATM   13  C12 UNL     1       7.632   8.335  20.091  1.00  0.00     0.025 C 
HETATM   14  C18 UNL     1       6.865   9.281  19.190  1.00  0.00     0.029 C 
HETATM   15  C19 UNL     1       5.706  10.072  19.662  1.00  0.00     0.037 C 
HETATM   16  C20 UNL     1       5.895  11.555  19.467  1.00  0.00     0.166 C 
HETATM   17  C23 UNL     1       4.342   9.568  19.164  1.00  0.00     0.059 C 
ENDROOT
BRANCH  13  18
HETATM   18  C13 UNL     1       8.867   9.004  20.609  1.00  0.00     0.173 C 
BRANCH  18  19
HETATM   19  O4  UNL     1       9.069   9.360  21.855  1.00  0.00    -0.389 OA
BRANCH  19  20
HETATM   20  C14 UNL     1       8.169   9.320  22.849  1.00  0.00     0.186 C 
BRANCH  20  21
HETATM   21  C15 UNL     1       8.439   8.132  23.801  1.00  0.00     0.140 C 
BRANCH  21  22
HETATM   22  N1  UNL     1       9.090   8.613  24.970  1.00  0.00    -0.419 N 
ATOM     23  H1  UNL     1       8.567   8.921  25.790  1.00  0.00     0.153 HD
BRANCH  22  24
HETATM   24  C16 UNL     1      10.522   8.641  24.932  1.00  0.00     0.109 C 
HETATM   25  C17 UNL     1      11.146   7.893  26.090  1.00  0.00     0.026 C 
ENDBRANCH  22  24
ENDBRANCH  21  22
ENDBRANCH  20  21
ENDBRANCH  19  20
ENDBRANCH  18  19
ENDBRANCH  13  18
BRANCH  12  26
HETATM   26  C11 UNL     1       7.359   5.984  19.056  1.00  0.00     0.171 C 
BRANCH  26  27
HETATM   27  O3  UNL     1       6.776   5.691  20.256  1.00  0.00    -0.400 OA
ATOM     28  H3  UNL     1       6.935   4.804  20.554  1.00  0.00     0.209 HD
ENDBRANCH  26  27
ENDBRANCH  12  26
BRANCH  16  29
HETATM   29  O5  UNL     1       7.275  11.946  19.588  1.00  0.00    -0.311 OA
BRANCH  29  30
HETATM   30  C21 UNL     1       7.720  12.938  20.446  1.00  0.00     0.255 C 
HETATM   31  C22 UNL     1       7.745  14.373  20.092  1.00  0.00     0.126 C 
HETATM   32  O6  UNL     1       8.120  12.582  21.590  1.00  0.00    -0.266 OA
ENDBRANCH  29  30
ENDBRANCH  16  29
BRANCH  17  33
HETATM   33  C24 UNL     1       3.431   9.130  20.258  1.00  0.00    -0.060 C 
HETATM   34  C27 UNL     1       2.177   9.579  20.465  1.00  0.00     0.017 C 
HETATM   35  C28 UNL     1       1.400   9.011  21.650  1.00  0.00     0.056 C 
BRANCH  33  36
HETATM   36  C25 UNL     1       3.837   8.159  21.304  1.00  0.00     0.031 C 
HETATM   37  C26 UNL     1       3.550   6.759  20.830  1.00  0.00     0.010 C 
ENDBRANCH  33  36
BRANCH  34  38
HETATM   38  C29 UNL     1       1.414  10.482  19.658  1.00  0.00     0.205 C 
HETATM   39  O7  UNL     1       0.734  10.316  18.658  1.00  0.00    -0.644 OA
HETATM   40  O8  UNL     1       1.437  11.861  20.083  1.00  0.00    -0.644 OA
ENDBRANCH  34  38
ENDBRANCH  17  33
TORSDOF 13
ENDMDL
MODEL 4
REMARK VINA RESULT: -6.772875983      3.837      6.538
REMARK  13 active torsions:
REMARK  status: ('A' for Active; 'I' for Inactive)
REMARK    1  A    between atoms: C10_12  and  C11_13 
REMARK    2  A    between atoms: C11_13  and  O3_14 
REMARK    3  A    between atoms: C12_16  and  C13_17 
REMARK    4  A    between atoms: C13_17  and  O4_18 
REMARK    5  A    between atoms: O4_18  and  C14_19 
REMARK    6  A    between atoms: C14_19  and  C15_20 
REMARK    7  A    between atoms: C15_20  and  N1_21 
REMARK    8  A    between atoms: N1_21  and  C16_23 
REMARK    9  A    between atoms: C20_27  and  O5_28 
REMARK   10  A    between atoms: O5_28  and  C21_29 
REMARK   11  A    between atoms: C23_32  and  C24_33 
REMARK   12  A    between atoms: C24_33  and  C25_34 
REMARK   13  A    between atoms: C27_36  and  C29_38 
ROOT
HETATM    1  C1  UNL     1       2.844   7.511  18.819  1.00  0.00     0.017 C 
HETATM    2  C2  UNL     1       4.198   7.694  19.009  1.00  0.00    -0.056 C 
HETATM    3  C3  UNL     1       4.959   6.712  18.285  1.00  0.00     0.018 C 
HETATM    4  C4  UNL     1       4.933   5.289  18.816  1.00  0.00     0.021 C 
HETATM    5  C5  UNL     1       6.318   5.499  19.314  1.00  0.00     0.059 C 
HETATM    6  C6  UNL     1       6.408   6.604  18.272  1.00  0.00     0.021 C 
HETATM    7  C7  UNL     1       6.654   5.738  20.654  1.00  0.00     0.160 C 
HETATM    8  O1  UNL     1       7.726   5.133  21.019  1.00  0.00    -0.295 OA
HETATM    9  C8  UNL     1       6.206   6.458  21.848  1.00  0.00     0.200 C 
HETATM   10  O2  UNL     1       7.317   7.209  22.362  1.00  0.00    -0.371 OA
HETATM   11  C9  UNL     1       7.750   8.004  21.306  1.00  0.00     0.134 C 
HETATM   12  C10 UNL     1       8.665   9.196  21.710  1.00  0.00     0.045 C 
HETATM   13  C12 UNL     1       7.470  10.084  21.730  1.00  0.00     0.025 C 
HETATM   14  C18 UNL     1       6.761   9.019  20.919  1.00  0.00     0.029 C 
HETATM   15  C19 UNL     1       5.331   8.687  21.109  1.00  0.00     0.037 C 
HETATM   16  C20 UNL     1       4.525   8.840  19.844  1.00  0.00     0.166 C 
HETATM   17  C23 UNL     1       5.073   7.356  21.831  1.00  0.00     0.059 C 
ENDROOT
BRANCH  13  18
HETATM   18  C13 UNL     1       7.531  11.365  20.957  1.00  0.00     0.173 C 
BRANCH  18  19
HETATM   19  O4  UNL     1       8.010  12.499  21.408  1.00  0.00    -0.389 OA
BRANCH  19  20
HETATM   20  C14 UNL     1       7.941  13.691  20.796  1.00  0.00     0.186 C 
BRANCH  20  21
HETATM   21  C15 UNL     1       7.082  13.612  19.512  1.00  0.00     0.140 C 
BRANCH  21  22
HETATM   22  N1  UNL     1       5.883  14.350  19.710  1.00  0.00    -0.419 N 
ATOM     23  H1  UNL     1       5.033  14.146  19.185  1.00  0.00     0.153 HD
BRANCH  22  24
HETATM   24  C16 UNL     1       5.937  15.396  20.687  1.00  0.00     0.109 C 
HETATM   25  C17 UNL     1       5.494  16.731  20.132  1.00  0.00     0.026 C 
ENDBRANCH  22  24
ENDBRANCH  21  22
ENDBRANCH  20  21
ENDBRANCH  19  20
ENDBRANCH  18  19
ENDBRANCH  13  18
BRANCH  12  26
HETATM   26  C11 UNL     1       9.344   8.868  23.027  1.00  0.00     0.171 C 
BRANCH  26  27
HETATM   27  O3  UNL     1      10.604   9.384  23.141  1.00  0.00    -0.400 OA
ATOM     28  H3  UNL     1      10.664  10.123  23.735  1.00  0.00     0.209 HD
ENDBRANCH  26  27
ENDBRANCH  12  26
BRANCH  16  29
HETATM   29  O5  UNL     1       5.032   9.892  19.003  1.00  0.00    -0.311 OA
BRANCH  29  30
HETATM   30  C21 UNL     1       4.331  11.051  18.717  1.00  0.00     0.255 C 
HETATM   31  C22 UNL     1       3.883  11.422  17.358  1.00  0.00     0.126 C 
HETATM   32  O6  UNL     1       4.066  11.823  19.681  1.00  0.00    -0.266 OA
ENDBRANCH  29  30
ENDBRANCH  16  29
BRANCH  17  33
HETATM   33  C24 UNL     1       4.353   7.506  23.126  1.00  0.00    -0.060 C 
HETATM   34  C27 UNL     1       3.446   6.645  23.628  1.00  0.00     0.017 C 
HETATM   35  C28 UNL     1       2.810   6.980  24.974  1.00  0.00     0.056 C 
BRANCH  33  36
HETATM   36  C25 UNL     1       4.522   8.688  24.009  1.00  0.00     0.031 C 
HETATM   37  C26 UNL     1       5.819   8.570  24.764  1.00  0.00     0.010 C 
ENDBRANCH  33  36
BRANCH  34  38
HETATM   38  C29 UNL     1       3.043   5.377  23.101  1.00  0.00     0.205 C 
HETATM   39  O7  UNL     1       2.095   5.038  22.410  1.00  0.00    -0.644 OA
HETATM   40  O8  UNL     1       3.903   4.267  23.435  1.00  0.00    -0.644 OA
ENDBRANCH  34  38
ENDBRANCH  17  33
TORSDOF 13
ENDMDL
MODEL 5
REMARK VINA RESULT: -6.770129032      2.930      6.754
REMARK  13 active torsions:
REMARK  status: ('A' for Active; 'I' for Inactive)
REMARK    1  A    between atoms: C10_12  and  C11_13 
REMARK    2  A    between atoms: C11_13  and  O3_14 
REMARK    3  A    between atoms: C12_16  and  C13_17 
REMARK    4  A    between atoms: C13_17  and  O4_18 
REMARK    5  A    between atoms: O4_18  and  C14_19 
REMARK    6  A    between atoms: C14_19  and  C15_20 
REMARK    7  A    between atoms: C15_20  and  N1_21 
REMARK    8  A    between atoms: N1_21  and  C16_23 
REMARK    9  A    between atoms: C20_27  and  O5_28 
REMARK   10  A    between atoms: O5_28  and  C21_29 
REMARK   11  A    between atoms: C23_32  and  C24_33 
REMARK   12  A    between atoms: C24_33  and  C25_34 
REMARK   13  A    between atoms: C27_36  and  C29_38 
ROOT
HETATM    1  C1  UNL     1       7.849   5.918  18.595  1.00  0.00     0.017 C 
HETATM    2  C2  UNL     1       6.556   5.994  19.068  1.00  0.00    -0.056 C 
HETATM    3  C3  UNL     1       5.683   6.586  18.091  1.00  0.00     0.018 C 
HETATM    4  C4  UNL     1       5.830   8.077  17.845  1.00  0.00     0.021 C 
HETATM    5  C5  UNL     1       4.565   8.279  18.600  1.00  0.00     0.059 C 
HETATM    6  C6  UNL     1       4.259   6.828  18.263  1.00  0.00     0.021 C 
HETATM    7  C7  UNL     1       4.493   8.748  19.920  1.00  0.00     0.160 C 
HETATM    8  O1  UNL     1       3.521   9.564  20.112  1.00  0.00    -0.295 OA
HETATM    9  C8  UNL     1       5.155   8.642  21.222  1.00  0.00     0.200 C 
HETATM   10  O2  UNL     1       4.155   8.352  22.211  1.00  0.00    -0.371 OA
HETATM   11  C9  UNL     1       3.515   7.201  21.767  1.00  0.00     0.134 C 
HETATM   12  C10 UNL     1       2.679   6.452  22.845  1.00  0.00     0.045 C 
HETATM   13  C12 UNL     1       3.844   5.559  23.103  1.00  0.00     0.025 C 
HETATM   14  C18 UNL     1       4.395   6.026  21.771  1.00  0.00     0.029 C 
HETATM   15  C19 UNL     1       5.839   6.252  21.538  1.00  0.00     0.037 C 
HETATM   16  C20 UNL     1       6.382   5.429  20.398  1.00  0.00     0.166 C 
HETATM   17  C23 UNL     1       6.251   7.731  21.462  1.00  0.00     0.059 C 
ENDROOT
BRANCH  13  18
HETATM   18  C13 UNL     1       3.616   4.080  23.077  1.00  0.00     0.173 C 
BRANCH  18  19
HETATM   19  O4  UNL     1       3.003   3.392  24.010  1.00  0.00    -0.389 OA
BRANCH  19  20
HETATM   20  C14 UNL     1       2.296   2.266  23.833  1.00  0.00     0.186 C 
BRANCH  20  21
HETATM   21  C15 UNL     1       3.217   1.023  23.818  1.00  0.00     0.140 C 
BRANCH  21  22
HETATM   22  N1  UNL     1       3.656   0.788  22.486  1.00  0.00    -0.419 N 
ATOM     23  H1  UNL     1       4.645   0.695  22.254  1.00  0.00     0.153 HD
BRANCH  22  24
HETATM   24  C16 UNL     1       2.632   0.688  21.489  1.00  0.00     0.109 C 
HETATM   25  C17 UNL     1       2.993   1.416  20.213  1.00  0.00     0.026 C 
ENDBRANCH  22  24
ENDBRANCH  21  22
ENDBRANCH  20  21
ENDBRANCH  19  20
ENDBRANCH  18  19
ENDBRANCH  13  18
BRANCH  12  26
HETATM   26  C11 UNL     1       2.273   7.439  23.923  1.00  0.00     0.171 C 
BRANCH  26  27
HETATM   27  O3  UNL     1       1.760   8.609  23.437  1.00  0.00    -0.400 OA
ATOM     28  H3  UNL     1       1.561   9.249  24.109  1.00  0.00     0.209 HD
ENDBRANCH  26  27
ENDBRANCH  12  26
BRANCH  16  29
HETATM   29  O5  UNL     1       5.707   4.163  20.275  1.00  0.00    -0.311 OA
BRANCH  29  30
HETATM   30  C21 UNL     1       6.339   2.939  20.415  1.00  0.00     0.255 C 
HETATM   31  C22 UNL     1       7.155   2.315  19.354  1.00  0.00     0.126 C 
HETATM   32  O6  UNL     1       6.201   2.337  21.517  1.00  0.00    -0.266 OA
ENDBRANCH  29  30
ENDBRANCH  16  29
BRANCH  17  33
HETATM   33  C24 UNL     1       7.206   8.142  22.528  1.00  0.00    -0.060 C 
HETATM   34  C27 UNL     1       8.143   9.105  22.418  1.00  0.00     0.017 C 
HETATM   35  C28 UNL     1       9.037   9.376  23.626  1.00  0.00     0.056 C 
BRANCH  33  36
HETATM   36  C25 UNL     1       7.269   7.477  23.854  1.00  0.00     0.031 C 
HETATM   37  C26 UNL     1       6.162   7.998  24.731  1.00  0.00     0.010 C 
ENDBRANCH  33  36
BRANCH  34  38
HETATM   38  C29 UNL     1       8.373   9.996  21.322  1.00  0.00     0.205 C 
HETATM   39  O7  UNL     1       8.823   9.821  20.201  1.00  0.00    -0.644 OA
HETATM   40  O8  UNL     1       8.011  11.373  21.559  1.00  0.00    -0.644 OA
ENDBRANCH  34  38
ENDBRANCH  17  33
TORSDOF 13
ENDMDL
