MODEL 1
REMARK VINA RESULT: -7.833237144      0.000      0.000
REMARK  13 active torsions:
REMARK  status: ('A' for Active; 'I' for Inactive)
REMARK    1  A    between atoms: C2_2  and  C3_3 
REMARK    2  A    between atoms: C7_10  and  C8_11 
REMARK    3  A    between atoms: C8_11  and  N1_12 
REMARK       I    between atoms: N1_12  and  C9_14 
REMARK    4  A    between atoms: C9_14  and  C10_16 
REMARK    5  A    between atoms: C10_16  and  C11_17 
REMARK    6  A    between atoms: C11_17  and  C12_18 
REMARK    7  A    between atoms: C12_18  and  C13_19 
REMARK    8  A    between atoms: C13_19  and  C14_20 
REMARK    9  A    between atoms: C14_20  and  C15_21 
REMARK   10  A    between atoms: C15_21  and  N2_22 
REMARK       I    between atoms: N2_22  and  C16_24 
REMARK   11  A    between atoms: C19_28  and  N3_29 
REMARK       I    between atoms: N3_29  and  C20_31 
REMARK   12  A    between atoms: C20_31  and  O7_33 
REMARK   13  A    between atoms: O7_33  and  C21_34 
ROOT
HETATM    1  C3  UNL     1       7.604   8.594  22.084  1.00  0.00    -0.010 C 
HETATM    2  C4  UNL     1       6.625   9.715  21.978  1.00  0.00     0.179 C 
HETATM    3  O1  UNL     1       5.391   9.463  21.500  1.00  0.00    -0.372 OA
HETATM    4  C5  UNL     1       4.623   8.558  22.200  1.00  0.00     0.250 C 
HETATM    5  C6  UNL     1       4.910   7.212  21.593  1.00  0.00     0.291 C 
HETATM    6  O2  UNL     1       4.060   6.321  21.868  1.00  0.00    -0.262 OA
HETATM    7  O3  UNL     1       5.896   6.663  20.781  1.00  0.00    -0.312 OA
HETATM    8  C7  UNL     1       6.876   7.344  19.985  1.00  0.00     0.150 C 
HETATM    9  C18 UNL     1       7.958   7.958  20.761  1.00  0.00     0.046 C 
HETATM   10  C19 UNL     1       4.901   8.546  23.672  1.00  0.00     0.195 C 
HETATM   11  C25 UNL     1       6.108   7.763  23.908  1.00  0.00     0.153 C 
HETATM   12  O8  UNL     1       6.078   7.099  24.949  1.00  0.00    -0.296 OA
HETATM   13  C26 UNL     1       7.363   7.601  23.159  1.00  0.00     0.092 C 
ENDROOT
BRANCH   8  14
HETATM   14  C8  UNL     1       7.446   6.299  19.046  1.00  0.00     0.155 C 
BRANCH  14  15
HETATM   15  N1  UNL     1       6.930   4.997  19.444  1.00  0.00    -0.359 N 
HETATM   16  C9  UNL     1       6.176   4.193  18.547  1.00  0.00     0.217 C 
HETATM   17  O4  UNL     1       5.969   4.636  17.402  1.00  0.00    -0.274 OA
ATOM     18  H1  UNL     1       7.113   4.654  20.388  1.00  0.00     0.162 HD
BRANCH  16  19
HETATM   19  C10 UNL     1       5.673   2.895  18.977  1.00  0.00     0.103 C 
BRANCH  19  20
HETATM   20  C11 UNL     1       6.448   1.756  18.292  1.00  0.00     0.009 C 
BRANCH  20  21
HETATM   21  C12 UNL     1       7.774   1.506  18.903  1.00  0.00     0.001 C 
BRANCH  21  22
HETATM   22  C13 UNL     1       8.958   1.818  18.088  1.00  0.00     0.002 C 
BRANCH  22  23
HETATM   23  C14 UNL     1       9.789   0.764  17.513  1.00  0.00     0.020 C 
BRANCH  23  24
HETATM   24  C15 UNL     1       9.319  -0.076  16.395  1.00  0.00     0.122 C 
BRANCH  24  25
HETATM   25  N2  UNL     1      10.154  -1.180  16.029  1.00  0.00    -0.361 N 
HETATM   26  C16 UNL     1       9.625  -2.251  15.282  1.00  0.00     0.213 C 
HETATM   27  C17 UNL     1      10.537  -3.386  14.922  1.00  0.00     0.117 C 
HETATM   28  O5  UNL     1       8.415  -2.281  14.909  1.00  0.00    -0.274 OA
ATOM     29  H2  UNL     1      11.135  -1.190  16.310  1.00  0.00     0.162 HD
ENDBRANCH  24  25
ENDBRANCH  23  24
ENDBRANCH  22  23
ENDBRANCH  21  22
ENDBRANCH  20  21
ENDBRANCH  19  20
ENDBRANCH  16  19
ENDBRANCH  14  15
ENDBRANCH   8  14
BRANCH   1  30
HETATM   30  C2  UNL     1       8.924   9.316  22.468  1.00  0.00     0.007 C 
HETATM   31  C1  UNL     1       9.316   9.017  23.872  1.00  0.00     0.006 C 
ENDBRANCH   1  30
BRANCH  10  32
HETATM   32  N3  UNL     1       3.724   8.075  24.354  1.00  0.00    -0.322 N 
HETATM   33  C20 UNL     1       3.114   8.657  25.457  1.00  0.00     0.362 C 
HETATM   34  O6  UNL     1       3.582   9.699  25.960  1.00  0.00    -0.238 OA
ATOM     35  H3  UNL     1       3.294   7.225  23.989  1.00  0.00     0.165 HD
BRANCH  33  36
HETATM   36  O7  UNL     1       1.985   8.105  26.019  1.00  0.00    -0.294 OA
BRANCH  36  37
HETATM   37  C21 UNL     1       0.710   8.102  25.455  1.00  0.00     0.061 C 
HETATM   38  C22 UNL     1       0.500   6.924  24.505  1.00  0.00     0.046 C 
HETATM   39  C23 UNL     1      -0.284   7.890  26.603  1.00  0.00     0.046 C 
HETATM   40  C24 UNL     1       0.356   9.376  24.753  1.00  0.00     0.046 C 
ENDBRANCH  36  37
ENDBRANCH  33  36
ENDBRANCH  10  32
TORSDOF 13
ENDMDL
MODEL 2
REMARK VINA RESULT: -7.753012327      3.580      5.424
REMARK  13 active torsions:
REMARK  status: ('A' for Active; 'I' for Inactive)
REMARK    1  A    between atoms: C2_2  and  C3_3 
REMARK    2  A    between atoms: C7_10  and  C8_11 
REMARK    3  A    between atoms: C8_11  and  N1_12 
REMARK       I    between atoms: N1_12  and  C9_14 
REMARK    4  A    between atoms: C9_14  and  C10_16 
REMARK    5  A    between atoms: C10_16  and  C11_17 
REMARK    6  A    between atoms: C11_17  and  C12_18 
REMARK    7  A    between atoms: C12_18  and  C13_19 
REMARK    8  A    between atoms: C13_19  and  C14_20 
REMARK    9  A    between atoms: C14_20  and  C15_21 
REMARK   10  A    between atoms: C15_21  and  N2_22 
REMARK       I    between atoms: N2_22  and  C16_24 
REMARK   11  A    between atoms: C19_28  and  N3_29 
REMARK       I    between atoms: N3_29  and  C20_31 
REMARK   12  A    between atoms: C20_31  and  O7_33 
REMARK   13  A    between atoms: O7_33  and  C21_34 
ROOT
HETATM    1  C3  UNL     1       7.251   8.425  21.524  1.00  0.00    -0.010 C 
HETATM    2  C4  UNL     1       8.379   8.978  20.718  1.00  0.00     0.179 C 
HETATM    3  O1  UNL     1       8.507   8.605  19.430  1.00  0.00    -0.372 OA
HETATM    4  C5  UNL     1       7.460   8.903  18.586  1.00  0.00     0.250 C 
HETATM    5  C6  UNL     1       6.542   7.711  18.626  1.00  0.00     0.291 C 
HETATM    6  O2  UNL     1       5.717   7.653  17.674  1.00  0.00    -0.262 OA
HETATM    7  O3  UNL     1       6.351   6.616  19.460  1.00  0.00    -0.312 OA
HETATM    8  C7  UNL     1       7.227   6.103  20.474  1.00  0.00     0.150 C 
HETATM    9  C18 UNL     1       7.288   6.925  21.686  1.00  0.00     0.046 C 
HETATM   10  C19 UNL     1       6.722  10.152  18.961  1.00  0.00     0.195 C 
HETATM   11  C25 UNL     1       5.806   9.839  20.051  1.00  0.00     0.153 C 
HETATM   12  O8  UNL     1       4.734  10.450  19.995  1.00  0.00    -0.296 OA
HETATM   13  C26 UNL     1       5.896   8.942  21.212  1.00  0.00     0.092 C 
ENDROOT
BRANCH   8  14
HETATM   14  C8  UNL     1       6.703   4.722  20.815  1.00  0.00     0.155 C 
BRANCH  14  15
HETATM   15  N1  UNL     1       7.232   3.778  19.839  1.00  0.00    -0.359 N 
HETATM   16  C9  UNL     1       6.862   2.406  19.858  1.00  0.00     0.217 C 
HETATM   17  O4  UNL     1       6.065   2.031  20.738  1.00  0.00    -0.274 OA
ATOM     18  H1  UNL     1       7.883   4.109  19.126  1.00  0.00     0.162 HD
BRANCH  16  19
HETATM   19  C10 UNL     1       7.410   1.488  18.869  1.00  0.00     0.103 C 
BRANCH  19  20
HETATM   20  C11 UNL     1       8.277   2.243  17.847  1.00  0.00     0.009 C 
BRANCH  20  21
HETATM   21  C12 UNL     1       9.681   1.772  17.815  1.00  0.00     0.001 C 
BRANCH  21  22
HETATM   22  C13 UNL     1       9.902   0.338  17.567  1.00  0.00     0.002 C 
BRANCH  22  23
HETATM   23  C14 UNL     1       9.382  -0.319  16.371  1.00  0.00     0.020 C 
BRANCH  23  24
HETATM   24  C15 UNL     1      10.048  -1.491  15.775  1.00  0.00     0.122 C 
BRANCH  24  25
HETATM   25  N2  UNL     1       9.295  -2.231  14.807  1.00  0.00    -0.361 N 
HETATM   26  C16 UNL     1       9.079  -3.613  14.984  1.00  0.00     0.213 C 
HETATM   27  C17 UNL     1       8.285  -4.347  13.943  1.00  0.00     0.117 C 
HETATM   28  O5  UNL     1       9.529  -4.243  15.984  1.00  0.00    -0.274 OA
ATOM     29  H2  UNL     1       8.914  -1.757  13.988  1.00  0.00     0.162 HD
ENDBRANCH  24  25
ENDBRANCH  23  24
ENDBRANCH  22  23
ENDBRANCH  21  22
ENDBRANCH  20  21
ENDBRANCH  19  20
ENDBRANCH  16  19
ENDBRANCH  14  15
ENDBRANCH   8  14
BRANCH   1  30
HETATM   30  C2  UNL     1       7.569   8.922  22.961  1.00  0.00     0.007 C 
HETATM   31  C1  UNL     1       9.036   9.071  23.168  1.00  0.00     0.006 C 
ENDBRANCH   1  30
BRANCH  10  32
HETATM   32  N3  UNL     1       6.104  10.688  17.777  1.00  0.00    -0.322 N 
HETATM   33  C20 UNL     1       5.904  12.029  17.477  1.00  0.00     0.362 C 
HETATM   34  O6  UNL     1       6.277  12.915  18.274  1.00  0.00    -0.238 OA
ATOM     35  H3  UNL     1       5.777  10.012  17.086  1.00  0.00     0.165 HD
BRANCH  33  36
HETATM   36  O7  UNL     1       5.296  12.413  16.304  1.00  0.00    -0.294 OA
BRANCH  36  37
HETATM   37  C21 UNL     1       3.961  12.789  16.161  1.00  0.00     0.061 C 
HETATM   38  C22 UNL     1       3.794  14.305  16.064  1.00  0.00     0.046 C 
HETATM   39  C23 UNL     1       3.483  12.234  14.815  1.00  0.00     0.046 C 
HETATM   40  C24 UNL     1       3.065  12.258  17.236  1.00  0.00     0.046 C 
ENDBRANCH  36  37
ENDBRANCH  33  36
ENDBRANCH  10  32
TORSDOF 13
ENDMDL
MODEL 3
REMARK VINA RESULT: -7.726760363      3.328      8.083
REMARK  13 active torsions:
REMARK  status: ('A' for Active; 'I' for Inactive)
REMARK    1  A    between atoms: C2_2  and  C3_3 
REMARK    2  A    between atoms: C7_10  and  C8_11 
REMARK    3  A    between atoms: C8_11  and  N1_12 
REMARK       I    between atoms: N1_12  and  C9_14 
REMARK    4  A    between atoms: C9_14  and  C10_16 
REMARK    5  A    between atoms: C10_16  and  C11_17 
REMARK    6  A    between atoms: C11_17  and  C12_18 
REMARK    7  A    between atoms: C12_18  and  C13_19 
REMARK    8  A    between atoms: C13_19  and  C14_20 
REMARK    9  A    between atoms: C14_20  and  C15_21 
REMARK   10  A    between atoms: C15_21  and  N2_22 
REMARK       I    between atoms: N2_22  and  C16_24 
REMARK   11  A    between atoms: C19_28  and  N3_29 
REMARK       I    between atoms: N3_29  and  C20_31 
REMARK   12  A    between atoms: C20_31  and  O7_33 
REMARK   13  A    between atoms: O7_33  and  C21_34 
ROOT
HETATM    1  C3  UNL     1       6.820   2.405  18.719  1.00  0.00    -0.010 C 
HETATM    2  C4  UNL     1       7.025   1.834  20.084  1.00  0.00     0.179 C 
HETATM    3  O1  UNL     1       6.661   2.562  21.158  1.00  0.00    -0.372 OA
HETATM    4  C5  UNL     1       5.332   2.909  21.256  1.00  0.00     0.250 C 
HETATM    5  C6  UNL     1       5.198   4.240  20.566  1.00  0.00     0.291 C 
HETATM    6  O2  UNL     1       4.142   4.871  20.845  1.00  0.00    -0.262 OA
HETATM    7  O3  UNL     1       5.951   4.990  19.671  1.00  0.00    -0.312 OA
HETATM    8  C7  UNL     1       7.332   4.829  19.315  1.00  0.00     0.150 C 
HETATM    9  C18 UNL     1       7.599   3.670  18.458  1.00  0.00     0.046 C 
HETATM   10  C19 UNL     1       4.402   1.903  20.651  1.00  0.00     0.195 C 
HETATM   11  C25 UNL     1       4.386   2.097  19.206  1.00  0.00     0.153 C 
HETATM   12  O8  UNL     1       3.281   1.908  18.688  1.00  0.00    -0.296 OA
HETATM   13  C26 UNL     1       5.421   2.473  18.232  1.00  0.00     0.092 C 
ENDROOT
BRANCH   8  14
HETATM   14  C8  UNL     1       7.724   6.104  18.593  1.00  0.00     0.155 C 
BRANCH  14  15
HETATM   15  N1  UNL     1       7.115   7.229  19.289  1.00  0.00    -0.359 N 
HETATM   16  C9  UNL     1       7.706   8.521  19.268  1.00  0.00     0.217 C 
HETATM   17  O4  UNL     1       8.767   8.666  18.633  1.00  0.00    -0.274 OA
ATOM     18  H1  UNL     1       6.245   7.087  19.802  1.00  0.00     0.162 HD
BRANCH  16  19
HETATM   19  C10 UNL     1       7.072   9.626  19.976  1.00  0.00     0.103 C 
BRANCH  19  20
HETATM   20  C11 UNL     1       6.845   9.266  21.454  1.00  0.00     0.009 C 
BRANCH  20  21
HETATM   21  C12 UNL     1       7.959   9.690  22.334  1.00  0.00     0.001 C 
BRANCH  21  22
HETATM   22  C13 UNL     1       8.804   8.628  22.905  1.00  0.00     0.002 C 
BRANCH  22  23
HETATM   23  C14 UNL     1       9.173   8.624  24.318  1.00  0.00     0.020 C 
BRANCH  23  24
HETATM   24  C15 UNL     1       8.375   7.908  25.329  1.00  0.00     0.122 C 
BRANCH  24  25
HETATM   25  N2  UNL     1       7.276   7.128  24.843  1.00  0.00    -0.361 N 
HETATM   26  C16 UNL     1       5.992   7.701  24.740  1.00  0.00     0.213 C 
HETATM   27  C17 UNL     1       4.872   6.845  24.227  1.00  0.00     0.117 C 
HETATM   28  O5  UNL     1       5.762   8.902  25.065  1.00  0.00    -0.274 OA
ATOM     29  H2  UNL     1       7.424   6.156  24.570  1.00  0.00     0.162 HD
ENDBRANCH  24  25
ENDBRANCH  23  24
ENDBRANCH  22  23
ENDBRANCH  21  22
ENDBRANCH  20  21
ENDBRANCH  19  20
ENDBRANCH  16  19
ENDBRANCH  14  15
ENDBRANCH   8  14
BRANCH   1  30
HETATM   30  C2  UNL     1       7.535   1.378  17.799  1.00  0.00     0.007 C 
HETATM   31  C1  UNL     1       8.964   1.212  18.183  1.00  0.00     0.006 C 
ENDBRANCH   1  30
BRANCH  10  32
HETATM   32  N3  UNL     1       3.121   2.020  21.297  1.00  0.00    -0.322 N 
HETATM   33  C20 UNL     1       2.725   1.402  22.476  1.00  0.00     0.362 C 
HETATM   34  O6  UNL     1       3.512   0.654  23.092  1.00  0.00    -0.238 OA
ATOM     35  H3  UNL     1       2.432   2.620  20.842  1.00  0.00     0.165 HD
BRANCH  33  36
HETATM   36  O7  UNL     1       1.464   1.598  22.993  1.00  0.00    -0.294 OA
BRANCH  36  37
HETATM   37  C21 UNL     1       1.003   2.765  23.602  1.00  0.00     0.061 C 
HETATM   38  C22 UNL     1       0.186   3.632  22.646  1.00  0.00     0.046 C 
HETATM   39  C23 UNL     1       0.030   2.336  24.706  1.00  0.00     0.046 C 
HETATM   40  C24 UNL     1       2.087   3.592  24.222  1.00  0.00     0.046 C 
ENDBRANCH  36  37
ENDBRANCH  33  36
ENDBRANCH  10  32
TORSDOF 13
ENDMDL
MODEL 4
REMARK VINA RESULT: -7.667664394      1.334      1.930
REMARK  13 active torsions:
REMARK  status: ('A' for Active; 'I' for Inactive)
REMARK    1  A    between atoms: C2_2  and  C3_3 
REMARK    2  A    between atoms: C7_10  and  C8_11 
REMARK    3  A    between atoms: C8_11  and  N1_12 
REMARK       I    between atoms: N1_12  and  C9_14 
REMARK    4  A    between atoms: C9_14  and  C10_16 
REMARK    5  A    between atoms: C10_16  and  C11_17 
REMARK    6  A    between atoms: C11_17  and  C12_18 
REMARK    7  A    between atoms: C12_18  and  C13_19 
REMARK    8  A    between atoms: C13_19  and  C14_20 
REMARK    9  A    between atoms: C14_20  and  C15_21 
REMARK   10  A    between atoms: C15_21  and  N2_22 
REMARK       I    between atoms: N2_22  and  C16_24 
REMARK   11  A    between atoms: C19_28  and  N3_29 
REMARK       I    between atoms: N3_29  and  C20_31 
REMARK   12  A    between atoms: C20_31  and  O7_33 
REMARK   13  A    between atoms: O7_33  and  C21_34 
ROOT
HETATM    1  C3  UNL     1       7.705   8.626  22.089  1.00  0.00    -0.010 C 
HETATM    2  C4  UNL     1       6.743   9.767  22.029  1.00  0.00     0.179 C 
HETATM    3  O1  UNL     1       5.497   9.548  21.570  1.00  0.00    -0.372 OA
HETATM    4  C5  UNL     1       4.726   8.639  22.262  1.00  0.00     0.250 C 
HETATM    5  C6  UNL     1       4.977   7.304  21.615  1.00  0.00     0.291 C 
HETATM    6  O2  UNL     1       4.117   6.421  21.884  1.00  0.00    -0.262 OA
HETATM    7  O3  UNL     1       5.938   6.759  20.771  1.00  0.00    -0.312 OA
HETATM    8  C7  UNL     1       6.915   7.443  19.974  1.00  0.00     0.150 C 
HETATM    9  C18 UNL     1       8.022   8.018  20.744  1.00  0.00     0.046 C 
HETATM   10  C19 UNL     1       5.032   8.585  23.727  1.00  0.00     0.195 C 
HETATM   11  C25 UNL     1       6.229   7.776  23.920  1.00  0.00     0.153 C 
HETATM   12  O8  UNL     1       6.207   7.086  24.945  1.00  0.00    -0.296 OA
HETATM   13  C26 UNL     1       7.466   7.611  23.143  1.00  0.00     0.092 C 
ENDROOT
BRANCH   8  14
HETATM   14  C8  UNL     1       7.448   6.413  18.998  1.00  0.00     0.155 C 
BRANCH  14  15
HETATM   15  N1  UNL     1       7.439   5.113  19.655  1.00  0.00    -0.359 N 
HETATM   16  C9  UNL     1       6.994   3.944  18.980  1.00  0.00     0.217 C 
HETATM   17  O4  UNL     1       6.611   4.063  17.801  1.00  0.00    -0.274 OA
ATOM     18  H1  UNL     1       7.758   5.039  20.621  1.00  0.00     0.162 HD
BRANCH  16  19
HETATM   19  C10 UNL     1       6.995   2.659  19.666  1.00  0.00     0.103 C 
BRANCH  19  20
HETATM   20  C11 UNL     1       7.269   1.514  18.676  1.00  0.00     0.009 C 
BRANCH  20  21
HETATM   21  C12 UNL     1       8.703   1.152  18.588  1.00  0.00     0.001 C 
BRANCH  21  22
HETATM   22  C13 UNL     1       9.314   1.154  17.249  1.00  0.00     0.002 C 
BRANCH  22  23
HETATM   23  C14 UNL     1       9.128   0.039  16.324  1.00  0.00     0.020 C 
BRANCH  23  24
HETATM   24  C15 UNL     1       7.924  -0.082  15.482  1.00  0.00     0.122 C 
BRANCH  24  25
HETATM   25  N2  UNL     1       7.371   1.139  14.977  1.00  0.00    -0.361 N 
HETATM   26  C16 UNL     1       6.030   1.477  15.251  1.00  0.00     0.213 C 
HETATM   27  C17 UNL     1       5.495   2.765  14.699  1.00  0.00     0.117 C 
HETATM   28  O5  UNL     1       5.276   0.732  15.942  1.00  0.00    -0.274 OA
ATOM     29  H2  UNL     1       7.950   1.766  14.417  1.00  0.00     0.162 HD
ENDBRANCH  24  25
ENDBRANCH  23  24
ENDBRANCH  22  23
ENDBRANCH  21  22
ENDBRANCH  20  21
ENDBRANCH  19  20
ENDBRANCH  16  19
ENDBRANCH  14  15
ENDBRANCH   8  14
BRANCH   1  30
HETATM   30  C2  UNL     1       9.044   9.316  22.465  1.00  0.00     0.007 C 
HETATM   31  C1  UNL     1       9.431   9.014  23.870  1.00  0.00     0.006 C 
ENDBRANCH   1  30
BRANCH  10  32
HETATM   32  N3  UNL     1       3.860   8.118  24.419  1.00  0.00    -0.322 N 
HETATM   33  C20 UNL     1       3.249   8.712  25.516  1.00  0.00     0.362 C 
HETATM   34  O6  UNL     1       3.713   9.764  26.003  1.00  0.00    -0.238 OA
ATOM     35  H3  UNL     1       3.433   7.260  24.068  1.00  0.00     0.165 HD
BRANCH  33  36
HETATM   36  O7  UNL     1       2.125   8.162  26.090  1.00  0.00    -0.294 OA
BRANCH  36  37
HETATM   37  C21 UNL     1       0.836   8.203  25.562  1.00  0.00     0.061 C 
HETATM   38  C22 UNL     1       0.478   6.925  24.806  1.00  0.00     0.046 C 
HETATM   39  C23 UNL     1      -0.130   8.264  26.751  1.00  0.00     0.046 C 
HETATM   40  C24 UNL     1       0.579   9.389  24.685  1.00  0.00     0.046 C 
ENDBRANCH  36  37
ENDBRANCH  33  36
ENDBRANCH  10  32
TORSDOF 13
ENDMDL
MODEL 5
REMARK VINA RESULT: -7.651142836      3.826      8.367
REMARK  13 active torsions:
REMARK  status: ('A' for Active; 'I' for Inactive)
REMARK    1  A    between atoms: C2_2  and  C3_3 
REMARK    2  A    between atoms: C7_10  and  C8_11 
REMARK    3  A    between atoms: C8_11  and  N1_12 
REMARK       I    between atoms: N1_12  and  C9_14 
REMARK    4  A    between atoms: C9_14  and  C10_16 
REMARK    5  A    between atoms: C10_16  and  C11_17 
REMARK    6  A    between atoms: C11_17  and  C12_18 
REMARK    7  A    between atoms: C12_18  and  C13_19 
REMARK    8  A    between atoms: C13_19  and  C14_20 
REMARK    9  A    between atoms: C14_20  and  C15_21 
REMARK   10  A    between atoms: C15_21  and  N2_22 
REMARK       I    between atoms: N2_22  and  C16_24 
REMARK   11  A    between atoms: C19_28  and  N3_29 
REMARK       I    between atoms: N3_29  and  C20_31 
REMARK   12  A    between atoms: C20_31  and  O7_33 
REMARK   13  A    between atoms: O7_33  and  C21_34 
ROOT
HETATM    1  C3  UNL     1       6.955   5.166  19.125  1.00  0.00    -0.010 C 
HETATM    2  C4  UNL     1       6.271   5.637  17.885  1.00  0.00     0.179 C 
HETATM    3  O1  UNL     1       5.209   6.459  17.996  1.00  0.00    -0.372 OA
HETATM    4  C5  UNL     1       5.421   7.673  18.612  1.00  0.00     0.250 C 
HETATM    5  C6  UNL     1       5.143   7.451  20.074  1.00  0.00     0.291 C 
HETATM    6  O2  UNL     1       4.954   8.508  20.737  1.00  0.00    -0.262 OA
HETATM    7  O3  UNL     1       5.034   6.357  20.923  1.00  0.00    -0.312 OA
HETATM    8  C7  UNL     1       4.870   4.974  20.579  1.00  0.00     0.150 C 
HETATM    9  C18 UNL     1       6.078   4.343  20.038  1.00  0.00     0.046 C 
HETATM   10  C19 UNL     1       6.803   8.215  18.412  1.00  0.00     0.195 C 
HETATM   11  C25 UNL     1       7.703   7.543  19.341  1.00  0.00     0.153 C 
HETATM   12  O8  UNL     1       8.591   8.272  19.795  1.00  0.00    -0.296 OA
HETATM   13  C26 UNL     1       7.773   6.167  19.853  1.00  0.00     0.092 C 
ENDROOT
BRANCH   8  14
HETATM   14  C8  UNL     1       4.454   4.274  21.858  1.00  0.00     0.155 C 
BRANCH  14  15
HETATM   15  N1  UNL     1       4.402   5.265  22.924  1.00  0.00    -0.359 N 
HETATM   16  C9  UNL     1       3.173   5.634  23.534  1.00  0.00     0.217 C 
HETATM   17  O4  UNL     1       2.133   5.082  23.128  1.00  0.00    -0.274 OA
ATOM     18  H1  UNL     1       5.267   5.703  23.241  1.00  0.00     0.162 HD
BRANCH  16  19
HETATM   19  C10 UNL     1       3.155   6.629  24.598  1.00  0.00     0.103 C 
BRANCH  19  20
HETATM   20  C11 UNL     1       3.513   8.020  24.048  1.00  0.00     0.009 C 
BRANCH  20  21
HETATM   21  C12 UNL     1       4.589   8.689  24.814  1.00  0.00     0.001 C 
BRANCH  21  22
HETATM   22  C13 UNL     1       5.965   8.217  24.592  1.00  0.00     0.002 C 
BRANCH  22  23
HETATM   23  C14 UNL     1       6.823   8.817  23.573  1.00  0.00     0.020 C 
BRANCH  23  24
HETATM   24  C15 UNL     1       8.208   8.362  23.356  1.00  0.00     0.122 C 
BRANCH  24  25
HETATM   25  N2  UNL     1       9.033   8.243  24.521  1.00  0.00    -0.361 N 
HETATM   26  C16 UNL     1      10.329   8.798  24.531  1.00  0.00     0.213 C 
HETATM   27  C17 UNL     1      11.156   8.646  25.773  1.00  0.00     0.117 C 
HETATM   28  O5  UNL     1      10.807   9.413  23.534  1.00  0.00    -0.274 OA
ATOM     29  H2  UNL     1       8.681   7.755  25.345  1.00  0.00     0.162 HD
ENDBRANCH  24  25
ENDBRANCH  23  24
ENDBRANCH  22  23
ENDBRANCH  21  22
ENDBRANCH  20  21
ENDBRANCH  19  20
ENDBRANCH  16  19
ENDBRANCH  14  15
ENDBRANCH   8  14
BRANCH   1  30
HETATM   30  C2  UNL     1       7.961   4.110  18.591  1.00  0.00     0.007 C 
HETATM   31  C1  UNL     1       7.557   2.732  18.983  1.00  0.00     0.006 C 
ENDBRANCH   1  30
BRANCH  10  32
HETATM   32  N3  UNL     1       6.752   9.648  18.539  1.00  0.00    -0.322 N 
HETATM   33  C20 UNL     1       6.631  10.570  17.508  1.00  0.00     0.362 C 
HETATM   34  O6  UNL     1       6.552  10.185  16.323  1.00  0.00    -0.238 OA
ATOM     35  H3  UNL     1       6.812  10.026  19.485  1.00  0.00     0.165 HD
BRANCH  33  36
HETATM   36  O7  UNL     1       6.594  11.922  17.763  1.00  0.00    -0.294 OA
BRANCH  36  37
HETATM   37  C21 UNL     1       5.556  12.606  18.396  1.00  0.00     0.061 C 
HETATM   38  C22 UNL     1       6.063  13.770  19.245  1.00  0.00     0.046 C 
HETATM   39  C23 UNL     1       4.703  13.240  17.291  1.00  0.00     0.046 C 
HETATM   40  C24 UNL     1       4.674  11.728  19.229  1.00  0.00     0.046 C 
ENDBRANCH  36  37
ENDBRANCH  33  36
ENDBRANCH  10  32
TORSDOF 13
ENDMDL
