MODEL 1
REMARK VINA RESULT: -4.023889646      0.000      0.000
REMARK  3 active torsions:
REMARK  status: ('A' for Active; 'I' for Inactive)
REMARK       I    between atoms: N2_5  and  C4_6 
REMARK       I    between atoms: C4_6  and  N4_10 
REMARK       I    between atoms: N4_10  and  C5_12 
REMARK       I    between atoms: C5_12  and  N8_19 
REMARK    1  A    between atoms: N5_13  and  N6_15 
REMARK    2  A    between atoms: N8_19  and  C7_21 
REMARK    3  A    between atoms: C9_23  and  N9_24 
ROOT
HETATM    1  C1  UNL     1      53.708  10.186  51.553  1.00  0.00     0.310 C 
HETATM    2  N1  UNL     1      52.854   9.025  51.701  1.00  0.00     0.087 N 
HETATM    3  C2  UNL     1      53.320   7.878  51.015  1.00  0.00     0.292 C 
HETATM    4  C3  UNL     1      52.529   7.457  49.830  1.00  0.00     0.171 C 
HETATM    5  N2  UNL     1      51.674   8.459  49.280  1.00  0.00    -0.214 N 
HETATM    6  C4  UNL     1      51.208   8.253  47.951  1.00  0.00     0.688 C 
HETATM    7  N3  UNL     1      52.039   8.450  46.995  1.00  0.00    -0.234 N 
ATOM      8  H31 UNL     1      51.705   8.303  46.042  1.00  0.00     0.174 HD
ATOM      9  H32 UNL     1      52.989   8.742  47.228  1.00  0.00     0.174 HD
HETATM   10  N4  UNL     1      49.889   7.847  47.627  1.00  0.00    -0.022 N 
ATOM     11  H4  UNL     1      49.544   6.917  47.861  1.00  0.00     0.203 HD
HETATM   12  C5  UNL     1      49.061   8.811  46.953  1.00  0.00     0.707 C 
HETATM   13  N5  UNL     1      48.038   9.238  47.614  1.00  0.00    -0.131 N 
ATOM     14  H5  UNL     1      47.841   8.903  48.557  1.00  0.00     0.205 HD
HETATM   15  N8  UNL     1      49.363   9.257  45.638  1.00  0.00    -0.218 N 
ATOM     16  H8  UNL     1      50.007  10.034  45.486  1.00  0.00     0.178 HD
HETATM   17  C10 UNL     1      51.281   9.643  50.016  1.00  0.00     0.171 C 
HETATM   18  C11 UNL     1      51.467   9.347  51.479  1.00  0.00     0.292 C 
ENDROOT
BRANCH  13  19
HETATM   19  N6  UNL     1      47.214  10.171  46.994  1.00  0.00    -0.284 N 
HETATM   20  C6  UNL     1      47.131  11.358  47.478  1.00  0.00     0.207 C 
HETATM   21  N7  UNL     1      47.894  11.671  48.638  1.00  0.00    -0.095 NA
ATOM     22  H6  UNL     1      46.679   9.916  46.163  1.00  0.00     0.187 HD
ENDBRANCH  13  19
BRANCH  15  23
HETATM   23  C7  UNL     1      48.744   8.594  44.533  1.00  0.00     0.132 A 
HETATM   24  C8  UNL     1      48.006   9.479  43.540  1.00  0.00     0.062 A 
HETATM   25  C9  UNL     1      47.281   8.504  44.382  1.00  0.00     0.208 A 
BRANCH  25  26
HETATM   26  N9  UNL     1      46.709   7.336  43.736  1.00  0.00    -0.073 N 
ATOM     27  H93 UNL     1      47.250   7.127  42.897  1.00  0.00     0.274 HD
ATOM     28  H92 UNL     1      46.906   6.515  44.310  1.00  0.00     0.274 HD
ATOM     29  H91 UNL     1      45.718   7.337  43.496  1.00  0.00     0.274 HD
ENDBRANCH  25  26
ENDBRANCH  15  23
TORSDOF 3
ENDMDL
MODEL 2
REMARK VINA RESULT: -2.544321137     11.932     12.732
REMARK  3 active torsions:
REMARK  status: ('A' for Active; 'I' for Inactive)
REMARK       I    between atoms: N2_5  and  C4_6 
REMARK       I    between atoms: C4_6  and  N4_10 
REMARK       I    between atoms: N4_10  and  C5_12 
REMARK       I    between atoms: C5_12  and  N8_19 
REMARK    1  A    between atoms: N5_13  and  N6_15 
REMARK    2  A    between atoms: N8_19  and  C7_21 
REMARK    3  A    between atoms: C9_23  and  N9_24 
ROOT
HETATM    1  C1  UNL     1      60.063  18.224  44.098  1.00  0.00     0.310 C 
HETATM    2  N1  UNL     1      58.775  18.009  44.724  1.00  0.00     0.087 N 
HETATM    3  C2  UNL     1      58.306  16.677  44.631  1.00  0.00     0.292 C 
HETATM    4  C3  UNL     1      57.141  16.453  43.737  1.00  0.00     0.171 C 
HETATM    5  N2  UNL     1      56.902  17.483  42.777  1.00  0.00    -0.214 N 
HETATM    6  C4  UNL     1      56.075  17.153  41.667  1.00  0.00     0.688 C 
HETATM    7  N3  UNL     1      56.586  16.424  40.744  1.00  0.00    -0.234 N 
ATOM      8  H31 UNL     1      55.994  16.187  39.948  1.00  0.00     0.174 HD
ATOM      9  H32 UNL     1      57.553  16.115  40.847  1.00  0.00     0.174 HD
HETATM   10  N4  UNL     1      54.731  17.581  41.524  1.00  0.00    -0.022 N 
ATOM     11  H4  UNL     1      53.993  17.238  42.138  1.00  0.00     0.203 HD
HETATM   12  C5  UNL     1      54.459  18.522  40.471  1.00  0.00     0.707 C 
HETATM   13  N5  UNL     1      54.077  19.697  40.847  1.00  0.00    -0.131 N 
ATOM     14  H5  UNL     1      53.979  19.929  41.835  1.00  0.00     0.205 HD
HETATM   15  N8  UNL     1      54.606  18.168  39.103  1.00  0.00    -0.218 N 
ATOM     16  H8  UNL     1      55.511  18.247  38.638  1.00  0.00     0.178 HD
HETATM   17  C10 UNL     1      57.462  18.813  42.901  1.00  0.00     0.171 C 
HETATM   18  C11 UNL     1      57.819  19.020  44.347  1.00  0.00     0.292 C 
ENDROOT
BRANCH  13  19
HETATM   19  N6  UNL     1      53.805  20.634  39.856  1.00  0.00    -0.284 N 
HETATM   20  C6  UNL     1      53.238  21.741  40.176  1.00  0.00     0.207 C 
HETATM   21  N7  UNL     1      52.910  21.964  41.543  1.00  0.00    -0.095 NA
ATOM     22  H6  UNL     1      54.053  20.445  38.885  1.00  0.00     0.187 HD
ENDBRANCH  13  19
BRANCH  15  23
HETATM   23  C7  UNL     1      53.458  17.699  38.392  1.00  0.00     0.132 A 
HETATM   24  C8  UNL     1      53.475  16.238  37.966  1.00  0.00     0.062 A 
HETATM   25  C9  UNL     1      53.505  17.328  36.967  1.00  0.00     0.208 A 
BRANCH  25  26
HETATM   26  N9  UNL     1      52.326  17.534  36.144  1.00  0.00    -0.073 N 
ATOM     27  H93 UNL     1      52.066  16.645  35.715  1.00  0.00     0.274 HD
ATOM     28  H92 UNL     1      51.525  17.702  36.754  1.00  0.00     0.274 HD
ATOM     29  H91 UNL     1      52.344  18.254  35.422  1.00  0.00     0.274 HD
ENDBRANCH  25  26
ENDBRANCH  15  23
TORSDOF 3
ENDMDL
MODEL 3
REMARK VINA RESULT: -1.534185639     10.852     13.401
REMARK  3 active torsions:
REMARK  status: ('A' for Active; 'I' for Inactive)
REMARK       I    between atoms: N2_5  and  C4_6 
REMARK       I    between atoms: C4_6  and  N4_10 
REMARK       I    between atoms: N4_10  and  C5_12 
REMARK       I    between atoms: C5_12  and  N8_19 
REMARK    1  A    between atoms: N5_13  and  N6_15 
REMARK    2  A    between atoms: N8_19  and  C7_21 
REMARK    3  A    between atoms: C9_23  and  N9_24 
ROOT
HETATM    1  C1  UNL     1      53.693  17.652  38.351  1.00  0.00     0.310 C 
HETATM    2  N1  UNL     1      54.728  16.642  38.425  1.00  0.00     0.087 N 
HETATM    3  C2  UNL     1      54.327  15.456  39.087  1.00  0.00     0.292 C 
HETATM    4  C3  UNL     1      54.944  15.207  40.416  1.00  0.00     0.171 C 
HETATM    5  N2  UNL     1      55.520  16.352  41.045  1.00  0.00    -0.214 N 
HETATM    6  C4  UNL     1      55.762  16.267  42.445  1.00  0.00     0.688 C 
HETATM    7  N3  UNL     1      54.749  16.356  43.228  1.00  0.00    -0.234 N 
ATOM      8  H31 UNL     1      54.922  16.296  44.231  1.00  0.00     0.174 HD
ATOM      9  H32 UNL     1      53.825  16.482  42.815  1.00  0.00     0.174 HD
HETATM   10  N4  UNL     1      57.046  16.092  43.019  1.00  0.00    -0.022 N 
ATOM     11  H4  UNL     1      57.567  15.223  42.906  1.00  0.00     0.203 HD
HETATM   12  C5  UNL     1      57.578  17.198  43.768  1.00  0.00     0.707 C 
HETATM   13  N5  UNL     1      58.626  17.765  43.271  1.00  0.00    -0.131 N 
ATOM     14  H5  UNL     1      59.041  17.437  42.400  1.00  0.00     0.205 HD
HETATM   15  N8  UNL     1      56.976  17.631  44.980  1.00  0.00    -0.218 N 
ATOM     16  H8  UNL     1      56.203  18.296  44.970  1.00  0.00     0.178 HD
HETATM   17  C10 UNL     1      55.853  17.560  40.319  1.00  0.00     0.171 C 
HETATM   18  C11 UNL     1      55.985  17.192  38.867  1.00  0.00     0.292 C 
ENDROOT
BRANCH  13  19
HETATM   19  N6  UNL     1      59.170  18.839  43.968  1.00  0.00    -0.284 N 
HETATM   20  C6  UNL     1      60.391  18.780  44.363  1.00  0.00     0.207 C 
HETATM   21  N7  UNL     1      61.142  17.609  44.067  1.00  0.00    -0.095 NA
ATOM     22  H6  UNL     1      58.604  19.665  44.165  1.00  0.00     0.187 HD
ENDBRANCH  13  19
BRANCH  15  23
HETATM   23  C7  UNL     1      57.478  17.113  46.214  1.00  0.00     0.132 A 
HETATM   24  C8  UNL     1      58.845  16.447  46.164  1.00  0.00     0.062 A 
HETATM   25  C9  UNL     1      57.625  15.669  46.468  1.00  0.00     0.208 A 
BRANCH  25  26
HETATM   26  N9  UNL     1      57.452  15.168  47.819  1.00  0.00    -0.073 N 
ATOM     27  H93 UNL     1      56.473  15.274  48.086  1.00  0.00     0.274 HD
ATOM     28  H92 UNL     1      57.546  14.152  47.807  1.00  0.00     0.274 HD
ATOM     29  H91 UNL     1      58.038  15.542  48.566  1.00  0.00     0.274 HD
ENDBRANCH  25  26
ENDBRANCH  15  23
TORSDOF 3
ENDMDL
MODEL 4
REMARK VINA RESULT: -0.823150575     11.316     13.911
REMARK  3 active torsions:
REMARK  status: ('A' for Active; 'I' for Inactive)
REMARK       I    between atoms: N2_5  and  C4_6 
REMARK       I    between atoms: C4_6  and  N4_10 
REMARK       I    between atoms: N4_10  and  C5_12 
REMARK       I    between atoms: C5_12  and  N8_19 
REMARK    1  A    between atoms: N5_13  and  N6_15 
REMARK    2  A    between atoms: N8_19  and  C7_21 
REMARK    3  A    between atoms: C9_23  and  N9_24 
ROOT
HETATM    1  C1  UNL     1      53.931  16.727  36.606  1.00  0.00     0.310 C 
HETATM    2  N1  UNL     1      53.173  17.154  37.764  1.00  0.00     0.087 N 
HETATM    3  C2  UNL     1      53.331  18.525  38.080  1.00  0.00     0.292 C 
HETATM    4  C3  UNL     1      54.093  18.828  39.319  1.00  0.00     0.171 C 
HETATM    5  N2  UNL     1      54.916  17.767  39.804  1.00  0.00    -0.214 N 
HETATM    6  C4  UNL     1      55.942  18.115  40.726  1.00  0.00     0.688 C 
HETATM    7  N3  UNL     1      56.985  18.699  40.260  1.00  0.00    -0.234 N 
ATOM      8  H31 UNL     1      57.721  18.948  40.921  1.00  0.00     0.174 HD
ATOM      9  H32 UNL     1      57.030  18.887  39.258  1.00  0.00     0.174 HD
HETATM   10  N4  UNL     1      55.880  17.855  42.118  1.00  0.00    -0.022 N 
ATOM     11  H4  UNL     1      55.214  18.337  42.723  1.00  0.00     0.203 HD
HETATM   12  C5  UNL     1      56.799  16.879  42.638  1.00  0.00     0.707 C 
HETATM   13  N5  UNL     1      56.272  15.796  43.103  1.00  0.00    -0.131 N 
ATOM     14  H5  UNL     1      55.262  15.655  43.096  1.00  0.00     0.205 HD
HETATM   15  N8  UNL     1      58.202  17.105  42.633  1.00  0.00    -0.218 N 
ATOM     16  H8  UNL     1      58.765  16.874  41.814  1.00  0.00     0.178 HD
HETATM   17  C10 UNL     1      54.739  16.389  39.394  1.00  0.00     0.171 C 
HETATM   18  C11 UNL     1      53.335  16.249  38.875  1.00  0.00     0.292 C 
ENDROOT
BRANCH  13  19
HETATM   19  N6  UNL     1      57.130  14.829  43.614  1.00  0.00    -0.284 N 
HETATM   20  C6  UNL     1      57.328  14.769  44.882  1.00  0.00     0.207 C 
HETATM   21  N7  UNL     1      56.654  15.703  45.717  1.00  0.00    -0.095 NA
ATOM     22  H6  UNL     1      57.599  14.172  42.988  1.00  0.00     0.187 HD
ENDBRANCH  13  19
BRANCH  15  23
HETATM   23  C7  UNL     1      58.807  17.663  43.802  1.00  0.00     0.132 A 
HETATM   24  C8  UNL     1      59.727  18.855  43.586  1.00  0.00     0.062 A 
HETATM   25  C9  UNL     1      60.251  17.561  44.073  1.00  0.00     0.208 A 
BRANCH  25  26
HETATM   26  N9  UNL     1      60.709  17.483  45.449  1.00  0.00    -0.073 N 
ATOM     27  H93 UNL     1      60.403  18.321  45.944  1.00  0.00     0.274 HD
ATOM     28  H92 UNL     1      60.175  16.760  45.932  1.00  0.00     0.274 HD
ATOM     29  H91 UNL     1      61.701  17.337  45.634  1.00  0.00     0.274 HD
ENDBRANCH  25  26
ENDBRANCH  15  23
TORSDOF 3
ENDMDL
MODEL 5
REMARK VINA RESULT: -0.564835079     11.616     12.721
REMARK  3 active torsions:
REMARK  status: ('A' for Active; 'I' for Inactive)
REMARK       I    between atoms: N2_5  and  C4_6 
REMARK       I    between atoms: C4_6  and  N4_10 
REMARK       I    between atoms: N4_10  and  C5_12 
REMARK       I    between atoms: C5_12  and  N8_19 
REMARK    1  A    between atoms: N5_13  and  N6_15 
REMARK    2  A    between atoms: N8_19  and  C7_21 
REMARK    3  A    between atoms: C9_23  and  N9_24 
ROOT
HETATM    1  C1  UNL     1      59.337  17.073  46.027  1.00  0.00     0.310 C 
HETATM    2  N1  UNL     1      59.986  17.637  44.862  1.00  0.00     0.087 N 
HETATM    3  C2  UNL     1      59.678  19.000  44.636  1.00  0.00     0.292 C 
HETATM    4  C3  UNL     1      58.826  19.291  43.454  1.00  0.00     0.171 C 
HETATM    5  N2  UNL     1      58.087  18.180  42.946  1.00  0.00    -0.214 N 
HETATM    6  C4  UNL     1      56.984  18.472  42.095  1.00  0.00     0.688 C 
HETATM    7  N3  UNL     1      55.915  18.921  42.643  1.00  0.00    -0.234 N 
ATOM      8  H31 UNL     1      55.125  19.130  42.034  1.00  0.00     0.174 HD
ATOM      9  H32 UNL     1      55.904  19.048  43.656  1.00  0.00     0.174 HD
HETATM   10  N4  UNL     1      56.999  18.295  40.688  1.00  0.00    -0.022 N 
ATOM     11  H4  UNL     1      57.581  18.874  40.083  1.00  0.00     0.203 HD
HETATM   12  C5  UNL     1      56.154  17.261  40.156  1.00  0.00     0.707 C 
HETATM   13  N5  UNL     1      56.761  16.264  39.604  1.00  0.00    -0.131 N 
ATOM     14  H5  UNL     1      57.778  16.226  39.555  1.00  0.00     0.205 HD
HETATM   15  N8  UNL     1      54.738  17.343  40.239  1.00  0.00    -0.218 N 
ATOM     16  H8  UNL     1      54.244  17.012  41.069  1.00  0.00     0.178 HD
HETATM   17  C10 UNL     1      58.420  16.807  43.265  1.00  0.00     0.171 C 
HETATM   18  C11 UNL     1      59.856  16.782  43.709  1.00  0.00     0.292 C 
ENDROOT
BRANCH  13  19
HETATM   19  N6  UNL     1      55.976  15.243  39.077  1.00  0.00    -0.284 N 
HETATM   20  C6  UNL     1      55.401  14.415  39.874  1.00  0.00     0.207 C 
HETATM   21  N7  UNL     1      55.593  14.580  41.274  1.00  0.00    -0.095 NA
ATOM     22  H6  UNL     1      55.858  15.152  38.067  1.00  0.00     0.187 HD
ENDBRANCH  13  19
BRANCH  15  23
HETATM   23  C7  UNL     1      54.020  17.899  39.135  1.00  0.00     0.132 A 
HETATM   24  C8  UNL     1      52.503  17.816  39.203  1.00  0.00     0.062 A 
HETATM   25  C9  UNL     1      53.267  17.069  38.180  1.00  0.00     0.208 A 
BRANCH  25  26
HETATM   26  N9  UNL     1      53.162  17.500  36.798  1.00  0.00    -0.073 N 
ATOM     27  H93 UNL     1      52.182  17.692  36.588  1.00  0.00     0.274 HD
ATOM     28  H92 UNL     1      53.570  18.431  36.713  1.00  0.00     0.274 HD
ATOM     29  H91 UNL     1      53.544  16.906  36.062  1.00  0.00     0.274 HD
ENDBRANCH  25  26
ENDBRANCH  15  23
TORSDOF 3
ENDMDL
