MODEL 1
REMARK VINA RESULT: -5.122258972      0.000      0.000
REMARK  2 active torsions:
REMARK  status: ('A' for Active; 'I' for Inactive)
REMARK    1  A    between atoms: N2_4  and  N3_6 
REMARK       I    between atoms: N3_6  and  C3_8 
REMARK       I    between atoms: C3_8  and  N5_12 
REMARK    2  A    between atoms: N5_12  and  N6_14 
REMARK       I    between atoms: N6_14  and  C4_16 
REMARK       I    between atoms: C4_16  and  N7_18 
ROOT
HETATM    1  N6  UNL     1      56.062  17.264  40.197  1.00  0.00    -0.237 N 
ATOM      2  H6  UNL     1      56.417  18.220  40.230  1.00  0.00     0.192 HD
HETATM    3  C4  UNL     1      56.350  16.406  41.271  1.00  0.00     0.337 C 
HETATM    4  O1  UNL     1      55.895  15.215  41.204  1.00  0.00    -0.245 OA
HETATM    5  N7  UNL     1      57.105  16.791  42.409  1.00  0.00    -0.324 N 
HETATM    6  C5  UNL     1      57.257  15.732  43.372  1.00  0.00     0.128 C 
HETATM    7  C6  UNL     1      56.295  15.877  44.525  1.00  0.00     0.022 C 
HETATM    8  C7  UNL     1      56.819  16.700  45.644  1.00  0.00     0.021 C 
HETATM    9  C8  UNL     1      58.285  16.940  45.642  1.00  0.00     0.122 C 
HETATM   10  N8  UNL     1      58.718  17.984  44.737  1.00  0.00    -0.360 N 
ATOM     11  H8  UNL     1      59.585  18.413  45.059  1.00  0.00     0.162 HD
HETATM   12  C9  UNL     1      58.270  18.580  43.522  1.00  0.00     0.235 C 
HETATM   13  O2  UNL     1      58.592  19.818  43.459  1.00  0.00    -0.272 OA
HETATM   14  C10 UNL     1      57.537  18.151  42.323  1.00  0.00     0.230 C 
ENDROOT
BRANCH   1  15
HETATM   15  N5  UNL     1      55.320  16.874  39.094  1.00  0.00    -0.127 N 
HETATM   16  C3  UNL     1      54.261  17.730  38.601  1.00  0.00     0.705 C 
HETATM   17  N3  UNL     1      53.476  17.225  37.492  1.00  0.00    -0.130 N 
HETATM   18  N4  UNL     1      54.045  18.796  39.081  1.00  0.00    -0.232 N 
ATOM     19  H3  UNL     1      53.923  16.986  36.608  1.00  0.00     0.205 HD
ATOM     20  H42 UNL     1      53.298  19.399  38.734  1.00  0.00     0.174 HD
ATOM     21  H41 UNL     1      54.598  19.151  39.861  1.00  0.00     0.174 HD
ATOM     22  H5  UNL     1      55.519  15.988  38.630  1.00  0.00     0.206 HD
BRANCH  17  23
HETATM   23  N2  UNL     1      52.098  17.073  37.655  1.00  0.00    -0.277 N 
HETATM   24  C2  UNL     1      51.288  17.544  36.747  1.00  0.00     0.104 C 
HETATM   25  C1  UNL     1      51.906  18.225  35.572  1.00  0.00     0.086 C 
HETATM   26  N1  UNL     1      49.889  17.393  36.907  1.00  0.00    -0.087 NA
ATOM     27  H2  UNL     1      51.728  16.597  38.477  1.00  0.00     0.188 HD
ENDBRANCH  17  23
ENDBRANCH   1  15
TORSDOF 2
ENDMDL
MODEL 2
REMARK VINA RESULT: -3.594079446      1.075      1.354
REMARK  2 active torsions:
REMARK  status: ('A' for Active; 'I' for Inactive)
REMARK    1  A    between atoms: N2_4  and  N3_6 
REMARK       I    between atoms: N3_6  and  C3_8 
REMARK       I    between atoms: C3_8  and  N5_12 
REMARK    2  A    between atoms: N5_12  and  N6_14 
REMARK       I    between atoms: N6_14  and  C4_16 
REMARK       I    between atoms: C4_16  and  N7_18 
ROOT
HETATM    1  N6  UNL     1      55.301  18.049  40.999  1.00  0.00    -0.237 N 
ATOM      2  H6  UNL     1      55.740  18.966  40.918  1.00  0.00     0.192 HD
HETATM    3  C4  UNL     1      55.873  17.109  41.872  1.00  0.00     0.337 C 
HETATM    4  O1  UNL     1      55.306  15.969  41.955  1.00  0.00    -0.245 OA
HETATM    5  N7  UNL     1      57.029  17.360  42.656  1.00  0.00    -0.324 N 
HETATM    6  C5  UNL     1      57.414  16.240  43.472  1.00  0.00     0.128 C 
HETATM    7  C6  UNL     1      56.964  16.403  44.903  1.00  0.00     0.022 C 
HETATM    8  C7  UNL     1      57.944  17.112  45.764  1.00  0.00     0.021 C 
HETATM    9  C8  UNL     1      59.324  17.221  45.222  1.00  0.00     0.122 C 
HETATM   10  N8  UNL     1      59.498  18.274  44.242  1.00  0.00    -0.360 N 
ATOM     11  H8  UNL     1      60.462  18.605  44.227  1.00  0.00     0.162 HD
HETATM   12  C9  UNL     1      58.698  18.974  43.293  1.00  0.00     0.235 C 
HETATM   13  O2  UNL     1      59.101  20.180  43.140  1.00  0.00    -0.272 OA
HETATM   14  C10 UNL     1      57.536  18.680  42.443  1.00  0.00     0.230 C 
ENDROOT
BRANCH   1  15
HETATM   15  N5  UNL     1      54.169  17.789  40.243  1.00  0.00    -0.127 N 
HETATM   16  C3  UNL     1      54.295  17.097  38.977  1.00  0.00     0.705 C 
HETATM   17  N3  UNL     1      53.081  16.927  38.203  1.00  0.00    -0.130 N 
HETATM   18  N4  UNL     1      55.341  16.686  38.591  1.00  0.00    -0.232 N 
ATOM     19  H3  UNL     1      52.285  16.422  38.592  1.00  0.00     0.205 HD
ATOM     20  H42 UNL     1      55.429  16.199  37.698  1.00  0.00     0.174 HD
ATOM     21  H41 UNL     1      56.195  16.805  39.136  1.00  0.00     0.174 HD
ATOM     22  H5  UNL     1      53.252  18.084  40.576  1.00  0.00     0.206 HD
BRANCH  17  23
HETATM   23  N2  UNL     1      53.020  17.464  36.917  1.00  0.00    -0.277 N 
HETATM   24  C2  UNL     1      51.858  17.683  36.365  1.00  0.00     0.104 C 
HETATM   25  C1  UNL     1      50.649  17.338  37.169  1.00  0.00     0.086 C 
HETATM   26  N1  UNL     1      51.790  18.227  35.060  1.00  0.00    -0.087 NA
ATOM     27  H2  UNL     1      53.878  17.683  36.411  1.00  0.00     0.188 HD
ENDBRANCH  17  23
ENDBRANCH   1  15
TORSDOF 2
ENDMDL
MODEL 3
REMARK VINA RESULT: -3.543988352      1.606      2.295
REMARK  2 active torsions:
REMARK  status: ('A' for Active; 'I' for Inactive)
REMARK    1  A    between atoms: N2_4  and  N3_6 
REMARK       I    between atoms: N3_6  and  C3_8 
REMARK       I    between atoms: C3_8  and  N5_12 
REMARK    2  A    between atoms: N5_12  and  N6_14 
REMARK       I    between atoms: N6_14  and  C4_16 
REMARK       I    between atoms: C4_16  and  N7_18 
ROOT
HETATM    1  N6  UNL     1      55.676  16.454  41.011  1.00  0.00    -0.237 N 
ATOM      2  H6  UNL     1      55.378  15.687  41.614  1.00  0.00     0.192 HD
HETATM    3  C4  UNL     1      56.544  17.423  41.540  1.00  0.00     0.337 C 
HETATM    4  O1  UNL     1      56.901  18.372  40.765  1.00  0.00    -0.245 OA
HETATM    5  N7  UNL     1      57.038  17.398  42.871  1.00  0.00    -0.324 N 
HETATM    6  C5  UNL     1      57.914  18.499  43.170  1.00  0.00     0.128 C 
HETATM    7  C6  UNL     1      59.367  18.097  43.105  1.00  0.00     0.022 C 
HETATM    8  C7  UNL     1      59.905  17.581  44.389  1.00  0.00     0.021 C 
HETATM    9  C8  UNL     1      59.090  17.871  45.597  1.00  0.00     0.122 C 
HETATM   10  N8  UNL     1      57.954  16.991  45.776  1.00  0.00    -0.360 N 
ATOM     11  H8  UNL     1      57.700  16.914  46.760  1.00  0.00     0.162 HD
HETATM   12  C9  UNL     1      57.091  16.203  44.960  1.00  0.00     0.235 C 
HETATM   13  O2  UNL     1      56.689  15.155  45.577  1.00  0.00    -0.272 OA
HETATM   14  C10 UNL     1      56.541  16.273  43.599  1.00  0.00     0.230 C 
ENDROOT
BRANCH   1  15
HETATM   15  N5  UNL     1      55.205  16.490  39.709  1.00  0.00    -0.127 N 
HETATM   16  C3  UNL     1      54.325  17.563  39.292  1.00  0.00     0.705 C 
HETATM   17  N3  UNL     1      53.809  17.497  37.939  1.00  0.00    -0.130 N 
HETATM   18  N4  UNL     1      54.040  18.456  40.022  1.00  0.00    -0.232 N 
ATOM     19  H3  UNL     1      54.446  17.482  37.142  1.00  0.00     0.205 HD
ATOM     20  H42 UNL     1      53.420  19.211  39.729  1.00  0.00     0.174 HD
ATOM     21  H41 UNL     1      54.404  18.503  40.974  1.00  0.00     0.174 HD
ATOM     22  H5  UNL     1      55.476  15.764  39.045  1.00  0.00     0.206 HD
BRANCH  17  23
HETATM   23  N2  UNL     1      52.429  17.453  37.745  1.00  0.00    -0.277 N 
HETATM   24  C2  UNL     1      51.947  17.520  36.533  1.00  0.00     0.104 C 
HETATM   25  C1  UNL     1      52.930  17.639  35.418  1.00  0.00     0.086 C 
HETATM   26  N1  UNL     1      50.547  17.478  36.330  1.00  0.00    -0.087 NA
ATOM     27  H2  UNL     1      51.800  17.370  38.544  1.00  0.00     0.188 HD
ENDBRANCH  17  23
ENDBRANCH   1  15
TORSDOF 2
ENDMDL
MODEL 4
REMARK VINA RESULT: -2.878306039      2.122      7.806
REMARK  2 active torsions:
REMARK  status: ('A' for Active; 'I' for Inactive)
REMARK    1  A    between atoms: N2_4  and  N3_6 
REMARK       I    between atoms: N3_6  and  C3_8 
REMARK       I    between atoms: C3_8  and  N5_12 
REMARK    2  A    between atoms: N5_12  and  N6_14 
REMARK       I    between atoms: N6_14  and  C4_16 
REMARK       I    between atoms: C4_16  and  N7_18 
ROOT
HETATM    1  N6  UNL     1      56.748  15.363  42.427  1.00  0.00    -0.237 N 
ATOM      2  H6  UNL     1      56.228  14.514  42.203  1.00  0.00     0.192 HD
HETATM    3  C4  UNL     1      56.604  16.477  41.585  1.00  0.00     0.337 C 
HETATM    4  O1  UNL     1      57.267  17.526  41.886  1.00  0.00    -0.245 OA
HETATM    5  N7  UNL     1      55.770  16.497  40.436  1.00  0.00    -0.324 N 
HETATM    6  C5  UNL     1      55.792  17.757  39.743  1.00  0.00     0.128 C 
HETATM    7  C6  UNL     1      54.587  18.603  40.074  1.00  0.00     0.022 C 
HETATM    8  C7  UNL     1      53.422  18.361  39.186  1.00  0.00     0.021 C 
HETATM    9  C8  UNL     1      53.709  17.635  37.922  1.00  0.00     0.122 C 
HETATM   10  N8  UNL     1      53.829  16.199  38.073  1.00  0.00    -0.360 N 
ATOM     11  H8  UNL     1      53.587  15.717  37.207  1.00  0.00     0.162 HD
HETATM   12  C9  UNL     1      54.192  15.272  39.093  1.00  0.00     0.235 C 
HETATM   13  O2  UNL     1      53.553  14.169  38.973  1.00  0.00    -0.272 OA
HETATM   14  C10 UNL     1      55.104  15.247  40.245  1.00  0.00     0.230 C 
ENDROOT
BRANCH   1  15
HETATM   15  N5  UNL     1      57.564  15.360  43.547  1.00  0.00    -0.127 N 
HETATM   16  C3  UNL     1      57.373  16.360  44.577  1.00  0.00     0.705 C 
HETATM   17  N3  UNL     1      58.310  16.346  45.683  1.00  0.00    -0.130 N 
HETATM   18  N4  UNL     1      56.490  17.153  44.522  1.00  0.00    -0.232 N 
ATOM     19  H3  UNL     1      58.407  15.517  46.269  1.00  0.00     0.205 HD
ATOM     20  H42 UNL     1      56.355  17.858  45.248  1.00  0.00     0.174 HD
ATOM     21  H41 UNL     1      55.830  17.162  43.744  1.00  0.00     0.174 HD
ATOM     22  H5  UNL     1      58.297  14.657  43.645  1.00  0.00     0.206 HD
BRANCH  17  23
HETATM   23  N2  UNL     1      59.076  17.484  45.933  1.00  0.00    -0.277 N 
HETATM   24  C2  UNL     1      59.975  17.859  45.064  1.00  0.00     0.104 C 
HETATM   25  C1  UNL     1      60.121  17.024  43.836  1.00  0.00     0.086 C 
HETATM   26  N1  UNL     1      60.756  19.013  45.313  1.00  0.00    -0.087 NA
ATOM     27  H2  UNL     1      58.935  18.020  46.789  1.00  0.00     0.188 HD
ENDBRANCH  17  23
ENDBRANCH   1  15
TORSDOF 2
ENDMDL
MODEL 5
REMARK VINA RESULT: -2.586998306      2.268      7.774
REMARK  2 active torsions:
REMARK  status: ('A' for Active; 'I' for Inactive)
REMARK    1  A    between atoms: N2_4  and  N3_6 
REMARK       I    between atoms: N3_6  and  C3_8 
REMARK       I    between atoms: C3_8  and  N5_12 
REMARK    2  A    between atoms: N5_12  and  N6_14 
REMARK       I    between atoms: N6_14  and  C4_16 
REMARK       I    between atoms: C4_16  and  N7_18 
ROOT
HETATM    1  N6  UNL     1      56.370  17.219  43.054  1.00  0.00    -0.237 N 
ATOM      2  H6  UNL     1      56.103  18.203  43.083  1.00  0.00     0.192 HD
HETATM    3  C4  UNL     1      55.868  16.420  42.014  1.00  0.00     0.337 C 
HETATM    4  O1  UNL     1      56.215  15.192  42.002  1.00  0.00    -0.245 OA
HETATM    5  N7  UNL     1      55.009  16.902  40.991  1.00  0.00    -0.324 N 
HETATM    6  C5  UNL     1      54.637  15.888  40.041  1.00  0.00     0.128 C 
HETATM    7  C6  UNL     1      55.451  15.978  38.773  1.00  0.00     0.022 C 
HETATM    8  C7  UNL     1      54.864  16.875  37.746  1.00  0.00     0.021 C 
HETATM    9  C8  UNL     1      53.439  17.245  37.945  1.00  0.00     0.122 C 
HETATM   10  N8  UNL     1      53.226  18.299  38.916  1.00  0.00    -0.360 N 
ATOM     11  H8  UNL     1      52.367  18.812  38.718  1.00  0.00     0.162 HD
HETATM   12  C9  UNL     1      53.881  18.818  40.070  1.00  0.00     0.235 C 
HETATM   13  O2  UNL     1      53.685  20.077  40.194  1.00  0.00    -0.272 OA
HETATM   14  C10 UNL     1      54.720  18.292  41.155  1.00  0.00     0.230 C 
ENDROOT
BRANCH   1  15
HETATM   15  N5  UNL     1      57.210  16.734  44.044  1.00  0.00    -0.127 N 
HETATM   16  C3  UNL     1      57.914  17.660  44.906  1.00  0.00     0.705 C 
HETATM   17  N3  UNL     1      58.834  17.086  45.868  1.00  0.00    -0.130 N 
HETATM   18  N4  UNL     1      57.746  18.834  44.832  1.00  0.00    -0.232 N 
ATOM     19  H3  UNL     1      58.504  16.422  46.568  1.00  0.00     0.205 HD
ATOM     20  H42 UNL     1      58.243  19.487  45.439  1.00  0.00     0.174 HD
ATOM     21  H41 UNL     1      57.098  19.238  44.155  1.00  0.00     0.174 HD
ATOM     22  H5  UNL     1      57.332  15.728  44.164  1.00  0.00     0.206 HD
BRANCH  17  23
HETATM   23  N2  UNL     1      60.178  17.457  45.821  1.00  0.00    -0.277 N 
HETATM   24  C2  UNL     1      60.802  17.470  44.675  1.00  0.00     0.104 C 
HETATM   25  C1  UNL     1      60.015  17.080  43.469  1.00  0.00     0.086 C 
HETATM   26  N1  UNL     1      62.166  17.844  44.621  1.00  0.00    -0.087 NA
ATOM     27  H2  UNL     1      60.669  17.715  46.677  1.00  0.00     0.188 HD
ENDBRANCH  17  23
ENDBRANCH   1  15
TORSDOF 2
ENDMDL
