MODEL 1
REMARK VINA RESULT: -6.394655001      0.000      0.000
REMARK  17 active torsions:
REMARK  status: ('A' for Active; 'I' for Inactive)
REMARK    1  A    between atoms: O1_2  and  C2_3 
REMARK    2  A    between atoms: C2_3  and  C3_5 
REMARK    3  A    between atoms: C3_5  and  C4_6 
REMARK    4  A    between atoms: C4_6  and  C5_7 
REMARK    5  A    between atoms: C5_7  and  C6_8 
REMARK    6  A    between atoms: C6_8  and  C7_9 
REMARK    7  A    between atoms: C7_9  and  C8_10 
REMARK    8  A    between atoms: C9_13  and  O3_14 
REMARK    9  A    between atoms: C10_16  and  C11_17 
REMARK   10  A    between atoms: C14_21  and  O5_22 
REMARK   11  A    between atoms: C15_24  and  C16_25 
REMARK   12  A    between atoms: C16_25  and  C17_26 
REMARK   13  A    between atoms: C20_31  and  O6_32 
REMARK   14  A    between atoms: C21_34  and  C22_35 
REMARK   15  A    between atoms: C22_35  and  C23_36 
REMARK   16  A    between atoms: C24_38  and  C25_39 
REMARK   17  A    between atoms: C27_42  and  O8_43 
ROOT
HETATM    1  C25 UNL     1      15.515 -17.438  22.309  1.00  0.00     0.161 C 
HETATM    2  C26 UNL     1      16.668 -17.861  21.548  1.00  0.00     0.063 C 
HETATM    3  N3  UNL     1      17.606 -18.178  20.948  1.00  0.00    -0.197 NA
ENDROOT
BRANCH   1   4
HETATM    4  C24 UNL     1      14.220 -17.923  21.673  1.00  0.00    -0.022 C 
HETATM    5  C21 UNL     1      13.783 -19.165  21.779  1.00  0.00     0.024 C 
HETATM    6  C20 UNL     1      12.611 -19.838  21.272  1.00  0.00     0.151 C 
HETATM    7  N2  UNL     1      11.522 -19.622  20.434  1.00  0.00    -0.336 N 
HETATM    8  C15 UNL     1      11.148 -19.542  19.076  1.00  0.00     0.070 C 
ATOM      9  H2  UNL     1      10.695 -19.465  21.009  1.00  0.00     0.168 HD
HETATM   10  C14 UNL     1      11.858 -18.726  18.094  1.00  0.00     0.202 C 
HETATM   11  O4  UNL     1      13.067 -19.069  17.598  1.00  0.00    -0.315 OA
HETATM   12  C10 UNL     1      14.388 -18.864  17.993  1.00  0.00     0.208 C 
HETATM   13  C9  UNL     1      14.841 -17.449  17.977  1.00  0.00     0.142 C 
HETATM   14  N1  UNL     1      15.178 -16.591  19.025  1.00  0.00    -0.365 N 
HETATM   15  C8  UNL     1      14.487 -15.970  20.084  1.00  0.00     0.116 C 
ATOM     16  H1  UNL     1      16.171 -16.355  19.024  1.00  0.00     0.161 HD
HETATM   17  C27 UNL     1      13.599 -16.811  20.962  1.00  0.00     0.171 C 
BRANCH   5  18
HETATM   18  C22 UNL     1      14.781 -19.955  22.610  1.00  0.00     0.057 C 
BRANCH  18  19
HETATM   19  C23 UNL     1      14.575 -20.153  23.873  1.00  0.00     0.259 C 
HETATM   20  O7  UNL     1      13.902 -20.266  24.910  1.00  0.00    -0.302 OA
ENDBRANCH  18  19
ENDBRANCH   5  18
BRANCH   6  21
HETATM   21  O6  UNL     1      12.570 -21.068  21.793  1.00  0.00    -0.345 OA
ATOM     22  H6  UNL     1      12.280 -21.040  22.698  1.00  0.00     0.219 HD
ENDBRANCH   6  21
BRANCH   8  23
HETATM   23  C16 UNL     1      10.828 -20.895  18.402  1.00  0.00     0.066 C 
BRANCH  23  24
HETATM   24  C17 UNL     1      10.615 -21.996  19.394  1.00  0.00    -0.017 C 
HETATM   25  C18 UNL     1       9.201 -22.560  19.334  1.00  0.00     0.010 C 
HETATM   26  C19 UNL     1      11.519 -23.163  18.977  1.00  0.00     0.010 C 
ENDBRANCH  23  24
ENDBRANCH   8  23
BRANCH  10  27
HETATM   27  O5  UNL     1      11.237 -17.636  17.725  1.00  0.00    -0.339 OA
ATOM     28  H5  UNL     1      10.289 -17.585  17.679  1.00  0.00     0.220 HD
ENDBRANCH  10  27
BRANCH  12  29
HETATM   29  C11 UNL     1      15.253 -19.682  16.988  1.00  0.00     0.015 C 
HETATM   30  C12 UNL     1      14.499 -20.868  16.494  1.00  0.00     0.012 C 
HETATM   31  C13 UNL     1      16.576 -20.059  17.515  1.00  0.00     0.012 C 
ENDBRANCH  12  29
BRANCH  13  32
HETATM   32  O3  UNL     1      14.904 -17.036  16.745  1.00  0.00    -0.348 OA
ATOM     33  H3  UNL     1      15.330 -17.568  16.083  1.00  0.00     0.219 HD
ENDBRANCH  13  32
BRANCH  15  34
HETATM   34  C7  UNL     1      13.728 -14.739  19.677  1.00  0.00     0.028 C 
BRANCH  34  35
HETATM   35  C6  UNL     1      14.312 -13.753  18.775  1.00  0.00     0.002 C 
BRANCH  35  36
HETATM   36  C5  UNL     1      14.189 -12.303  19.066  1.00  0.00     0.001 C 
BRANCH  36  37
HETATM   37  C4  UNL     1      14.812 -12.081  20.450  1.00  0.00     0.010 C 
BRANCH  37  38
HETATM   38  C3  UNL     1      14.065 -11.127  21.303  1.00  0.00     0.111 C 
BRANCH  38  39
HETATM   39  C2  UNL     1      12.956 -11.793  22.010  1.00  0.00     0.258 C 
HETATM   40  O2  UNL     1      12.982 -12.973  22.406  1.00  0.00    -0.265 OA
BRANCH  39  41
HETATM   41  O1  UNL     1      11.785 -11.060  22.263  1.00  0.00    -0.326 OA
HETATM   42  C1  UNL     1      11.335 -10.959  23.585  1.00  0.00     0.213 C 
ENDBRANCH  39  41
ENDBRANCH  38  39
ENDBRANCH  37  38
ENDBRANCH  36  37
ENDBRANCH  35  36
ENDBRANCH  34  35
ENDBRANCH  15  34
BRANCH  17  43
HETATM   43  O8  UNL     1      13.021 -15.993  21.981  1.00  0.00    -0.389 OA
ATOM     44  H8  UNL     1      12.486 -16.529  22.554  1.00  0.00     0.210 HD
ENDBRANCH  17  43
ENDBRANCH   1   4
TORSDOF 17
ENDMDL
MODEL 2
REMARK VINA RESULT: -6.218641649      5.403      7.747
REMARK  17 active torsions:
REMARK  status: ('A' for Active; 'I' for Inactive)
REMARK    1  A    between atoms: O1_2  and  C2_3 
REMARK    2  A    between atoms: C2_3  and  C3_5 
REMARK    3  A    between atoms: C3_5  and  C4_6 
REMARK    4  A    between atoms: C4_6  and  C5_7 
REMARK    5  A    between atoms: C5_7  and  C6_8 
REMARK    6  A    between atoms: C6_8  and  C7_9 
REMARK    7  A    between atoms: C7_9  and  C8_10 
REMARK    8  A    between atoms: C9_13  and  O3_14 
REMARK    9  A    between atoms: C10_16  and  C11_17 
REMARK   10  A    between atoms: C14_21  and  O5_22 
REMARK   11  A    between atoms: C15_24  and  C16_25 
REMARK   12  A    between atoms: C16_25  and  C17_26 
REMARK   13  A    between atoms: C20_31  and  O6_32 
REMARK   14  A    between atoms: C21_34  and  C22_35 
REMARK   15  A    between atoms: C22_35  and  C23_36 
REMARK   16  A    between atoms: C24_38  and  C25_39 
REMARK   17  A    between atoms: C27_42  and  O8_43 
ROOT
HETATM    1  C25 UNL     1      18.176 -18.782  26.749  1.00  0.00     0.161 C 
HETATM    2  C26 UNL     1      19.285 -19.608  26.334  1.00  0.00     0.063 C 
HETATM    3  N3  UNL     1      20.185 -20.267  26.024  1.00  0.00    -0.197 NA
ENDROOT
BRANCH   1   4
HETATM    4  C24 UNL     1      17.508 -18.106  25.560  1.00  0.00    -0.022 C 
HETATM    5  C21 UNL     1      16.631 -18.713  24.782  1.00  0.00     0.024 C 
HETATM    6  C20 UNL     1      15.886 -18.281  23.623  1.00  0.00     0.151 C 
HETATM    7  N2  UNL     1      15.776 -17.202  22.752  1.00  0.00    -0.336 N 
HETATM    8  C15 UNL     1      16.404 -16.574  21.657  1.00  0.00     0.070 C 
ATOM      9  H2  UNL     1      14.937 -16.674  22.994  1.00  0.00     0.168 HD
HETATM   10  C14 UNL     1      17.826 -16.241  21.629  1.00  0.00     0.202 C 
HETATM   11  O4  UNL     1      18.790 -17.174  21.469  1.00  0.00    -0.315 OA
HETATM   12  C10 UNL     1      19.506 -18.008  22.326  1.00  0.00     0.208 C 
HETATM   13  C9  UNL     1      20.411 -17.312  23.277  1.00  0.00     0.142 C 
HETATM   14  N1  UNL     1      20.345 -17.181  24.666  1.00  0.00    -0.365 N 
HETATM   15  C8  UNL     1      19.492 -16.532  25.580  1.00  0.00     0.116 C 
ATOM     16  H1  UNL     1      21.102 -17.679  25.134  1.00  0.00     0.161 HD
HETATM   17  C27 UNL     1      18.006 -16.738  25.456  1.00  0.00     0.171 C 
BRANCH   5  18
HETATM   18  C22 UNL     1      16.444 -20.133  25.288  1.00  0.00     0.057 C 
BRANCH  18  19
HETATM   19  C23 UNL     1      15.303 -20.518  25.763  1.00  0.00     0.259 C 
HETATM   20  O7  UNL     1      14.072 -20.677  25.773  1.00  0.00    -0.302 OA
ENDBRANCH  18  19
ENDBRANCH   5  18
BRANCH   6  21
HETATM   21  O6  UNL     1      15.018 -19.243  23.295  1.00  0.00    -0.345 OA
ATOM     22  H6  UNL     1      15.059 -19.429  22.364  1.00  0.00     0.219 HD
ENDBRANCH   6  21
BRANCH   8  23
HETATM   23  C16 UNL     1      16.041 -17.152  20.271  1.00  0.00     0.066 C 
BRANCH  23  24
HETATM   24  C17 UNL     1      14.814 -16.520  19.688  1.00  0.00    -0.017 C 
HETATM   25  C18 UNL     1      14.806 -15.007  19.867  1.00  0.00     0.010 C 
HETATM   26  C19 UNL     1      14.871 -16.734  18.171  1.00  0.00     0.010 C 
ENDBRANCH  23  24
ENDBRANCH   8  23
BRANCH  10  27
HETATM   27  O5  UNL     1      18.102 -14.970  21.767  1.00  0.00    -0.339 OA
ATOM     28  H5  UNL     1      17.462 -14.291  21.589  1.00  0.00     0.220 HD
ENDBRANCH  10  27
BRANCH  12  29
HETATM   29  C11 UNL     1      20.358 -18.924  21.399  1.00  0.00     0.015 C 
HETATM   30  C12 UNL     1      19.548 -19.392  20.239  1.00  0.00     0.012 C 
HETATM   31  C13 UNL     1      21.000 -20.049  22.103  1.00  0.00     0.012 C 
ENDBRANCH  12  29
BRANCH  13  32
HETATM   32  O3  UNL     1      21.390 -16.771  22.613  1.00  0.00    -0.348 OA
ATOM     33  H3  UNL     1      21.227 -16.038  22.031  1.00  0.00     0.219 HD
ENDBRANCH  13  32
BRANCH  15  34
HETATM   34  C7  UNL     1      19.759 -15.061  25.724  1.00  0.00     0.028 C 
BRANCH  34  35
HETATM   35  C6  UNL     1      20.426 -14.526  26.905  1.00  0.00     0.002 C 
BRANCH  35  36
HETATM   36  C5  UNL     1      21.453 -13.462  26.771  1.00  0.00     0.001 C 
BRANCH  36  37
HETATM   37  C4  UNL     1      22.080 -13.634  25.382  1.00  0.00     0.010 C 
BRANCH  37  38
HETATM   38  C3  UNL     1      23.471 -14.142  25.405  1.00  0.00     0.111 C 
BRANCH  38  39
HETATM   39  C2  UNL     1      23.577 -15.453  24.738  1.00  0.00     0.258 C 
HETATM   40  O2  UNL     1      24.092 -15.632  23.619  1.00  0.00    -0.265 OA
BRANCH  39  41
HETATM   41  O1  UNL     1      23.066 -16.583  25.395  1.00  0.00    -0.326 OA
HETATM   42  C1  UNL     1      23.426 -16.795  26.732  1.00  0.00     0.213 C 
ENDBRANCH  39  41
ENDBRANCH  38  39
ENDBRANCH  37  38
ENDBRANCH  36  37
ENDBRANCH  35  36
ENDBRANCH  34  35
ENDBRANCH  15  34
BRANCH  17  43
HETATM   43  O8  UNL     1      17.336 -16.017  26.491  1.00  0.00    -0.389 OA
ATOM     44  H8  UNL     1      17.739 -16.215  27.328  1.00  0.00     0.210 HD
ENDBRANCH  17  43
ENDBRANCH   1   4
TORSDOF 17
ENDMDL
MODEL 3
REMARK VINA RESULT: -6.153603481      4.757      8.049
REMARK  17 active torsions:
REMARK  status: ('A' for Active; 'I' for Inactive)
REMARK    1  A    between atoms: O1_2  and  C2_3 
REMARK    2  A    between atoms: C2_3  and  C3_5 
REMARK    3  A    between atoms: C3_5  and  C4_6 
REMARK    4  A    between atoms: C4_6  and  C5_7 
REMARK    5  A    between atoms: C5_7  and  C6_8 
REMARK    6  A    between atoms: C6_8  and  C7_9 
REMARK    7  A    between atoms: C7_9  and  C8_10 
REMARK    8  A    between atoms: C9_13  and  O3_14 
REMARK    9  A    between atoms: C10_16  and  C11_17 
REMARK   10  A    between atoms: C14_21  and  O5_22 
REMARK   11  A    between atoms: C15_24  and  C16_25 
REMARK   12  A    between atoms: C16_25  and  C17_26 
REMARK   13  A    between atoms: C20_31  and  O6_32 
REMARK   14  A    between atoms: C21_34  and  C22_35 
REMARK   15  A    between atoms: C22_35  and  C23_36 
REMARK   16  A    between atoms: C24_38  and  C25_39 
REMARK   17  A    between atoms: C27_42  and  O8_43 
ROOT
HETATM    1  C25 UNL     1      16.244 -18.548  24.829  1.00  0.00     0.161 C 
HETATM    2  C26 UNL     1      15.312 -19.612  24.536  1.00  0.00     0.063 C 
HETATM    3  N3  UNL     1      14.552 -20.459  24.322  1.00  0.00    -0.197 NA
ENDROOT
BRANCH   1   4
HETATM    4  C24 UNL     1      17.605 -18.811  24.201  1.00  0.00    -0.022 C 
HETATM    5  C21 UNL     1      18.647 -19.245  24.886  1.00  0.00     0.024 C 
HETATM    6  C20 UNL     1      20.006 -19.557  24.511  1.00  0.00     0.151 C 
HETATM    7  N2  UNL     1      20.869 -19.480  23.423  1.00  0.00    -0.336 N 
HETATM    8  C15 UNL     1      21.658 -18.581  22.676  1.00  0.00     0.070 C 
ATOM      9  H2  UNL     1      20.965 -20.412  23.018  1.00  0.00     0.168 HD
HETATM   10  C14 UNL     1      21.157 -17.309  22.161  1.00  0.00     0.202 C 
HETATM   11  O4  UNL     1      20.934 -16.238  22.954  1.00  0.00    -0.315 OA
HETATM   12  C10 UNL     1      19.860 -15.787  23.720  1.00  0.00     0.208 C 
HETATM   13  C9  UNL     1      18.650 -15.403  22.949  1.00  0.00     0.142 C 
HETATM   14  N1  UNL     1      17.388 -15.997  22.882  1.00  0.00    -0.365 N 
HETATM   15  C8  UNL     1      16.867 -17.208  22.385  1.00  0.00     0.116 C 
ATOM     16  H1  UNL     1      16.664 -15.409  23.295  1.00  0.00     0.161 HD
HETATM   17  C27 UNL     1      17.534 -18.499  22.777  1.00  0.00     0.171 C 
BRANCH   5  18
HETATM   18  C22 UNL     1      18.229 -19.414  26.337  1.00  0.00     0.057 C 
BRANCH  18  19
HETATM   19  C23 UNL     1      18.105 -20.594  26.854  1.00  0.00     0.259 C 
HETATM   20  O7  UNL     1      18.471 -21.733  27.187  1.00  0.00    -0.302 OA
ENDBRANCH  18  19
ENDBRANCH   5  18
BRANCH   6  21
HETATM   21  O6  UNL     1      20.622 -20.103  25.564  1.00  0.00    -0.345 OA
ATOM     22  H6  UNL     1      21.026 -19.432  26.102  1.00  0.00     0.219 HD
ENDBRANCH   6  21
BRANCH   8  23
HETATM   23  C16 UNL     1      23.072 -18.321  23.243  1.00  0.00     0.066 C 
BRANCH  23  24
HETATM   24  C17 UNL     1      24.093 -18.115  22.167  1.00  0.00    -0.017 C 
HETATM   25  C18 UNL     1      25.304 -17.335  22.665  1.00  0.00     0.010 C 
HETATM   26  C19 UNL     1      24.645 -19.497  21.796  1.00  0.00     0.010 C 
ENDBRANCH  23  24
ENDBRANCH   8  23
BRANCH  10  27
HETATM   27  O5  UNL     1      20.943 -17.278  20.871  1.00  0.00    -0.339 OA
ATOM     28  H5  UNL     1      20.102 -17.508  20.493  1.00  0.00     0.220 HD
ENDBRANCH  10  27
BRANCH  12  29
HETATM   29  C11 UNL     1      20.390 -14.536  24.482  1.00  0.00     0.015 C 
HETATM   30  C12 UNL     1      21.845 -14.345  24.224  1.00  0.00     0.012 C 
HETATM   31  C13 UNL     1      20.091 -14.549  25.925  1.00  0.00     0.012 C 
ENDBRANCH  12  29
BRANCH  13  32
HETATM   32  O3  UNL     1      18.907 -14.330  22.260  1.00  0.00    -0.348 OA
ATOM     33  H3  UNL     1      19.746 -13.894  22.349  1.00  0.00     0.219 HD
ENDBRANCH  13  32
BRANCH  15  34
HETATM   34  C7  UNL     1      16.653 -17.214  20.898  1.00  0.00     0.028 C 
BRANCH  34  35
HETATM   35  C6  UNL     1      15.321 -17.051  20.325  1.00  0.00     0.002 C 
BRANCH  35  36
HETATM   36  C5  UNL     1      14.237 -16.415  21.115  1.00  0.00     0.001 C 
BRANCH  36  37
HETATM   37  C4  UNL     1      13.728 -15.230  20.284  1.00  0.00     0.010 C 
BRANCH  37  38
HETATM   38  C3  UNL     1      14.709 -14.129  20.138  1.00  0.00     0.111 C 
BRANCH  38  39
HETATM   39  C2  UNL     1      14.950 -13.450  21.424  1.00  0.00     0.258 C 
HETATM   40  O2  UNL     1      16.049 -13.422  22.009  1.00  0.00    -0.265 OA
BRANCH  39  41
HETATM   41  O1  UNL     1      13.879 -12.785  22.043  1.00  0.00    -0.326 OA
HETATM   42  C1  UNL     1      13.618 -11.459  21.677  1.00  0.00     0.213 C 
ENDBRANCH  39  41
ENDBRANCH  38  39
ENDBRANCH  37  38
ENDBRANCH  36  37
ENDBRANCH  35  36
ENDBRANCH  34  35
ENDBRANCH  15  34
BRANCH  17  43
HETATM   43  O8  UNL     1      16.833 -19.597  22.189  1.00  0.00    -0.389 OA
ATOM     44  H8  UNL     1      15.898 -19.440  22.240  1.00  0.00     0.210 HD
ENDBRANCH  17  43
ENDBRANCH   1   4
TORSDOF 17
ENDMDL
MODEL 4
REMARK VINA RESULT: -6.093516575      6.555     10.014
REMARK  17 active torsions:
REMARK  status: ('A' for Active; 'I' for Inactive)
REMARK    1  A    between atoms: O1_2  and  C2_3 
REMARK    2  A    between atoms: C2_3  and  C3_5 
REMARK    3  A    between atoms: C3_5  and  C4_6 
REMARK    4  A    between atoms: C4_6  and  C5_7 
REMARK    5  A    between atoms: C5_7  and  C6_8 
REMARK    6  A    between atoms: C6_8  and  C7_9 
REMARK    7  A    between atoms: C7_9  and  C8_10 
REMARK    8  A    between atoms: C9_13  and  O3_14 
REMARK    9  A    between atoms: C10_16  and  C11_17 
REMARK   10  A    between atoms: C14_21  and  O5_22 
REMARK   11  A    between atoms: C15_24  and  C16_25 
REMARK   12  A    between atoms: C16_25  and  C17_26 
REMARK   13  A    between atoms: C20_31  and  O6_32 
REMARK   14  A    between atoms: C21_34  and  C22_35 
REMARK   15  A    between atoms: C22_35  and  C23_36 
REMARK   16  A    between atoms: C24_38  and  C25_39 
REMARK   17  A    between atoms: C27_42  and  O8_43 
ROOT
HETATM    1  C25 UNL     1      17.279 -17.487  22.297  1.00  0.00     0.161 C 
HETATM    2  C26 UNL     1      16.694 -16.326  21.668  1.00  0.00     0.063 C 
HETATM    3  N3  UNL     1      16.205 -15.410  21.156  1.00  0.00    -0.197 NA
ENDROOT
BRANCH   1   4
HETATM    4  C24 UNL     1      18.793 -17.366  22.393  1.00  0.00    -0.022 C 
HETATM    5  C21 UNL     1      19.620 -17.935  21.536  1.00  0.00     0.024 C 
HETATM    6  C20 UNL     1      21.060 -17.957  21.431  1.00  0.00     0.151 C 
HETATM    7  N2  UNL     1      22.198 -17.554  22.123  1.00  0.00    -0.336 N 
HETATM    8  C15 UNL     1      23.018 -17.879  23.223  1.00  0.00     0.070 C 
ATOM      9  H2  UNL     1      22.576 -16.722  21.669  1.00  0.00     0.168 HD
HETATM   10  C14 UNL     1      22.497 -18.145  24.562  1.00  0.00     0.202 C 
HETATM   11  O4  UNL     1      21.853 -19.289  24.881  1.00  0.00    -0.315 OA
HETATM   12  C10 UNL     1      20.531 -19.726  24.815  1.00  0.00     0.208 C 
HETATM   13  C9  UNL     1      19.582 -19.006  25.704  1.00  0.00     0.142 C 
HETATM   14  N1  UNL     1      18.528 -18.141  25.399  1.00  0.00    -0.365 N 
HETATM   15  C8  UNL     1      18.408 -16.852  24.843  1.00  0.00     0.116 C 
ATOM     16  H1  UNL     1      17.622 -18.543  25.637  1.00  0.00     0.161 HD
HETATM   17  C27 UNL     1      19.127 -16.548  23.555  1.00  0.00     0.171 C 
BRANCH   5  18
HETATM   18  C22 UNL     1      18.797 -18.689  20.504  1.00  0.00     0.057 C 
BRANCH  18  19
HETATM   19  C23 UNL     1      18.916 -19.971  20.376  1.00  0.00     0.259 C 
HETATM   20  O7  UNL     1      19.507 -21.042  20.162  1.00  0.00    -0.302 OA
ENDBRANCH  18  19
ENDBRANCH   5  18
BRANCH   6  21
HETATM   21  O6  UNL     1      21.392 -18.562  20.287  1.00  0.00    -0.345 OA
ATOM     22  H6  UNL     1      21.030 -18.095  19.543  1.00  0.00     0.219 HD
ENDBRANCH   6  21
BRANCH   8  23
HETATM   23  C16 UNL     1      24.111 -18.934  22.939  1.00  0.00     0.066 C 
BRANCH  23  24
HETATM   24  C17 UNL     1      25.098 -18.476  21.911  1.00  0.00    -0.017 C 
HETATM   25  C18 UNL     1      25.807 -17.192  22.325  1.00  0.00     0.010 C 
HETATM   26  C19 UNL     1      26.209 -19.531  21.846  1.00  0.00     0.010 C 
ENDBRANCH  23  24
ENDBRANCH   8  23
BRANCH  10  27
HETATM   27  O5  UNL     1      22.702 -17.194  25.436  1.00  0.00    -0.339 OA
ATOM     28  H5  UNL     1      23.225 -17.330  26.218  1.00  0.00     0.220 HD
ENDBRANCH  10  27
BRANCH  12  29
HETATM   29  C11 UNL     1      20.569 -21.226  25.230  1.00  0.00     0.015 C 
HETATM   30  C12 UNL     1      21.902 -21.818  24.929  1.00  0.00     0.012 C 
HETATM   31  C13 UNL     1      19.475 -22.029  24.654  1.00  0.00     0.012 C 
ENDBRANCH  12  29
BRANCH  13  32
HETATM   32  O3  UNL     1      19.857 -19.293  26.942  1.00  0.00    -0.348 OA
ATOM     33  H3  UNL     1      19.774 -18.630  27.617  1.00  0.00     0.219 HD
ENDBRANCH  13  32
BRANCH  15  34
HETATM   34  C7  UNL     1      18.683 -15.742  25.816  1.00  0.00     0.028 C 
BRANCH  34  35
HETATM   35  C6  UNL     1      19.942 -15.673  26.549  1.00  0.00     0.002 C 
BRANCH  35  36
HETATM   36  C5  UNL     1      20.421 -14.380  27.100  1.00  0.00     0.001 C 
BRANCH  36  37
HETATM   37  C4  UNL     1      20.858 -13.529  25.900  1.00  0.00     0.010 C 
BRANCH  37  38
HETATM   38  C3  UNL     1      22.315 -13.567  25.632  1.00  0.00     0.111 C 
BRANCH  38  39
HETATM   39  C2  UNL     1      22.604 -14.176  24.320  1.00  0.00     0.258 C 
HETATM   40  O2  UNL     1      21.749 -14.706  23.587  1.00  0.00    -0.265 OA
BRANCH  39  41
HETATM   41  O1  UNL     1      23.928 -14.164  23.853  1.00  0.00    -0.326 OA
HETATM   42  C1  UNL     1      24.956 -14.456  24.759  1.00  0.00     0.213 C 
ENDBRANCH  39  41
ENDBRANCH  38  39
ENDBRANCH  37  38
ENDBRANCH  36  37
ENDBRANCH  35  36
ENDBRANCH  34  35
ENDBRANCH  15  34
BRANCH  17  43
HETATM   43  O8  UNL     1      18.848 -15.204  23.159  1.00  0.00    -0.389 OA
ATOM     44  H8  UNL     1      18.519 -15.198  22.268  1.00  0.00     0.210 HD
ENDBRANCH  17  43
ENDBRANCH   1   4
TORSDOF 17
ENDMDL
MODEL 5
REMARK VINA RESULT: -6.072025490      3.857      5.808
REMARK  17 active torsions:
REMARK  status: ('A' for Active; 'I' for Inactive)
REMARK    1  A    between atoms: O1_2  and  C2_3 
REMARK    2  A    between atoms: C2_3  and  C3_5 
REMARK    3  A    between atoms: C3_5  and  C4_6 
REMARK    4  A    between atoms: C4_6  and  C5_7 
REMARK    5  A    between atoms: C5_7  and  C6_8 
REMARK    6  A    between atoms: C6_8  and  C7_9 
REMARK    7  A    between atoms: C7_9  and  C8_10 
REMARK    8  A    between atoms: C9_13  and  O3_14 
REMARK    9  A    between atoms: C10_16  and  C11_17 
REMARK   10  A    between atoms: C14_21  and  O5_22 
REMARK   11  A    between atoms: C15_24  and  C16_25 
REMARK   12  A    between atoms: C16_25  and  C17_26 
REMARK   13  A    between atoms: C20_31  and  O6_32 
REMARK   14  A    between atoms: C21_34  and  C22_35 
REMARK   15  A    between atoms: C22_35  and  C23_36 
REMARK   16  A    between atoms: C24_38  and  C25_39 
REMARK   17  A    between atoms: C27_42  and  O8_43 
ROOT
HETATM    1  C25 UNL     1      18.142 -19.068  26.227  1.00  0.00     0.161 C 
HETATM    2  C26 UNL     1      19.174 -19.878  25.622  1.00  0.00     0.063 C 
HETATM    3  N3  UNL     1      20.017 -20.521  25.158  1.00  0.00    -0.197 NA
ENDROOT
BRANCH   1   4
HETATM    4  C24 UNL     1      17.222 -18.463  25.177  1.00  0.00    -0.022 C 
HETATM    5  C21 UNL     1      16.234 -19.130  24.608  1.00  0.00     0.024 C 
HETATM    6  C20 UNL     1      15.255 -18.770  23.610  1.00  0.00     0.151 C 
HETATM    7  N2  UNL     1      14.927 -17.728  22.749  1.00  0.00    -0.336 N 
HETATM    8  C15 UNL     1      15.295 -17.118  21.532  1.00  0.00     0.070 C 
ATOM      9  H2  UNL     1      14.131 -17.223  23.138  1.00  0.00     0.168 HD
HETATM   10  C14 UNL     1      16.668 -16.735  21.209  1.00  0.00     0.202 C 
HETATM   11  O4  UNL     1      17.621 -17.637  20.886  1.00  0.00    -0.315 OA
HETATM   12  C10 UNL     1      18.528 -18.411  21.606  1.00  0.00     0.208 C 
HETATM   13  C9  UNL     1      19.574 -17.647  22.335  1.00  0.00     0.142 C 
HETATM   14  N1  UNL     1      19.780 -17.467  23.705  1.00  0.00    -0.365 N 
HETATM   15  C8  UNL     1      19.099 -16.817  24.752  1.00  0.00     0.116 C 
ATOM     16  H1  UNL     1      20.636 -17.920  24.025  1.00  0.00     0.161 HD
HETATM   17  C27 UNL     1      17.628 -17.082  24.935  1.00  0.00     0.171 C 
BRANCH   5  18
HETATM   18  C22 UNL     1      16.214 -20.537  25.183  1.00  0.00     0.057 C 
BRANCH  18  19
HETATM   19  C23 UNL     1      15.221 -20.937  25.910  1.00  0.00     0.259 C 
HETATM   20  O7  UNL     1      14.116 -21.457  26.137  1.00  0.00    -0.302 OA
ENDBRANCH  18  19
ENDBRANCH   5  18
BRANCH   6  21
HETATM   21  O6  UNL     1      14.382 -19.775  23.491  1.00  0.00    -0.345 OA
ATOM     22  H6  UNL     1      14.038 -20.023  24.341  1.00  0.00     0.219 HD
ENDBRANCH   6  21
BRANCH   8  23
HETATM   23  C16 UNL     1      14.689 -17.761  20.264  1.00  0.00     0.066 C 
BRANCH  23  24
HETATM   24  C17 UNL     1      14.880 -16.914  19.044  1.00  0.00    -0.017 C 
HETATM   25  C18 UNL     1      15.292 -17.739  17.830  1.00  0.00     0.010 C 
HETATM   26  C19 UNL     1      13.509 -16.334  18.675  1.00  0.00     0.010 C 
ENDBRANCH  23  24
ENDBRANCH   8  23
BRANCH  10  27
HETATM   27  O5  UNL     1      16.910 -15.450  21.252  1.00  0.00    -0.339 OA
ATOM     28  H5  UNL     1      17.781 -15.095  21.114  1.00  0.00     0.220 HD
ENDBRANCH  10  27
BRANCH  12  29
HETATM   29  C11 UNL     1      19.218 -19.329  20.554  1.00  0.00     0.015 C 
HETATM   30  C12 UNL     1      18.295 -19.605  19.417  1.00  0.00     0.012 C 
HETATM   31  C13 UNL     1      19.768 -20.573  21.121  1.00  0.00     0.012 C 
ENDBRANCH  12  29
BRANCH  13  32
HETATM   32  O3  UNL     1      20.376 -17.095  21.473  1.00  0.00    -0.348 OA
ATOM     33  H3  UNL     1      20.055 -16.836  20.618  1.00  0.00     0.219 HD
ENDBRANCH  13  32
BRANCH  15  34
HETATM   34  C7  UNL     1      19.325 -15.333  24.797  1.00  0.00     0.028 C 
BRANCH  34  35
HETATM   35  C6  UNL     1      20.653 -14.763  24.596  1.00  0.00     0.002 C 
BRANCH  35  36
HETATM   36  C5  UNL     1      20.956 -13.975  23.375  1.00  0.00     0.001 C 
BRANCH  36  37
HETATM   37  C4  UNL     1      19.632 -13.819  22.617  1.00  0.00     0.010 C 
BRANCH  37  38
HETATM   38  C3  UNL     1      19.789 -13.379  21.211  1.00  0.00     0.111 C 
BRANCH  38  39
HETATM   39  C2  UNL     1      18.728 -12.431  20.821  1.00  0.00     0.258 C 
HETATM   40  O2  UNL     1      18.906 -11.438  20.092  1.00  0.00    -0.265 OA
BRANCH  39  41
HETATM   41  O1  UNL     1      17.425 -12.652  21.296  1.00  0.00    -0.326 OA
HETATM   42  C1  UNL     1      16.358 -12.051  20.617  1.00  0.00     0.213 C 
ENDBRANCH  39  41
ENDBRANCH  38  39
ENDBRANCH  37  38
ENDBRANCH  36  37
ENDBRANCH  35  36
ENDBRANCH  34  35
ENDBRANCH  15  34
BRANCH  17  43
HETATM   43  O8  UNL     1      17.147 -16.348  26.062  1.00  0.00    -0.389 OA
ATOM     44  H8  UNL     1      16.387 -15.839  25.809  1.00  0.00     0.210 HD
ENDBRANCH  17  43
ENDBRANCH   1   4
TORSDOF 17
ENDMDL
