MODEL 1
REMARK VINA RESULT: -7.900454686      0.000      0.000
REMARK  12 active torsions:
REMARK  status: ('A' for Active; 'I' for Inactive)
REMARK    1  A    between atoms: C2_2  and  C3_3 
REMARK    2  A    between atoms: C3_3  and  N1_4 
REMARK    3  A    between atoms: C4_5  and  S1_6 
REMARK    4  A    between atoms: S1_6  and  C5_7 
REMARK    5  A    between atoms: C5_7  and  C6_8 
REMARK       I    between atoms: C6_8  and  N2_10 
REMARK    6  A    between atoms: N2_10  and  C7_12 
REMARK    7  A    between atoms: C11_16  and  C12_17 
REMARK       I    between atoms: C12_17  and  N3_19 
REMARK    8  A    between atoms: N3_19  and  C13_21 
REMARK    9  A    between atoms: C13_21  and  C15_23 
REMARK       I    between atoms: C15_23  and  N4_25 
REMARK   10  A    between atoms: N4_25  and  C16_27 
REMARK   11  A    between atoms: C19_30  and  C20_31 
REMARK   12  A    between atoms: C22_38  and  C23_39 
ROOT
HETATM    1  C7  UNL     1      18.759 -15.537  23.169  1.00  0.00     0.122 C 
HETATM    2  C8  UNL     1      19.675 -16.552  22.452  1.00  0.00     0.030 C 
HETATM    3  C9  UNL     1      18.778 -17.538  21.687  1.00  0.00     0.007 C 
HETATM    4  C10 UNL     1      17.374 -17.418  22.275  1.00  0.00     0.045 C 
HETATM    5  C11 UNL     1      16.922 -16.062  21.765  1.00  0.00     0.021 C 
HETATM    6  C19 UNL     1      17.694 -15.061  22.257  1.00  0.00     0.022 C 
ENDROOT
BRANCH   1   7
HETATM    7  N2  UNL     1      19.568 -14.550  23.803  1.00  0.00    -0.352 N 
HETATM    8  C6  UNL     1      19.898 -14.550  25.163  1.00  0.00     0.227 C 
HETATM    9  O1  UNL     1      19.561 -15.356  26.009  1.00  0.00    -0.273 OA
ATOM     10  H2  UNL     1      19.932 -13.793  23.226  1.00  0.00     0.163 HD
BRANCH   8  11
HETATM   11  C5  UNL     1      20.780 -13.426  25.664  1.00  0.00     0.185 C 
BRANCH  11  12
HETATM   12  S1  UNL     1      22.273 -14.032  26.440  1.00  0.00    -0.083 SA
BRANCH  12  13
HETATM   13  C4  UNL     1      23.375 -14.701  25.214  1.00  0.00     0.163 A 
HETATM   14  N1  UNL     1      23.649 -16.000  24.988  1.00  0.00    -0.311 N 
HETATM   15  C22 UNL     1      24.576 -16.018  23.991  1.00  0.00     0.108 A 
HETATM   16  N6  UNL     1      24.820 -14.710  23.654  1.00  0.00    -0.286 N 
HETATM   17  N5  UNL     1      24.094 -13.911  24.393  1.00  0.00    -0.278 N 
ATOM     18  H6  UNL     1      25.473 -14.404  22.932  1.00  0.00     0.188 HD
ATOM     19  H5  UNL     1      24.075 -12.893  24.355  1.00  0.00     0.189 HD
BRANCH  14  20
HETATM   20  C3  UNL     1      23.083 -17.106  25.672  1.00  0.00     0.159 C 
BRANCH  20  21
HETATM   21  C2  UNL     1      21.896 -17.748  25.078  1.00  0.00    -0.017 C 
HETATM   22  C1  UNL     1      21.800 -18.965  24.595  1.00  0.00     0.008 C 
ENDBRANCH  20  21
ENDBRANCH  14  20
BRANCH  15  23
HETATM   23  C23 UNL     1      25.301 -17.097  23.339  1.00  0.00     0.009 C 
HETATM   24  C24 UNL     1      26.122 -17.877  24.376  1.00  0.00     0.023 C 
HETATM   25  C25 UNL     1      24.583 -18.001  22.420  1.00  0.00     0.023 C 
HETATM   26  C26 UNL     1      26.403 -16.450  22.470  1.00  0.00     0.023 C 
ENDBRANCH  15  23
ENDBRANCH  12  13
ENDBRANCH  11  12
ENDBRANCH   8  11
ENDBRANCH   1   7
BRANCH   6  27
HETATM   27  C20 UNL     1      17.490 -13.719  21.805  1.00  0.00     0.154 C 
HETATM   28  C21 UNL     1      18.501 -12.904  21.072  1.00  0.00     0.096 C 
HETATM   29  O4  UNL     1      16.410 -13.094  21.983  1.00  0.00    -0.293 OA
ENDBRANCH   6  27
BRANCH   5  30
HETATM   30  C12 UNL     1      15.801 -15.951  20.923  1.00  0.00     0.249 C 
HETATM   31  O2  UNL     1      15.644 -16.262  19.723  1.00  0.00    -0.268 OA
HETATM   32  N3  UNL     1      14.571 -15.400  21.465  1.00  0.00    -0.344 N 
ATOM     33  H3  UNL     1      14.535 -15.085  22.434  1.00  0.00     0.163 HD
BRANCH  32  34
HETATM   34  C13 UNL     1      13.376 -15.299  20.610  1.00  0.00     0.172 C 
HETATM   35  C14 UNL     1      12.443 -16.443  21.004  1.00  0.00     0.042 C 
BRANCH  34  36
HETATM   36  C15 UNL     1      12.703 -14.003  20.800  1.00  0.00     0.240 C 
HETATM   37  O3  UNL     1      12.641 -13.200  19.832  1.00  0.00    -0.271 OA
HETATM   38  N4  UNL     1      12.135 -13.674  22.062  1.00  0.00    -0.355 N 
ATOM     39  H4  UNL     1      12.192 -14.342  22.832  1.00  0.00     0.162 HD
BRANCH  38  40
HETATM   40  C16 UNL     1      11.482 -12.411  22.262  1.00  0.00     0.084 A 
HETATM   41  C17 UNL     1      12.315 -11.265  22.720  1.00  0.00     0.027 A 
HETATM   42  C18 UNL     1      11.243 -11.869  23.623  1.00  0.00     0.027 A 
ENDBRANCH  38  40
ENDBRANCH  34  36
ENDBRANCH  32  34
ENDBRANCH   5  30
TORSDOF 12
ENDMDL
MODEL 2
REMARK VINA RESULT: -7.793071161      2.736     10.017
REMARK  12 active torsions:
REMARK  status: ('A' for Active; 'I' for Inactive)
REMARK    1  A    between atoms: C2_2  and  C3_3 
REMARK    2  A    between atoms: C3_3  and  N1_4 
REMARK    3  A    between atoms: C4_5  and  S1_6 
REMARK    4  A    between atoms: S1_6  and  C5_7 
REMARK    5  A    between atoms: C5_7  and  C6_8 
REMARK       I    between atoms: C6_8  and  N2_10 
REMARK    6  A    between atoms: N2_10  and  C7_12 
REMARK    7  A    between atoms: C11_16  and  C12_17 
REMARK       I    between atoms: C12_17  and  N3_19 
REMARK    8  A    between atoms: N3_19  and  C13_21 
REMARK    9  A    between atoms: C13_21  and  C15_23 
REMARK       I    between atoms: C15_23  and  N4_25 
REMARK   10  A    between atoms: N4_25  and  C16_27 
REMARK   11  A    between atoms: C19_30  and  C20_31 
REMARK   12  A    between atoms: C22_38  and  C23_39 
ROOT
HETATM    1  C7  UNL     1      17.724 -17.214  21.890  1.00  0.00     0.122 C 
HETATM    2  C8  UNL     1      18.193 -18.382  22.784  1.00  0.00     0.030 C 
HETATM    3  C9  UNL     1      19.702 -18.218  23.018  1.00  0.00     0.007 C 
HETATM    4  C10 UNL     1      20.224 -17.260  21.949  1.00  0.00     0.045 C 
HETATM    5  C11 UNL     1      19.650 -15.929  22.397  1.00  0.00     0.021 C 
HETATM    6  C19 UNL     1      18.294 -15.932  22.365  1.00  0.00     0.022 C 
ENDROOT
BRANCH   1   7
HETATM    7  N2  UNL     1      16.309 -17.285  21.741  1.00  0.00    -0.352 N 
HETATM    8  C6  UNL     1      15.650 -17.500  20.525  1.00  0.00     0.227 C 
HETATM    9  O1  UNL     1      16.149 -17.652  19.426  1.00  0.00    -0.273 OA
ATOM     10  H2  UNL     1      15.737 -17.172  22.577  1.00  0.00     0.163 HD
BRANCH   8  11
HETATM   11  C5  UNL     1      14.137 -17.558  20.555  1.00  0.00     0.185 C 
BRANCH  11  12
HETATM   12  S1  UNL     1      13.390 -16.249  19.593  1.00  0.00    -0.083 SA
BRANCH  12  13
HETATM   13  C4  UNL     1      13.126 -14.814  20.609  1.00  0.00     0.163 A 
HETATM   14  N1  UNL     1      13.320 -13.526  20.267  1.00  0.00    -0.311 N 
HETATM   15  C22 UNL     1      13.032 -12.795  21.378  1.00  0.00     0.108 A 
HETATM   16  N6  UNL     1      12.668 -13.688  22.354  1.00  0.00    -0.286 N 
HETATM   17  N5  UNL     1      12.724 -14.910  21.891  1.00  0.00    -0.278 N 
ATOM     18  H6  UNL     1      12.393 -13.436  23.304  1.00  0.00     0.188 HD
ATOM     19  H5  UNL     1      12.506 -15.767  22.400  1.00  0.00     0.189 HD
BRANCH  14  20
HETATM   20  C3  UNL     1      13.752 -13.053  19.000  1.00  0.00     0.159 C 
BRANCH  20  21
HETATM   21  C2  UNL     1      15.199 -13.068  18.717  1.00  0.00    -0.017 C 
HETATM   22  C1  UNL     1      16.025 -12.047  18.714  1.00  0.00     0.008 C 
ENDBRANCH  20  21
ENDBRANCH  14  20
BRANCH  15  23
HETATM   23  C23 UNL     1      13.094 -11.371  21.664  1.00  0.00     0.009 C 
HETATM   24  C24 UNL     1      12.360 -11.068  22.979  1.00  0.00     0.023 C 
HETATM   25  C25 UNL     1      14.393 -10.673  21.591  1.00  0.00     0.023 C 
HETATM   26  C26 UNL     1      12.207 -10.653  20.622  1.00  0.00     0.023 C 
ENDBRANCH  15  23
ENDBRANCH  12  13
ENDBRANCH  11  12
ENDBRANCH   8  11
ENDBRANCH   1   7
BRANCH   6  27
HETATM   27  C20 UNL     1      17.569 -14.801  22.855  1.00  0.00     0.154 C 
HETATM   28  C21 UNL     1      16.854 -13.811  21.998  1.00  0.00     0.096 C 
HETATM   29  O4  UNL     1      17.459 -14.538  24.082  1.00  0.00    -0.293 OA
ENDBRANCH   6  27
BRANCH   5  30
HETATM   30  C12 UNL     1      20.500 -14.863  22.745  1.00  0.00     0.249 C 
HETATM   31  O2  UNL     1      20.695 -13.758  22.194  1.00  0.00    -0.268 OA
HETATM   32  N3  UNL     1      21.316 -14.981  23.940  1.00  0.00    -0.344 N 
ATOM     33  H3  UNL     1      21.283 -15.832  24.501  1.00  0.00     0.163 HD
BRANCH  32  34
HETATM   34  C13 UNL     1      22.193 -13.867  24.339  1.00  0.00     0.172 C 
HETATM   35  C14 UNL     1      21.811 -13.482  25.768  1.00  0.00     0.042 C 
BRANCH  34  36
HETATM   36  C15 UNL     1      23.610 -14.267  24.281  1.00  0.00     0.240 C 
HETATM   37  O3  UNL     1      24.497 -13.405  24.518  1.00  0.00    -0.271 OA
HETATM   38  N4  UNL     1      23.958 -15.608  23.961  1.00  0.00    -0.355 N 
ATOM     39  H4  UNL     1      23.223 -16.291  23.777  1.00  0.00     0.162 HD
BRANCH  38  40
HETATM   40  C16 UNL     1      25.336 -16.008  23.894  1.00  0.00     0.084 A 
HETATM   41  C17 UNL     1      25.838 -16.551  22.602  1.00  0.00     0.027 A 
HETATM   42  C18 UNL     1      25.725 -17.439  23.838  1.00  0.00     0.027 A 
ENDBRANCH  38  40
ENDBRANCH  34  36
ENDBRANCH  32  34
ENDBRANCH   5  30
TORSDOF 12
ENDMDL
MODEL 3
REMARK VINA RESULT: -7.789616133      2.648      4.008
REMARK  12 active torsions:
REMARK  status: ('A' for Active; 'I' for Inactive)
REMARK    1  A    between atoms: C2_2  and  C3_3 
REMARK    2  A    between atoms: C3_3  and  N1_4 
REMARK    3  A    between atoms: C4_5  and  S1_6 
REMARK    4  A    between atoms: S1_6  and  C5_7 
REMARK    5  A    between atoms: C5_7  and  C6_8 
REMARK       I    between atoms: C6_8  and  N2_10 
REMARK    6  A    between atoms: N2_10  and  C7_12 
REMARK    7  A    between atoms: C11_16  and  C12_17 
REMARK       I    between atoms: C12_17  and  N3_19 
REMARK    8  A    between atoms: N3_19  and  C13_21 
REMARK    9  A    between atoms: C13_21  and  C15_23 
REMARK       I    between atoms: C15_23  and  N4_25 
REMARK   10  A    between atoms: N4_25  and  C16_27 
REMARK   11  A    between atoms: C19_30  and  C20_31 
REMARK   12  A    between atoms: C22_38  and  C23_39 
ROOT
HETATM    1  C7  UNL     1      16.821 -17.845  22.024  1.00  0.00     0.122 C 
HETATM    2  C8  UNL     1      16.760 -18.365  20.572  1.00  0.00     0.030 C 
HETATM    3  C9  UNL     1      15.883 -17.398  19.761  1.00  0.00     0.007 C 
HETATM    4  C10 UNL     1      15.070 -16.580  20.763  1.00  0.00     0.045 C 
HETATM    5  C11 UNL     1      16.123 -15.674  21.374  1.00  0.00     0.021 C 
HETATM    6  C19 UNL     1      17.065 -16.385  22.044  1.00  0.00     0.022 C 
ENDROOT
BRANCH   1   7
HETATM    7  N2  UNL     1      17.711 -18.668  22.773  1.00  0.00    -0.352 N 
HETATM    8  C6  UNL     1      17.583 -18.932  24.141  1.00  0.00     0.227 C 
HETATM    9  O1  UNL     1      16.728 -18.520  24.901  1.00  0.00    -0.273 OA
ATOM     10  H2  UNL     1      18.494 -19.093  22.278  1.00  0.00     0.163 HD
BRANCH   8  11
HETATM   11  C5  UNL     1      18.617 -19.841  24.773  1.00  0.00     0.185 C 
BRANCH  11  12
HETATM   12  S1  UNL     1      19.107 -19.282  26.399  1.00  0.00    -0.083 SA
BRANCH  12  13
HETATM   13  C4  UNL     1      19.603 -17.575  26.338  1.00  0.00     0.163 A 
HETATM   14  N1  UNL     1      20.823 -17.092  26.032  1.00  0.00    -0.311 N 
HETATM   15  C22 UNL     1      20.733 -15.740  26.161  1.00  0.00     0.108 A 
HETATM   16  N6  UNL     1      19.444 -15.465  26.543  1.00  0.00    -0.286 N 
HETATM   17  N5  UNL     1      18.758 -16.574  26.650  1.00  0.00    -0.278 N 
ATOM     18  H6  UNL     1      19.073 -14.530  26.717  1.00  0.00     0.188 HD
ATOM     19  H5  UNL     1      17.778 -16.663  26.916  1.00  0.00     0.189 HD
BRANCH  14  20
HETATM   20  C3  UNL     1      21.958 -17.859  25.664  1.00  0.00     0.159 C 
BRANCH  20  21
HETATM   21  C2  UNL     1      22.291 -17.952  24.230  1.00  0.00    -0.017 C 
HETATM   22  C1  UNL     1      21.464 -17.924  23.211  1.00  0.00     0.008 C 
ENDBRANCH  20  21
ENDBRANCH  14  20
BRANCH  15  23
HETATM   23  C23 UNL     1      21.707 -14.671  26.020  1.00  0.00     0.009 C 
HETATM   24  C24 UNL     1      22.894 -14.915  26.964  1.00  0.00     0.023 C 
HETATM   25  C25 UNL     1      22.156 -14.271  24.672  1.00  0.00     0.023 C 
HETATM   26  C26 UNL     1      21.075 -13.392  26.615  1.00  0.00     0.023 C 
ENDBRANCH  15  23
ENDBRANCH  12  13
ENDBRANCH  11  12
ENDBRANCH   8  11
ENDBRANCH   1   7
BRANCH   6  27
HETATM   27  C20 UNL     1      18.200 -15.713  22.598  1.00  0.00     0.154 C 
HETATM   28  C21 UNL     1      19.376 -15.239  21.813  1.00  0.00     0.096 C 
HETATM   29  O4  UNL     1      18.308 -15.449  23.826  1.00  0.00    -0.293 OA
ENDBRANCH   6  27
BRANCH   5  30
HETATM   30  C12 UNL     1      16.028 -14.277  21.247  1.00  0.00     0.249 C 
HETATM   31  O2  UNL     1      16.257 -13.362  22.067  1.00  0.00    -0.268 OA
HETATM   32  N3  UNL     1      15.611 -13.718  19.973  1.00  0.00    -0.344 N 
ATOM     33  H3  UNL     1      15.375 -14.335  19.196  1.00  0.00     0.163 HD
BRANCH  32  34
HETATM   34  C13 UNL     1      15.531 -12.257  19.806  1.00  0.00     0.172 C 
HETATM   35  C14 UNL     1      15.939 -11.945  18.367  1.00  0.00     0.042 C 
BRANCH  34  36
HETATM   36  C15 UNL     1      14.164 -11.773  20.065  1.00  0.00     0.240 C 
HETATM   37  O3  UNL     1      13.430 -11.468  19.087  1.00  0.00    -0.271 OA
HETATM   38  N4  UNL     1      13.690 -11.656  21.400  1.00  0.00    -0.355 N 
ATOM     39  H4  UNL     1      14.300 -11.914  22.177  1.00  0.00     0.162 HD
BRANCH  38  40
HETATM   40  C16 UNL     1      12.362 -11.180  21.665  1.00  0.00     0.084 A 
HETATM   41  C17 UNL     1      12.073 -10.653  23.027  1.00  0.00     0.027 A 
HETATM   42  C18 UNL     1      11.423 -11.940  22.528  1.00  0.00     0.027 A 
ENDBRANCH  38  40
ENDBRANCH  34  36
ENDBRANCH  32  34
ENDBRANCH   5  30
TORSDOF 12
ENDMDL
MODEL 4
REMARK VINA RESULT: -7.709065082      3.564      5.906
REMARK  12 active torsions:
REMARK  status: ('A' for Active; 'I' for Inactive)
REMARK    1  A    between atoms: C2_2  and  C3_3 
REMARK    2  A    between atoms: C3_3  and  N1_4 
REMARK    3  A    between atoms: C4_5  and  S1_6 
REMARK    4  A    between atoms: S1_6  and  C5_7 
REMARK    5  A    between atoms: C5_7  and  C6_8 
REMARK       I    between atoms: C6_8  and  N2_10 
REMARK    6  A    between atoms: N2_10  and  C7_12 
REMARK    7  A    between atoms: C11_16  and  C12_17 
REMARK       I    between atoms: C12_17  and  N3_19 
REMARK    8  A    between atoms: N3_19  and  C13_21 
REMARK    9  A    between atoms: C13_21  and  C15_23 
REMARK       I    between atoms: C15_23  and  N4_25 
REMARK   10  A    between atoms: N4_25  and  C16_27 
REMARK   11  A    between atoms: C19_30  and  C20_31 
REMARK   12  A    between atoms: C22_38  and  C23_39 
ROOT
HETATM    1  C7  UNL     1      13.446 -18.820  21.076  1.00  0.00     0.122 C 
HETATM    2  C8  UNL     1      12.889 -19.426  19.770  1.00  0.00     0.030 C 
HETATM    3  C9  UNL     1      11.778 -18.499  19.255  1.00  0.00     0.007 C 
HETATM    4  C10 UNL     1      11.356 -17.610  20.423  1.00  0.00     0.045 C 
HETATM    5  C11 UNL     1      12.547 -16.684  20.575  1.00  0.00     0.021 C 
HETATM    6  C19 UNL     1      13.669 -17.364  20.920  1.00  0.00     0.022 C 
ENDROOT
BRANCH   1   7
HETATM    7  N2  UNL     1      14.547 -19.607  21.519  1.00  0.00    -0.352 N 
HETATM    8  C6  UNL     1      14.696 -20.100  22.821  1.00  0.00     0.227 C 
HETATM    9  O1  UNL     1      13.944 -19.944  23.764  1.00  0.00    -0.273 OA
ATOM     10  H2  UNL     1      15.277 -19.827  20.842  1.00  0.00     0.163 HD
BRANCH   8  11
HETATM   11  C5  UNL     1      15.927 -20.931  23.113  1.00  0.00     0.185 C 
BRANCH  11  12
HETATM   12  S1  UNL     1      16.807 -20.353  24.559  1.00  0.00    -0.083 SA
BRANCH  12  13
HETATM   13  C4  UNL     1      17.371 -18.685  24.308  1.00  0.00     0.163 A 
HETATM   14  N1  UNL     1      18.453 -18.287  23.612  1.00  0.00    -0.311 N 
HETATM   15  C22 UNL     1      18.503 -16.933  23.740  1.00  0.00     0.108 A 
HETATM   16  N6  UNL     1      17.431 -16.570  24.517  1.00  0.00    -0.286 N 
HETATM   17  N5  UNL     1      16.745 -17.628  24.861  1.00  0.00    -0.278 N 
ATOM     18  H6  UNL     1      17.203 -15.612  24.786  1.00  0.00     0.188 HD
ATOM     19  H5  UNL     1      15.902 -17.650  25.435  1.00  0.00     0.189 HD
BRANCH  14  20
HETATM   20  C3  UNL     1      19.350 -19.130  22.908  1.00  0.00     0.159 C 
BRANCH  20  21
HETATM   21  C2  UNL     1      19.053 -19.424  21.493  1.00  0.00    -0.017 C 
HETATM   22  C1  UNL     1      18.102 -18.906  20.750  1.00  0.00     0.008 C 
ENDBRANCH  20  21
ENDBRANCH  14  20
BRANCH  15  23
HETATM   23  C23 UNL     1      19.448 -15.934  23.270  1.00  0.00     0.009 C 
HETATM   24  C24 UNL     1      20.854 -16.250  23.802  1.00  0.00     0.023 C 
HETATM   25  C25 UNL     1      19.474 -15.578  21.837  1.00  0.00     0.023 C 
HETATM   26  C26 UNL     1      19.115 -14.610  23.995  1.00  0.00     0.023 C 
ENDBRANCH  15  23
ENDBRANCH  12  13
ENDBRANCH  11  12
ENDBRANCH   8  11
ENDBRANCH   1   7
BRANCH   6  27
HETATM   27  C20 UNL     1      14.920 -16.676  21.004  1.00  0.00     0.154 C 
HETATM   28  C21 UNL     1      15.564 -15.939  19.878  1.00  0.00     0.096 C 
HETATM   29  O4  UNL     1      15.602 -16.620  22.062  1.00  0.00    -0.293 OA
ENDBRANCH   6  27
BRANCH   5  30
HETATM   30  C12 UNL     1      12.402 -15.296  20.402  1.00  0.00     0.249 C 
HETATM   31  O2  UNL     1      12.296 -14.606  19.365  1.00  0.00    -0.268 OA
HETATM   32  N3  UNL     1      12.344 -14.447  21.579  1.00  0.00    -0.344 N 
ATOM     33  H3  UNL     1      12.428 -14.855  22.510  1.00  0.00     0.163 HD
BRANCH  32  34
HETATM   34  C13 UNL     1      12.165 -12.993  21.425  1.00  0.00     0.172 C 
HETATM   35  C14 UNL     1      11.195 -12.541  22.516  1.00  0.00     0.042 C 
BRANCH  34  36
HETATM   36  C15 UNL     1      13.450 -12.287  21.561  1.00  0.00     0.240 C 
HETATM   37  O3  UNL     1      13.547 -11.353  22.399  1.00  0.00    -0.271 OA
HETATM   38  N4  UNL     1      14.558 -12.664  20.753  1.00  0.00    -0.355 N 
ATOM     39  H4  UNL     1      14.459 -13.427  20.083  1.00  0.00     0.162 HD
BRANCH  38  40
HETATM   40  C16 UNL     1      15.814 -11.979  20.871  1.00  0.00     0.084 A 
HETATM   41  C17 UNL     1      16.722 -11.986  19.691  1.00  0.00     0.027 A 
HETATM   42  C18 UNL     1      17.095 -12.721  20.975  1.00  0.00     0.027 A 
ENDBRANCH  38  40
ENDBRANCH  34  36
ENDBRANCH  32  34
ENDBRANCH   5  30
TORSDOF 12
ENDMDL
MODEL 5
REMARK VINA RESULT: -7.641776466      2.878     10.454
REMARK  12 active torsions:
REMARK  status: ('A' for Active; 'I' for Inactive)
REMARK    1  A    between atoms: C2_2  and  C3_3 
REMARK    2  A    between atoms: C3_3  and  N1_4 
REMARK    3  A    between atoms: C4_5  and  S1_6 
REMARK    4  A    between atoms: S1_6  and  C5_7 
REMARK    5  A    between atoms: C5_7  and  C6_8 
REMARK       I    between atoms: C6_8  and  N2_10 
REMARK    6  A    between atoms: N2_10  and  C7_12 
REMARK    7  A    between atoms: C11_16  and  C12_17 
REMARK       I    between atoms: C12_17  and  N3_19 
REMARK    8  A    between atoms: N3_19  and  C13_21 
REMARK    9  A    between atoms: C13_21  and  C15_23 
REMARK       I    between atoms: C15_23  and  N4_25 
REMARK   10  A    between atoms: N4_25  and  C16_27 
REMARK   11  A    between atoms: C19_30  and  C20_31 
REMARK   12  A    between atoms: C22_38  and  C23_39 
ROOT
HETATM    1  C7  UNL     1      18.425 -16.684  24.179  1.00  0.00     0.122 C 
HETATM    2  C8  UNL     1      17.817 -16.100  25.473  1.00  0.00     0.030 C 
HETATM    3  C9  UNL     1      18.937 -16.010  26.520  1.00  0.00     0.007 C 
HETATM    4  C10 UNL     1      20.070 -16.919  26.048  1.00  0.00     0.045 C 
HETATM    5  C11 UNL     1      20.631 -16.152  24.865  1.00  0.00     0.021 C 
HETATM    6  C19 UNL     1      19.718 -16.031  23.870  1.00  0.00     0.022 C 
ENDROOT
BRANCH   1   7
HETATM    7  N2  UNL     1      17.431 -16.683  23.159  1.00  0.00    -0.352 N 
HETATM    8  C6  UNL     1      16.505 -17.713  22.953  1.00  0.00     0.227 C 
HETATM    9  O1  UNL     1      16.396 -18.749  23.579  1.00  0.00    -0.273 OA
ATOM     10  H2  UNL     1      17.390 -15.876  22.536  1.00  0.00     0.163 HD
BRANCH   8  11
HETATM   11  C5  UNL     1      15.510 -17.537  21.825  1.00  0.00     0.185 C 
BRANCH  11  12
HETATM   12  S1  UNL     1      15.817 -16.053  20.877  1.00  0.00    -0.083 SA
BRANCH  12  13
HETATM   13  C4  UNL     1      14.603 -14.813  21.267  1.00  0.00     0.163 A 
HETATM   14  N1  UNL     1      14.698 -13.486  21.056  1.00  0.00    -0.311 N 
HETATM   15  C22 UNL     1      13.553 -12.945  21.556  1.00  0.00     0.108 A 
HETATM   16  N6  UNL     1      12.808 -13.986  22.051  1.00  0.00    -0.286 N 
HETATM   17  N5  UNL     1      13.442 -15.117  21.877  1.00  0.00    -0.278 N 
ATOM     18  H6  UNL     1      11.892 -13.891  22.492  1.00  0.00     0.188 HD
ATOM     19  H5  UNL     1      13.120 -16.045  22.149  1.00  0.00     0.189 HD
BRANCH  14  20
HETATM   20  C3  UNL     1      15.786 -12.812  20.445  1.00  0.00     0.159 C 
BRANCH  20  21
HETATM   21  C2  UNL     1      15.648 -12.424  19.028  1.00  0.00    -0.017 C 
HETATM   22  C1  UNL     1      14.931 -13.016  18.101  1.00  0.00     0.008 C 
ENDBRANCH  20  21
ENDBRANCH  14  20
BRANCH  15  23
HETATM   23  C23 UNL     1      13.082 -11.575  21.675  1.00  0.00     0.009 C 
HETATM   24  C24 UNL     1      11.849 -11.523  22.589  1.00  0.00     0.023 C 
HETATM   25  C25 UNL     1      14.043 -10.502  21.994  1.00  0.00     0.023 C 
HETATM   26  C26 UNL     1      12.489 -11.173  20.305  1.00  0.00     0.023 C 
ENDBRANCH  15  23
ENDBRANCH  12  13
ENDBRANCH  11  12
ENDBRANCH   8  11
ENDBRANCH   1   7
BRANCH   6  27
HETATM   27  C20 UNL     1      20.026 -15.246  22.714  1.00  0.00     0.154 C 
HETATM   28  C21 UNL     1      19.957 -13.757  22.653  1.00  0.00     0.096 C 
HETATM   29  O4  UNL     1      20.401 -15.752  21.623  1.00  0.00    -0.293 OA
ENDBRANCH   6  27
BRANCH   5  30
HETATM   30  C12 UNL     1      21.962 -15.698  24.872  1.00  0.00     0.249 C 
HETATM   31  O2  UNL     1      22.441 -14.566  25.099  1.00  0.00    -0.268 OA
HETATM   32  N3  UNL     1      23.025 -16.645  24.587  1.00  0.00    -0.344 N 
ATOM     33  H3  UNL     1      22.801 -17.616  24.368  1.00  0.00     0.163 HD
BRANCH  32  34
HETATM   34  C13 UNL     1      24.429 -16.200  24.615  1.00  0.00     0.172 C 
HETATM   35  C14 UNL     1      25.100 -16.900  25.798  1.00  0.00     0.042 C 
BRANCH  34  36
HETATM   36  C15 UNL     1      25.116 -16.549  23.360  1.00  0.00     0.240 C 
HETATM   37  O3  UNL     1      24.455 -17.088  22.433  1.00  0.00    -0.271 OA
HETATM   38  N4  UNL     1      26.504 -16.278  23.209  1.00  0.00    -0.355 N 
ATOM     39  H4  UNL     1      27.019 -15.836  23.971  1.00  0.00     0.162 HD
BRANCH  38  40
HETATM   40  C16 UNL     1      27.186 -16.620  21.993  1.00  0.00     0.084 A 
HETATM   41  C17 UNL     1      27.914 -17.918  21.947  1.00  0.00     0.027 A 
HETATM   42  C18 UNL     1      28.667 -16.591  21.901  1.00  0.00     0.027 A 
ENDBRANCH  38  40
ENDBRANCH  34  36
ENDBRANCH  32  34
ENDBRANCH   5  30
TORSDOF 12
ENDMDL
