MODEL 1
REMARK VINA RESULT: -7.734794708      0.000      0.000
REMARK  13 active torsions:
REMARK  status: ('A' for Active; 'I' for Inactive)
REMARK    1  A    between atoms: C4_4  and  C5_5 
REMARK    2  A    between atoms: C5_5  and  O1_6 
REMARK    3  A    between atoms: O1_6  and  C6_7 
REMARK    4  A    between atoms: C7_8  and  C8_9 
REMARK    5  A    between atoms: C8_9  and  C9_10 
REMARK    6  A    between atoms: C10_11  and  O2_12 
REMARK    7  A    between atoms: C11_14  and  O3_15 
REMARK    8  A    between atoms: C12_17  and  N1_18 
REMARK    9  A    between atoms: N1_18  and  C14_20 
REMARK   10  A    between atoms: C14_20  and  C15_21 
REMARK   11  A    between atoms: C15_21  and  C16_22 
REMARK   12  A    between atoms: C16_22  and  C17_23 
REMARK   13  A    between atoms: C17_23  and  N2_24 
ROOT
HETATM    1  C9  UNL     1      13.057 -14.507  21.005  1.00  0.00     0.116 C 
HETATM    2  C10 UNL     1      14.496 -15.028  20.972  1.00  0.00     0.171 C 
HETATM    3  C11 UNL     1      15.519 -14.142  21.566  1.00  0.00     0.173 C 
HETATM    4  C12 UNL     1      15.483 -12.734  21.078  1.00  0.00     0.132 C 
HETATM    5  C22 UNL     1      14.113 -12.359  20.556  1.00  0.00     0.104 C 
HETATM    6  C23 UNL     1      13.894 -10.881  20.890  1.00  0.00     0.027 C 
HETATM    7  C24 UNL     1      13.349 -10.750  22.309  1.00  0.00     0.004 C 
HETATM    8  C25 UNL     1      11.941 -11.245  22.343  1.00  0.00     0.019 C 
HETATM    9  C26 UNL     1      11.857 -12.427  21.353  1.00  0.00     0.118 C 
HETATM   10  N3  UNL     1      13.086 -13.112  21.199  1.00  0.00    -0.399 N 
ENDROOT
BRANCH   1  11
HETATM   11  C8  UNL     1      12.455 -15.053  19.753  1.00  0.00     0.087 C 
BRANCH  11  12
HETATM   12  C7  UNL     1      12.380 -16.486  19.546  1.00  0.00     0.049 A 
HETATM   13  C6  UNL     1      12.949 -17.083  18.445  1.00  0.00     0.141 A 
HETATM   14  C29 UNL     1      12.820 -18.476  18.325  1.00  0.00     0.208 A 
HETATM   15  C28 UNL     1      12.154 -19.208  19.258  1.00  0.00     0.075 A 
HETATM   16  O5  UNL     1      13.323 -19.107  17.332  1.00  0.00    -0.285 OA
HETATM   17  C27 UNL     1      11.606 -18.555  20.337  1.00  0.00     0.092 A 
HETATM   18  N4  UNL     1      11.740 -17.231  20.437  1.00  0.00    -0.367 N 
ATOM     19  H4  UNL     1      11.327 -16.766  21.245  1.00  0.00     0.165 HD
BRANCH  13  20
HETATM   20  O1  UNL     1      13.616 -16.445  17.459  1.00  0.00    -0.342 OA
BRANCH  20  21
HETATM   21  C5  UNL     1      14.845 -15.918  17.248  1.00  0.00     0.203 C 
BRANCH  21  22
HETATM   22  C4  UNL     1      15.752 -16.679  16.408  1.00  0.00     0.002 C 
HETATM   23  C2  UNL     1      16.296 -16.211  15.310  1.00  0.00    -0.089 C 
HETATM   24  C1  UNL     1      16.065 -14.859  14.775  1.00  0.00     0.042 C 
HETATM   25  C3  UNL     1      17.247 -17.066  14.503  1.00  0.00     0.042 C 
ENDBRANCH  21  22
ENDBRANCH  20  21
ENDBRANCH  13  20
ENDBRANCH  11  12
ENDBRANCH   1  11
BRANCH   2  26
HETATM   26  O2  UNL     1      14.551 -16.242  21.698  1.00  0.00    -0.391 OA
ATOM     27  H2  UNL     1      14.745 -16.041  22.606  1.00  0.00     0.210 HD
ENDBRANCH   2  26
BRANCH   3  28
HETATM   28  O3  UNL     1      16.757 -14.785  21.422  1.00  0.00    -0.391 OA
ATOM     29  H3  UNL     1      17.317 -14.476  22.124  1.00  0.00     0.210 HD
ENDBRANCH   3  28
BRANCH   4  30
HETATM   30  N1  UNL     1      16.520 -12.383  20.233  1.00  0.00    -0.408 N 
HETATM   31  C13 UNL     1      16.373 -11.992  18.911  1.00  0.00     0.143 C 
BRANCH  30  32
HETATM   32  C14 UNL     1      17.659 -11.858  20.898  1.00  0.00     0.117 C 
BRANCH  32  33
HETATM   33  C15 UNL     1      18.942 -12.036  20.156  1.00  0.00     0.021 C 
BRANCH  33  34
HETATM   34  C16 UNL     1      19.773 -13.106  20.806  1.00  0.00     0.032 C 
BRANCH  34  35
HETATM   35  C17 UNL     1      19.521 -13.209  22.291  1.00  0.00     0.272 C 
BRANCH  35  36
HETATM   36  N2  UNL     1      20.040 -14.404  22.899  1.00  0.00     0.092 N 
HETATM   37  C18 UNL     1      19.939 -15.537  21.992  1.00  0.00     0.298 C 
HETATM   38  C19 UNL     1      19.368 -16.739  22.674  1.00  0.00     0.198 C 
HETATM   39  O4  UNL     1      18.221 -16.431  23.391  1.00  0.00    -0.388 OA
HETATM   40  C20 UNL     1      18.459 -15.543  24.424  1.00  0.00     0.198 C 
HETATM   41  C21 UNL     1      19.652 -14.670  24.237  1.00  0.00     0.298 C 
ENDBRANCH  35  36
ENDBRANCH  34  35
ENDBRANCH  33  34
ENDBRANCH  32  33
ENDBRANCH  30  32
ENDBRANCH   4  30
TORSDOF 13
ENDMDL
MODEL 2
REMARK VINA RESULT: -7.721174420      2.498      6.549
REMARK  13 active torsions:
REMARK  status: ('A' for Active; 'I' for Inactive)
REMARK    1  A    between atoms: C4_4  and  C5_5 
REMARK    2  A    between atoms: C5_5  and  O1_6 
REMARK    3  A    between atoms: O1_6  and  C6_7 
REMARK    4  A    between atoms: C7_8  and  C8_9 
REMARK    5  A    between atoms: C8_9  and  C9_10 
REMARK    6  A    between atoms: C10_11  and  O2_12 
REMARK    7  A    between atoms: C11_14  and  O3_15 
REMARK    8  A    between atoms: C12_17  and  N1_18 
REMARK    9  A    between atoms: N1_18  and  C14_20 
REMARK   10  A    between atoms: C14_20  and  C15_21 
REMARK   11  A    between atoms: C15_21  and  C16_22 
REMARK   12  A    between atoms: C16_22  and  C17_23 
REMARK   13  A    between atoms: C17_23  and  N2_24 
ROOT
HETATM    1  C9  UNL     1      14.446 -14.913  19.434  1.00  0.00     0.116 C 
HETATM    2  C10 UNL     1      14.122 -15.470  20.822  1.00  0.00     0.171 C 
HETATM    3  C11 UNL     1      14.368 -16.915  21.014  1.00  0.00     0.173 C 
HETATM    4  C12 UNL     1      13.770 -17.792  19.968  1.00  0.00     0.132 C 
HETATM    5  C22 UNL     1      13.557 -17.046  18.668  1.00  0.00     0.104 C 
HETATM    6  C23 UNL     1      13.791 -18.045  17.532  1.00  0.00     0.027 C 
HETATM    7  C24 UNL     1      15.279 -18.113  17.205  1.00  0.00     0.004 C 
HETATM    8  C25 UNL     1      15.694 -16.844  16.538  1.00  0.00     0.019 C 
HETATM    9  C26 UNL     1      14.870 -15.708  17.181  1.00  0.00     0.118 C 
HETATM   10  N3  UNL     1      14.495 -15.982  18.518  1.00  0.00    -0.399 N 
ENDROOT
BRANCH   1  11
HETATM   11  C8  UNL     1      13.433 -13.836  19.240  1.00  0.00     0.087 C 
BRANCH  11  12
HETATM   12  C7  UNL     1      13.220 -12.841  20.273  1.00  0.00     0.049 A 
HETATM   13  C6  UNL     1      14.056 -11.757  20.409  1.00  0.00     0.141 A 
HETATM   14  C29 UNL     1      13.776 -10.849  21.443  1.00  0.00     0.208 A 
HETATM   15  C28 UNL     1      12.721 -11.035  22.282  1.00  0.00     0.075 A 
HETATM   16  O5  UNL     1      14.503  -9.813  21.634  1.00  0.00    -0.285 OA
HETATM   17  C27 UNL     1      11.921 -12.138  22.097  1.00  0.00     0.092 A 
HETATM   18  N4  UNL     1      12.201 -12.989  21.108  1.00  0.00    -0.367 N 
ATOM     19  H4  UNL     1      11.595 -13.801  20.987  1.00  0.00     0.165 HD
BRANCH  13  20
HETATM   20  O1  UNL     1      15.134 -11.491  19.640  1.00  0.00    -0.342 OA
BRANCH  20  21
HETATM   21  C5  UNL     1      16.480 -11.597  19.718  1.00  0.00     0.203 C 
BRANCH  21  22
HETATM   22  C4  UNL     1      17.013 -12.486  20.736  1.00  0.00     0.002 C 
HETATM   23  C2  UNL     1      18.294 -12.660  20.957  1.00  0.00    -0.089 C 
HETATM   24  C1  UNL     1      19.368 -11.985  20.209  1.00  0.00     0.042 C 
HETATM   25  C3  UNL     1      18.762 -13.591  22.051  1.00  0.00     0.042 C 
ENDBRANCH  21  22
ENDBRANCH  20  21
ENDBRANCH  13  20
ENDBRANCH  11  12
ENDBRANCH   1  11
BRANCH   2  26
HETATM   26  O2  UNL     1      14.926 -14.800  21.775  1.00  0.00    -0.391 OA
ATOM     27  H2  UNL     1      14.423 -14.695  22.574  1.00  0.00     0.210 HD
ENDBRANCH   2  26
BRANCH   3  28
HETATM   28  O3  UNL     1      13.995 -17.227  22.330  1.00  0.00    -0.391 OA
ATOM     29  H3  UNL     1      13.484 -18.027  22.294  1.00  0.00     0.210 HD
ENDBRANCH   3  28
BRANCH   4  30
HETATM   30  N1  UNL     1      12.673 -18.527  20.379  1.00  0.00    -0.408 N 
HETATM   31  C13 UNL     1      11.355 -18.228  20.074  1.00  0.00     0.143 C 
BRANCH  30  32
HETATM   32  C14 UNL     1      12.947 -19.901  20.608  1.00  0.00     0.117 C 
BRANCH  32  33
HETATM   33  C15 UNL     1      14.278 -20.356  20.108  1.00  0.00     0.021 C 
BRANCH  33  34
HETATM   34  C16 UNL     1      14.971 -21.182  21.154  1.00  0.00     0.032 C 
BRANCH  34  35
HETATM   35  C17 UNL     1      14.695 -20.689  22.554  1.00  0.00     0.272 C 
BRANCH  35  36
HETATM   36  N2  UNL     1      15.873 -20.445  23.340  1.00  0.00     0.092 N 
HETATM   37  C18 UNL     1      15.561 -19.649  24.517  1.00  0.00     0.298 C 
HETATM   38  C19 UNL     1      16.530 -18.523  24.693  1.00  0.00     0.198 C 
HETATM   39  O4  UNL     1      16.721 -17.817  23.514  1.00  0.00    -0.388 OA
HETATM   40  C20 UNL     1      17.285 -18.589  22.514  1.00  0.00     0.198 C 
HETATM   41  C21 UNL     1      17.045 -20.053  22.644  1.00  0.00     0.298 C 
ENDBRANCH  35  36
ENDBRANCH  34  35
ENDBRANCH  33  34
ENDBRANCH  32  33
ENDBRANCH  30  32
ENDBRANCH   4  30
TORSDOF 13
ENDMDL
MODEL 3
REMARK VINA RESULT: -7.596111141      3.028      6.951
REMARK  13 active torsions:
REMARK  status: ('A' for Active; 'I' for Inactive)
REMARK    1  A    between atoms: C4_4  and  C5_5 
REMARK    2  A    between atoms: C5_5  and  O1_6 
REMARK    3  A    between atoms: O1_6  and  C6_7 
REMARK    4  A    between atoms: C7_8  and  C8_9 
REMARK    5  A    between atoms: C8_9  and  C9_10 
REMARK    6  A    between atoms: C10_11  and  O2_12 
REMARK    7  A    between atoms: C11_14  and  O3_15 
REMARK    8  A    between atoms: C12_17  and  N1_18 
REMARK    9  A    between atoms: N1_18  and  C14_20 
REMARK   10  A    between atoms: C14_20  and  C15_21 
REMARK   11  A    between atoms: C15_21  and  C16_22 
REMARK   12  A    between atoms: C16_22  and  C17_23 
REMARK   13  A    between atoms: C17_23  and  N2_24 
ROOT
HETATM    1  C9  UNL     1      14.605 -14.991  19.316  1.00  0.00     0.116 C 
HETATM    2  C10 UNL     1      14.200 -15.502  20.700  1.00  0.00     0.171 C 
HETATM    3  C11 UNL     1      14.345 -16.956  20.922  1.00  0.00     0.173 C 
HETATM    4  C12 UNL     1      13.726 -17.811  19.871  1.00  0.00     0.132 C 
HETATM    5  C22 UNL     1      13.604 -17.075  18.553  1.00  0.00     0.104 C 
HETATM    6  C23 UNL     1      13.810 -18.108  17.441  1.00  0.00     0.027 C 
HETATM    7  C24 UNL     1      15.300 -18.277  17.166  1.00  0.00     0.004 C 
HETATM    8  C25 UNL     1      15.819 -17.049  16.494  1.00  0.00     0.019 C 
HETATM    9  C26 UNL     1      15.050 -15.852  17.091  1.00  0.00     0.118 C 
HETATM   10  N3  UNL     1      14.614 -16.077  18.419  1.00  0.00    -0.399 N 
ENDROOT
BRANCH   1  11
HETATM   11  C8  UNL     1      13.670 -13.855  19.071  1.00  0.00     0.087 C 
BRANCH  11  12
HETATM   12  C7  UNL     1      13.373 -12.914  20.134  1.00  0.00     0.049 A 
HETATM   13  C6  UNL     1      14.151 -11.801  20.347  1.00  0.00     0.141 A 
HETATM   14  C29 UNL     1      13.791 -10.950  21.404  1.00  0.00     0.208 A 
HETATM   15  C28 UNL     1      12.714 -11.219  22.192  1.00  0.00     0.075 A 
HETATM   16  O5  UNL     1      14.462  -9.892  21.666  1.00  0.00    -0.285 OA
HETATM   17  C27 UNL     1      11.974 -12.347  21.931  1.00  0.00     0.092 A 
HETATM   18  N4  UNL     1      12.330 -13.143  20.921  1.00  0.00    -0.367 N 
ATOM     19  H4  UNL     1      11.768 -13.975  20.743  1.00  0.00     0.165 HD
BRANCH  13  20
HETATM   20  O1  UNL     1      15.245 -11.455  19.632  1.00  0.00    -0.342 OA
BRANCH  20  21
HETATM   21  C5  UNL     1      16.590 -11.557  19.734  1.00  0.00     0.203 C 
BRANCH  21  22
HETATM   22  C4  UNL     1      17.108 -12.462  20.744  1.00  0.00     0.002 C 
HETATM   23  C2  UNL     1      18.386 -12.667  20.956  1.00  0.00    -0.089 C 
HETATM   24  C1  UNL     1      19.470 -12.014  20.205  1.00  0.00     0.042 C 
HETATM   25  C3  UNL     1      18.839 -13.614  22.043  1.00  0.00     0.042 C 
ENDBRANCH  21  22
ENDBRANCH  20  21
ENDBRANCH  13  20
ENDBRANCH  11  12
ENDBRANCH   1  11
BRANCH   2  26
HETATM   26  O2  UNL     1      15.015 -14.869  21.669  1.00  0.00    -0.391 OA
ATOM     27  H2  UNL     1      14.472 -14.279  22.180  1.00  0.00     0.210 HD
ENDBRANCH   2  26
BRANCH   3  28
HETATM   28  O3  UNL     1      13.910 -17.221  22.230  1.00  0.00    -0.391 OA
ATOM     29  H3  UNL     1      13.682 -18.142  22.268  1.00  0.00     0.210 HD
ENDBRANCH   3  28
BRANCH   4  30
HETATM   30  N1  UNL     1      12.571 -18.466  20.255  1.00  0.00    -0.408 N 
HETATM   31  C13 UNL     1      11.286 -17.966  20.113  1.00  0.00     0.143 C 
BRANCH  30  32
HETATM   32  C14 UNL     1      12.675 -19.882  20.246  1.00  0.00     0.117 C 
BRANCH  32  33
HETATM   33  C15 UNL     1      12.751 -20.503  21.602  1.00  0.00     0.021 C 
BRANCH  33  34
HETATM   34  C16 UNL     1      13.666 -21.694  21.577  1.00  0.00     0.032 C 
BRANCH  34  35
HETATM   35  C17 UNL     1      15.122 -21.304  21.648  1.00  0.00     0.272 C 
BRANCH  35  36
HETATM   36  N2  UNL     1      15.722 -21.485  22.942  1.00  0.00     0.092 N 
HETATM   37  C18 UNL     1      15.065 -22.554  23.677  1.00  0.00     0.298 C 
HETATM   38  C19 UNL     1      14.751 -22.145  25.081  1.00  0.00     0.198 C 
HETATM   39  O4  UNL     1      14.135 -20.903  25.132  1.00  0.00    -0.388 OA
HETATM   40  C20 UNL     1      14.943 -19.885  24.660  1.00  0.00     0.198 C 
HETATM   41  C21 UNL     1      15.994 -20.316  23.697  1.00  0.00     0.298 C 
ENDBRANCH  35  36
ENDBRANCH  34  35
ENDBRANCH  33  34
ENDBRANCH  32  33
ENDBRANCH  30  32
ENDBRANCH   4  30
TORSDOF 13
ENDMDL
MODEL 4
REMARK VINA RESULT: -7.407278358      2.802      8.126
REMARK  13 active torsions:
REMARK  status: ('A' for Active; 'I' for Inactive)
REMARK    1  A    between atoms: C4_4  and  C5_5 
REMARK    2  A    between atoms: C5_5  and  O1_6 
REMARK    3  A    between atoms: O1_6  and  C6_7 
REMARK    4  A    between atoms: C7_8  and  C8_9 
REMARK    5  A    between atoms: C8_9  and  C9_10 
REMARK    6  A    between atoms: C10_11  and  O2_12 
REMARK    7  A    between atoms: C11_14  and  O3_15 
REMARK    8  A    between atoms: C12_17  and  N1_18 
REMARK    9  A    between atoms: N1_18  and  C14_20 
REMARK   10  A    between atoms: C14_20  and  C15_21 
REMARK   11  A    between atoms: C15_21  and  C16_22 
REMARK   12  A    between atoms: C16_22  and  C17_23 
REMARK   13  A    between atoms: C17_23  and  N2_24 
ROOT
HETATM    1  C9  UNL     1      17.732 -15.008  22.148  1.00  0.00     0.116 C 
HETATM    2  C10 UNL     1      16.507 -15.809  21.701  1.00  0.00     0.171 C 
HETATM    3  C11 UNL     1      15.862 -15.361  20.448  1.00  0.00     0.173 C 
HETATM    4  C12 UNL     1      15.558 -13.904  20.391  1.00  0.00     0.132 C 
HETATM    5  C22 UNL     1      16.457 -13.109  21.314  1.00  0.00     0.104 C 
HETATM    6  C23 UNL     1      16.717 -11.760  20.637  1.00  0.00     0.027 C 
HETATM    7  C24 UNL     1      17.887 -11.888  19.668  1.00  0.00     0.004 C 
HETATM    8  C25 UNL     1      19.152 -12.049  20.444  1.00  0.00     0.019 C 
HETATM    9  C26 UNL     1      18.807 -12.879  21.699  1.00  0.00     0.118 C 
HETATM   10  N3  UNL     1      17.714 -13.756  21.502  1.00  0.00    -0.399 N 
ENDROOT
BRANCH   1  11
HETATM   11  C8  UNL     1      17.662 -15.057  23.637  1.00  0.00     0.087 C 
BRANCH  11  12
HETATM   12  C7  UNL     1      18.273 -16.156  24.359  1.00  0.00     0.049 A 
HETATM   13  C6  UNL     1      19.635 -16.352  24.352  1.00  0.00     0.141 A 
HETATM   14  C29 UNL     1      20.135 -17.448  25.073  1.00  0.00     0.208 A 
HETATM   15  C28 UNL     1      19.306 -18.287  25.751  1.00  0.00     0.075 A 
HETATM   16  O5  UNL     1      21.390 -17.697  25.119  1.00  0.00    -0.285 OA
HETATM   17  C27 UNL     1      17.954 -18.041  25.721  1.00  0.00     0.092 A 
HETATM   18  N4  UNL     1      17.496 -16.994  25.032  1.00  0.00    -0.367 N 
ATOM     19  H4  UNL     1      16.489 -16.828  25.023  1.00  0.00     0.165 HD
BRANCH  13  20
HETATM   20  O1  UNL     1      20.538 -15.587  23.701  1.00  0.00    -0.342 OA
BRANCH  20  21
HETATM   21  C5  UNL     1      21.305 -14.501  23.949  1.00  0.00     0.203 C 
BRANCH  21  22
HETATM   22  C4  UNL     1      21.003 -13.741  25.149  1.00  0.00     0.002 C 
HETATM   23  C2  UNL     1      21.654 -13.872  26.280  1.00  0.00    -0.089 C 
HETATM   24  C1  UNL     1      22.775 -14.802  26.494  1.00  0.00     0.042 C 
HETATM   25  C3  UNL     1      21.286 -13.026  27.477  1.00  0.00     0.042 C 
ENDBRANCH  21  22
ENDBRANCH  20  21
ENDBRANCH  13  20
ENDBRANCH  11  12
ENDBRANCH   1  11
BRANCH   2  26
HETATM   26  O2  UNL     1      16.901 -17.151  21.488  1.00  0.00    -0.391 OA
ATOM     27  H2  UNL     1      16.728 -17.376  20.581  1.00  0.00     0.210 HD
ENDBRANCH   2  26
BRANCH   3  28
HETATM   28  O3  UNL     1      14.762 -16.203  20.225  1.00  0.00    -0.391 OA
ATOM     29  H3  UNL     1      15.036 -16.861  19.597  1.00  0.00     0.210 HD
ENDBRANCH   3  28
BRANCH   4  30
HETATM   30  N1  UNL     1      14.217 -13.582  20.501  1.00  0.00    -0.408 N 
HETATM   31  C13 UNL     1      13.547 -13.359  21.693  1.00  0.00     0.143 C 
BRANCH  30  32
HETATM   32  C14 UNL     1      13.687 -12.906  19.371  1.00  0.00     0.117 C 
BRANCH  32  33
HETATM   33  C15 UNL     1      14.202 -13.401  18.060  1.00  0.00     0.021 C 
BRANCH  33  34
HETATM   34  C16 UNL     1      14.594 -12.243  17.186  1.00  0.00     0.032 C 
BRANCH  34  35
HETATM   35  C17 UNL     1      15.963 -12.420  16.574  1.00  0.00     0.272 C 
BRANCH  35  36
HETATM   36  N2  UNL     1      16.104 -11.850  15.262  1.00  0.00     0.092 N 
HETATM   37  C18 UNL     1      14.839 -11.309  14.790  1.00  0.00     0.298 C 
HETATM   38  C19 UNL     1      14.546 -11.738  13.387  1.00  0.00     0.198 C 
HETATM   39  O4  UNL     1      14.725 -13.103  13.216  1.00  0.00    -0.388 OA
HETATM   40  C20 UNL     1      16.034 -13.501  13.420  1.00  0.00     0.198 C 
HETATM   41  C21 UNL     1      16.829 -12.604  14.304  1.00  0.00     0.298 C 
ENDBRANCH  35  36
ENDBRANCH  34  35
ENDBRANCH  33  34
ENDBRANCH  32  33
ENDBRANCH  30  32
ENDBRANCH   4  30
TORSDOF 13
ENDMDL
MODEL 5
REMARK VINA RESULT: -7.397054731      3.297      6.861
REMARK  13 active torsions:
REMARK  status: ('A' for Active; 'I' for Inactive)
REMARK    1  A    between atoms: C4_4  and  C5_5 
REMARK    2  A    between atoms: C5_5  and  O1_6 
REMARK    3  A    between atoms: O1_6  and  C6_7 
REMARK    4  A    between atoms: C7_8  and  C8_9 
REMARK    5  A    between atoms: C8_9  and  C9_10 
REMARK    6  A    between atoms: C10_11  and  O2_12 
REMARK    7  A    between atoms: C11_14  and  O3_15 
REMARK    8  A    between atoms: C12_17  and  N1_18 
REMARK    9  A    between atoms: N1_18  and  C14_20 
REMARK   10  A    between atoms: C14_20  and  C15_21 
REMARK   11  A    between atoms: C15_21  and  C16_22 
REMARK   12  A    between atoms: C16_22  and  C17_23 
REMARK   13  A    between atoms: C17_23  and  N2_24 
ROOT
HETATM    1  C9  UNL     1      18.262 -16.370  22.252  1.00  0.00     0.116 C 
HETATM    2  C10 UNL     1      19.636 -16.712  22.831  1.00  0.00     0.171 C 
HETATM    3  C11 UNL     1      19.827 -18.113  23.261  1.00  0.00     0.173 C 
HETATM    4  C12 UNL     1      18.759 -18.640  24.158  1.00  0.00     0.132 C 
HETATM    5  C22 UNL     1      17.458 -17.888  23.978  1.00  0.00     0.104 C 
HETATM    6  C23 UNL     1      16.324 -18.896  24.182  1.00  0.00     0.027 C 
HETATM    7  C24 UNL     1      16.040 -19.624  22.872  1.00  0.00     0.004 C 
HETATM    8  C25 UNL     1      15.393 -18.679  21.914  1.00  0.00     0.019 C 
HETATM    9  C26 UNL     1      16.018 -17.290  22.162  1.00  0.00     0.118 C 
HETATM   10  N3  UNL     1      17.341 -17.355  22.659  1.00  0.00    -0.399 N 
ENDROOT
BRANCH   1  11
HETATM   11  C8  UNL     1      18.043 -14.955  22.672  1.00  0.00     0.087 C 
BRANCH  11  12
HETATM   12  C7  UNL     1      18.357 -13.869  21.764  1.00  0.00     0.049 A 
HETATM   13  C6  UNL     1      17.381 -13.025  21.288  1.00  0.00     0.141 A 
HETATM   14  C29 UNL     1      17.778 -12.006  20.408  1.00  0.00     0.208 A 
HETATM   15  C28 UNL     1      19.078 -11.860  20.034  1.00  0.00     0.075 A 
HETATM   16  O5  UNL     1      16.931 -11.178  19.924  1.00  0.00    -0.285 OA
HETATM   17  C27 UNL     1      20.009 -12.735  20.543  1.00  0.00     0.092 A 
HETATM   18  N4  UNL     1      19.615 -13.696  21.380  1.00  0.00    -0.367 N 
ATOM     19  H4  UNL     1      20.321 -14.335  21.746  1.00  0.00     0.165 HD
BRANCH  13  20
HETATM   20  O1  UNL     1      16.065 -13.095  21.586  1.00  0.00    -0.342 OA
BRANCH  20  21
HETATM   21  C5  UNL     1      14.981 -13.811  21.206  1.00  0.00     0.203 C 
BRANCH  21  22
HETATM   22  C4  UNL     1      15.071 -14.521  19.942  1.00  0.00     0.002 C 
HETATM   23  C2  UNL     1      14.692 -14.017  18.792  1.00  0.00    -0.089 C 
HETATM   24  C1  UNL     1      14.125 -12.670  18.619  1.00  0.00     0.042 C 
HETATM   25  C3  UNL     1      14.839 -14.820  17.520  1.00  0.00     0.042 C 
ENDBRANCH  21  22
ENDBRANCH  20  21
ENDBRANCH  13  20
ENDBRANCH  11  12
ENDBRANCH   1  11
BRANCH   2  26
HETATM   26  O2  UNL     1      20.616 -16.464  21.840  1.00  0.00    -0.391 OA
ATOM     27  H2  UNL     1      21.297 -17.122  21.918  1.00  0.00     0.210 HD
ENDBRANCH   2  26
BRANCH   3  28
HETATM   28  O3  UNL     1      21.129 -18.215  23.773  1.00  0.00    -0.391 OA
ATOM     29  H3  UNL     1      21.054 -18.294  24.716  1.00  0.00     0.210 HD
ENDBRANCH   3  28
BRANCH   4  30
HETATM   30  N1  UNL     1      19.133 -18.804  25.479  1.00  0.00    -0.408 N 
HETATM   31  C13 UNL     1      19.419 -20.019  26.081  1.00  0.00     0.143 C 
BRANCH  30  32
HETATM   32  C14 UNL     1      19.792 -17.678  26.040  1.00  0.00     0.117 C 
BRANCH  32  33
HETATM   33  C15 UNL     1      18.873 -16.645  26.603  1.00  0.00     0.021 C 
BRANCH  33  34
HETATM   34  C16 UNL     1      19.316 -15.272  26.182  1.00  0.00     0.032 C 
BRANCH  34  35
HETATM   35  C17 UNL     1      20.407 -14.721  27.068  1.00  0.00     0.272 C 
BRANCH  35  36
HETATM   36  N2  UNL     1      21.491 -14.101  26.358  1.00  0.00     0.092 N 
HETATM   37  C18 UNL     1      21.082 -13.712  25.017  1.00  0.00     0.298 C 
HETATM   38  C19 UNL     1      22.084 -14.134  23.991  1.00  0.00     0.198 C 
HETATM   39  O4  UNL     1      22.461 -15.460  24.151  1.00  0.00    -0.388 OA
HETATM   40  C20 UNL     1      23.098 -15.693  25.356  1.00  0.00     0.198 C 
HETATM   41  C21 UNL     1      22.761 -14.728  26.439  1.00  0.00     0.298 C 
ENDBRANCH  35  36
ENDBRANCH  34  35
ENDBRANCH  33  34
ENDBRANCH  32  33
ENDBRANCH  30  32
ENDBRANCH   4  30
TORSDOF 13
ENDMDL
