MODEL 1
REMARK VINA RESULT: -7.211201004      0.000      0.000
REMARK  13 active torsions:
REMARK  status: ('A' for Active; 'I' for Inactive)
REMARK    1  A    between atoms: C2_2  and  N1_4 
REMARK    2  A    between atoms: N1_4  and  C4_5 
REMARK    3  A    between atoms: N1_4  and  C21_38 
REMARK    4  A    between atoms: C4_5  and  C5_6 
REMARK    5  A    between atoms: C4_5  and  C17_26 
REMARK       I    between atoms: C5_6  and  N2_8 
REMARK    6  A    between atoms: N2_8  and  C6_10 
REMARK    7  A    between atoms: C6_10  and  C7_11 
REMARK    8  A    between atoms: C6_10  and  C8_14 
REMARK    9  A    between atoms: C6_10  and  C14_23 
REMARK   10  A    between atoms: C7_11  and  O2_12 
REMARK       I    between atoms: C8_14  and  N3_16 
REMARK   11  A    between atoms: N3_16  and  C9_18 
REMARK   12  A    between atoms: C18_29  and  C19_30 
REMARK   13  A    between atoms: C19_30  and  S1_31 
ROOT
HETATM    1  C4  UNL     1      14.187 -15.963  20.550  1.00  0.00     0.255 C 
ENDROOT
BRANCH   1   2
HETATM    2  N1  UNL     1      14.013 -16.833  19.469  1.00  0.00    -0.360 N 
BRANCH   2   3
HETATM    3  C2  UNL     1      14.991 -16.918  18.470  1.00  0.00    -0.021 C 
HETATM    4  C1  UNL     1      14.706 -16.306  17.123  1.00  0.00     0.062 C 
HETATM    5  C3  UNL     1      15.826 -18.166  18.361  1.00  0.00     0.062 C 
ENDBRANCH   2   3
BRANCH   2   6
HETATM    6  C21 UNL     1      12.757 -17.436  19.252  1.00  0.00     0.022 C 
HETATM    7  C22 UNL     1      12.638 -18.604  18.347  1.00  0.00     0.037 C 
HETATM    8  C23 UNL     1      11.805 -16.351  18.726  1.00  0.00     0.037 C 
HETATM    9  C24 UNL     1      12.134 -17.899  20.564  1.00  0.00     0.037 C 
ENDBRANCH   2   6
ENDBRANCH   1   2
BRANCH   1  10
HETATM   10  C5  UNL     1      14.047 -14.473  20.337  1.00  0.00     0.249 C 
HETATM   11  O1  UNL     1      13.120 -13.981  21.015  1.00  0.00    -0.271 OA
HETATM   12  N2  UNL     1      14.857 -13.756  19.487  1.00  0.00    -0.339 N 
ATOM     13  H2  UNL     1      15.535 -14.352  19.012  1.00  0.00     0.164 HD
BRANCH  12  14
HETATM   14  C6  UNL     1      14.986 -12.374  19.101  1.00  0.00     0.138 C 
BRANCH  14  15
HETATM   15  C7  UNL     1      13.525 -11.858  19.096  1.00  0.00     0.205 C 
BRANCH  15  16
HETATM   16  O2  UNL     1      13.233 -10.943  18.154  1.00  0.00    -0.398 OA
ATOM     17  H2  UNL     1      12.346 -10.604  18.170  1.00  0.00     0.209 HD
ENDBRANCH  15  16
ENDBRANCH  14  15
BRANCH  14  18
HETATM   18  C8  UNL     1      15.610 -12.241  17.794  1.00  0.00     0.249 C 
HETATM   19  O3  UNL     1      16.643 -11.487  17.684  1.00  0.00    -0.271 OA
HETATM   20  N3  UNL     1      15.238 -12.846  16.565  1.00  0.00    -0.354 N 
ATOM     21  H3  UNL     1      14.436 -13.475  16.559  1.00  0.00     0.162 HD
BRANCH  20  22
HETATM   22  C9  UNL     1      15.939 -12.614  15.320  1.00  0.00     0.084 C 
HETATM   23  C10 UNL     1      15.193 -11.821  14.307  1.00  0.00     0.025 C 
HETATM   24  C11 UNL     1      16.010 -11.996  13.051  1.00  0.00     0.002 C 
HETATM   25  C12 UNL     1      16.617 -13.358  13.175  1.00  0.00     0.002 C 
HETATM   26  C13 UNL     1      16.199 -13.905  14.544  1.00  0.00     0.025 C 
ENDBRANCH  20  22
ENDBRANCH  14  18
BRANCH  14  27
HETATM   27  C14 UNL     1      15.708 -11.531  20.119  1.00  0.00     0.017 C 
HETATM   28  C15 UNL     1      14.876 -10.918  21.181  1.00  0.00     0.012 C 
HETATM   29  C16 UNL     1      16.798 -12.327  20.780  1.00  0.00     0.012 C 
ENDBRANCH  14  27
ENDBRANCH  12  14
ENDBRANCH   1  10
BRANCH   1  30
HETATM   30  C17 UNL     1      15.509 -16.138  21.257  1.00  0.00     0.180 A 
HETATM   31  N4  UNL     1      15.837 -17.042  22.202  1.00  0.00    -0.324 N 
HETATM   32  C18 UNL     1      17.116 -16.859  22.575  1.00  0.00     0.117 A 
ATOM     33  H4  UNL     1      15.212 -17.756  22.575  1.00  0.00     0.169 HD
HETATM   34  N5  UNL     1      17.568 -15.819  21.836  1.00  0.00    -0.246 N 
HETATM   35  O6  UNL     1      16.604 -15.440  21.094  1.00  0.00    -0.220 OA
ATOM     36  H5  UNL     1      18.504 -15.415  21.867  1.00  0.00     0.196 HD
BRANCH  32  37
HETATM   37  C19 UNL     1      17.955 -17.566  23.566  1.00  0.00     0.218 C 
BRANCH  37  38
HETATM   38  S1  UNL     1      18.943 -16.336  24.409  1.00  0.00     0.147 S 
HETATM   39  C20 UNL     1      19.555 -17.005  25.948  1.00  0.00     0.161 C 
HETATM   40  O4  UNL     1      18.036 -15.180  24.776  1.00  0.00    -0.228 OA
HETATM   41  O5  UNL     1      20.080 -15.878  23.575  1.00  0.00    -0.228 OA
ENDBRANCH  37  38
ENDBRANCH  32  37
ENDBRANCH   1  30
TORSDOF 13
ENDMDL
MODEL 2
REMARK VINA RESULT: -7.117850675      2.851      7.631
REMARK  13 active torsions:
REMARK  status: ('A' for Active; 'I' for Inactive)
REMARK    1  A    between atoms: C2_2  and  N1_4 
REMARK    2  A    between atoms: N1_4  and  C4_5 
REMARK    3  A    between atoms: N1_4  and  C21_38 
REMARK    4  A    between atoms: C4_5  and  C5_6 
REMARK    5  A    between atoms: C4_5  and  C17_26 
REMARK       I    between atoms: C5_6  and  N2_8 
REMARK    6  A    between atoms: N2_8  and  C6_10 
REMARK    7  A    between atoms: C6_10  and  C7_11 
REMARK    8  A    between atoms: C6_10  and  C8_14 
REMARK    9  A    between atoms: C6_10  and  C14_23 
REMARK   10  A    between atoms: C7_11  and  O2_12 
REMARK       I    between atoms: C8_14  and  N3_16 
REMARK   11  A    between atoms: N3_16  and  C9_18 
REMARK   12  A    between atoms: C18_29  and  C19_30 
REMARK   13  A    between atoms: C19_30  and  S1_31 
ROOT
HETATM    1  C4  UNL     1      15.833 -14.888  20.408  1.00  0.00     0.255 C 
ENDROOT
BRANCH   1   2
HETATM    2  N1  UNL     1      14.675 -15.595  20.066  1.00  0.00    -0.360 N 
BRANCH   2   3
HETATM    3  C2  UNL     1      13.833 -16.094  21.068  1.00  0.00    -0.021 C 
HETATM    4  C1  UNL     1      13.754 -17.584  21.270  1.00  0.00     0.062 C 
HETATM    5  C3  UNL     1      12.516 -15.413  21.329  1.00  0.00     0.062 C 
ENDBRANCH   2   3
BRANCH   2   6
HETATM    6  C21 UNL     1      14.482 -16.018  18.735  1.00  0.00     0.022 C 
HETATM    7  C22 UNL     1      13.150 -16.490  18.288  1.00  0.00     0.037 C 
HETATM    8  C23 UNL     1      15.485 -17.149  18.457  1.00  0.00     0.037 C 
HETATM    9  C24 UNL     1      14.853 -14.917  17.747  1.00  0.00     0.037 C 
ENDBRANCH   2   6
ENDBRANCH   1   2
BRANCH   1  10
HETATM   10  C5  UNL     1      16.631 -15.309  21.620  1.00  0.00     0.249 C 
HETATM   11  O1  UNL     1      16.749 -14.386  22.455  1.00  0.00    -0.271 OA
HETATM   12  N2  UNL     1      17.162 -16.568  21.771  1.00  0.00    -0.339 N 
ATOM     13  H2  UNL     1      16.971 -17.163  20.964  1.00  0.00     0.164 HD
BRANCH  12  14
HETATM   14  C6  UNL     1      17.921 -17.258  22.784  1.00  0.00     0.138 C 
BRANCH  14  15
HETATM   15  C7  UNL     1      16.942 -18.345  23.296  1.00  0.00     0.205 C 
BRANCH  15  16
HETATM   16  O2  UNL     1      15.767 -17.893  23.771  1.00  0.00    -0.398 OA
ATOM     17  H2  UNL     1      15.133 -17.627  23.116  1.00  0.00     0.209 HD
ENDBRANCH  15  16
ENDBRANCH  14  15
BRANCH  14  18
HETATM   18  C8  UNL     1      18.332 -16.357  23.849  1.00  0.00     0.249 C 
HETATM   19  O3  UNL     1      17.629 -16.319  24.922  1.00  0.00    -0.271 OA
HETATM   20  N3  UNL     1      19.442 -15.473  23.888  1.00  0.00    -0.354 N 
ATOM     21  H3  UNL     1      20.067 -15.446  23.083  1.00  0.00     0.162 HD
BRANCH  20  22
HETATM   22  C9  UNL     1      19.732 -14.608  25.011  1.00  0.00     0.084 C 
HETATM   23  C10 UNL     1      20.845 -13.646  24.804  1.00  0.00     0.025 C 
HETATM   24  C11 UNL     1      21.113 -13.112  26.189  1.00  0.00     0.002 C 
HETATM   25  C12 UNL     1      20.774 -14.243  27.108  1.00  0.00     0.002 C 
HETATM   26  C13 UNL     1      20.237 -15.379  26.231  1.00  0.00     0.025 C 
ENDBRANCH  20  22
ENDBRANCH  14  18
BRANCH  14  27
HETATM   27  C14 UNL     1      19.108 -18.007  22.239  1.00  0.00     0.017 C 
HETATM   28  C15 UNL     1      19.735 -19.001  23.143  1.00  0.00     0.012 C 
HETATM   29  C16 UNL     1      18.744 -18.704  20.958  1.00  0.00     0.012 C 
ENDBRANCH  14  27
ENDBRANCH  12  14
ENDBRANCH   1  10
BRANCH   1  30
HETATM   30  C17 UNL     1      15.605 -13.406  20.580  1.00  0.00     0.180 A 
HETATM   31  N4  UNL     1      14.704 -12.786  21.368  1.00  0.00    -0.324 N 
HETATM   32  C18 UNL     1      14.825 -11.454  21.229  1.00  0.00     0.117 A 
ATOM     33  H4  UNL     1      14.033 -13.255  21.977  1.00  0.00     0.169 HD
HETATM   34  N5  UNL     1      15.824 -11.268  20.336  1.00  0.00    -0.246 N 
HETATM   35  O6  UNL     1      16.239 -12.424  19.992  1.00  0.00    -0.220 OA
ATOM     36  H5  UNL     1      16.178 -10.373  20.001  1.00  0.00     0.196 HD
BRANCH  32  37
HETATM   37  C19 UNL     1      14.085 -10.336  21.854  1.00  0.00     0.218 C 
BRANCH  37  38
HETATM   38  S1  UNL     1      12.481 -10.959  22.341  1.00  0.00     0.147 S 
HETATM   39  C20 UNL     1      11.862 -10.013  23.724  1.00  0.00     0.161 C 
HETATM   40  O4  UNL     1      12.662 -12.378  22.840  1.00  0.00    -0.228 OA
HETATM   41  O5  UNL     1      11.507 -10.907  21.223  1.00  0.00    -0.228 OA
ENDBRANCH  37  38
ENDBRANCH  32  37
ENDBRANCH   1  30
TORSDOF 13
ENDMDL
MODEL 3
REMARK VINA RESULT: -7.106661535      3.114      7.407
REMARK  13 active torsions:
REMARK  status: ('A' for Active; 'I' for Inactive)
REMARK    1  A    between atoms: C2_2  and  N1_4 
REMARK    2  A    between atoms: N1_4  and  C4_5 
REMARK    3  A    between atoms: N1_4  and  C21_38 
REMARK    4  A    between atoms: C4_5  and  C5_6 
REMARK    5  A    between atoms: C4_5  and  C17_26 
REMARK       I    between atoms: C5_6  and  N2_8 
REMARK    6  A    between atoms: N2_8  and  C6_10 
REMARK    7  A    between atoms: C6_10  and  C7_11 
REMARK    8  A    between atoms: C6_10  and  C8_14 
REMARK    9  A    between atoms: C6_10  and  C14_23 
REMARK   10  A    between atoms: C7_11  and  O2_12 
REMARK       I    between atoms: C8_14  and  N3_16 
REMARK   11  A    between atoms: N3_16  and  C9_18 
REMARK   12  A    between atoms: C18_29  and  C19_30 
REMARK   13  A    between atoms: C19_30  and  S1_31 
ROOT
HETATM    1  C4  UNL     1      14.877 -16.078  19.975  1.00  0.00     0.255 C 
ENDROOT
BRANCH   1   2
HETATM    2  N1  UNL     1      14.118 -16.902  19.137  1.00  0.00    -0.360 N 
BRANCH   2   3
HETATM    3  C2  UNL     1      12.892 -17.417  19.579  1.00  0.00    -0.021 C 
HETATM    4  C1  UNL     1      12.801 -18.883  19.911  1.00  0.00     0.062 C 
HETATM    5  C3  UNL     1      11.614 -16.887  18.985  1.00  0.00     0.062 C 
ENDBRANCH   2   3
BRANCH   2   6
HETATM    6  C21 UNL     1      14.691 -17.414  17.955  1.00  0.00     0.022 C 
HETATM    7  C22 UNL     1      13.906 -18.312  17.075  1.00  0.00     0.037 C 
HETATM    8  C23 UNL     1      15.973 -18.165  18.348  1.00  0.00     0.037 C 
HETATM    9  C24 UNL     1      15.162 -16.290  17.039  1.00  0.00     0.037 C 
ENDBRANCH   2   6
ENDBRANCH   1   2
BRANCH   1  10
HETATM   10  C5  UNL     1      15.503 -16.658  21.222  1.00  0.00     0.249 C 
HETATM   11  O1  UNL     1      14.655 -17.167  21.986  1.00  0.00    -0.271 OA
HETATM   12  N2  UNL     1      16.854 -16.620  21.473  1.00  0.00    -0.339 N 
ATOM     13  H2  UNL     1      17.367 -16.138  20.734  1.00  0.00     0.164 HD
BRANCH  12  14
HETATM   14  C6  UNL     1      17.727 -17.091  22.518  1.00  0.00     0.138 C 
BRANCH  14  15
HETATM   15  C7  UNL     1      16.837 -18.071  23.323  1.00  0.00     0.205 C 
BRANCH  15  16
HETATM   16  O2  UNL     1      16.430 -17.633  24.528  1.00  0.00    -0.398 OA
ATOM     17  H2  UNL     1      15.897 -18.240  25.028  1.00  0.00     0.209 HD
ENDBRANCH  15  16
ENDBRANCH  14  15
BRANCH  14  18
HETATM   18  C8  UNL     1      18.208 -15.996  23.345  1.00  0.00     0.249 C 
HETATM   19  O3  UNL     1      17.776 -14.812  23.103  1.00  0.00    -0.271 OA
HETATM   20  N3  UNL     1      19.122 -16.035  24.431  1.00  0.00    -0.354 N 
ATOM     21  H3  UNL     1      19.508 -16.938  24.706  1.00  0.00     0.162 HD
BRANCH  20  22
HETATM   22  C9  UNL     1      19.536 -14.859  25.166  1.00  0.00     0.084 C 
HETATM   23  C10 UNL     1      20.694 -14.125  24.594  1.00  0.00     0.025 C 
HETATM   24  C11 UNL     1      21.080 -13.164  25.691  1.00  0.00     0.002 C 
HETATM   25  C12 UNL     1      20.726 -13.872  26.961  1.00  0.00     0.002 C 
HETATM   26  C13 UNL     1      20.064 -15.195  26.561  1.00  0.00     0.025 C 
ENDBRANCH  20  22
ENDBRANCH  14  18
BRANCH  14  27
HETATM   27  C14 UNL     1      18.881 -17.915  22.011  1.00  0.00     0.017 C 
HETATM   28  C15 UNL     1      18.563 -18.938  20.986  1.00  0.00     0.012 C 
HETATM   29  C16 UNL     1      19.961 -17.025  21.465  1.00  0.00     0.012 C 
ENDBRANCH  14  27
ENDBRANCH  12  14
ENDBRANCH   1  10
BRANCH   1  30
HETATM   30  C17 UNL     1      14.136 -14.848  20.441  1.00  0.00     0.180 A 
HETATM   31  N4  UNL     1      13.492 -14.654  21.610  1.00  0.00    -0.324 N 
HETATM   32  C18 UNL     1      12.960 -13.419  21.630  1.00  0.00     0.117 A 
ATOM     33  H4  UNL     1      13.420 -15.338  22.362  1.00  0.00     0.169 HD
HETATM   34  N5  UNL     1      13.292 -12.856  20.446  1.00  0.00    -0.246 N 
HETATM   35  O6  UNL     1      13.969 -13.721  19.797  1.00  0.00    -0.220 OA
ATOM     36  H5  UNL     1      13.048 -11.918  20.131  1.00  0.00     0.196 HD
BRANCH  32  37
HETATM   37  C19 UNL     1      12.161 -12.717  22.659  1.00  0.00     0.218 C 
BRANCH  37  38
HETATM   38  S1  UNL     1      12.395 -10.960  22.413  1.00  0.00     0.147 S 
HETATM   39  C20 UNL     1      11.765 -10.065  23.824  1.00  0.00     0.161 C 
HETATM   40  O4  UNL     1      11.552 -10.538  21.227  1.00  0.00    -0.228 OA
HETATM   41  O5  UNL     1      13.823 -10.620  22.200  1.00  0.00    -0.228 OA
ENDBRANCH  37  38
ENDBRANCH  32  37
ENDBRANCH   1  30
TORSDOF 13
ENDMDL
MODEL 4
REMARK VINA RESULT: -6.933388318      3.561      8.443
REMARK  13 active torsions:
REMARK  status: ('A' for Active; 'I' for Inactive)
REMARK    1  A    between atoms: C2_2  and  N1_4 
REMARK    2  A    between atoms: N1_4  and  C4_5 
REMARK    3  A    between atoms: N1_4  and  C21_38 
REMARK    4  A    between atoms: C4_5  and  C5_6 
REMARK    5  A    between atoms: C4_5  and  C17_26 
REMARK       I    between atoms: C5_6  and  N2_8 
REMARK    6  A    between atoms: N2_8  and  C6_10 
REMARK    7  A    between atoms: C6_10  and  C7_11 
REMARK    8  A    between atoms: C6_10  and  C8_14 
REMARK    9  A    between atoms: C6_10  and  C14_23 
REMARK   10  A    between atoms: C7_11  and  O2_12 
REMARK       I    between atoms: C8_14  and  N3_16 
REMARK   11  A    between atoms: N3_16  and  C9_18 
REMARK   12  A    between atoms: C18_29  and  C19_30 
REMARK   13  A    between atoms: C19_30  and  S1_31 
ROOT
HETATM    1  C4  UNL     1      18.444 -17.022  21.797  1.00  0.00     0.255 C 
ENDROOT
BRANCH   1   2
HETATM    2  N1  UNL     1      17.853 -18.220  22.216  1.00  0.00    -0.360 N 
BRANCH   2   3
HETATM    3  C2  UNL     1      17.530 -18.411  23.565  1.00  0.00    -0.021 C 
HETATM    4  C1  UNL     1      18.399 -19.320  24.396  1.00  0.00     0.062 C 
HETATM    5  C3  UNL     1      16.083 -18.478  23.974  1.00  0.00     0.062 C 
ENDBRANCH   2   3
BRANCH   2   6
HETATM    6  C21 UNL     1      17.809 -19.321  21.337  1.00  0.00     0.022 C 
HETATM    7  C22 UNL     1      17.460 -20.669  21.848  1.00  0.00     0.037 C 
HETATM    8  C23 UNL     1      19.185 -19.432  20.661  1.00  0.00     0.037 C 
HETATM    9  C24 UNL     1      16.832 -19.077  20.193  1.00  0.00     0.037 C 
ENDBRANCH   2   6
ENDBRANCH   1   2
BRANCH   1  10
HETATM   10  C5  UNL     1      19.693 -16.526  22.489  1.00  0.00     0.249 C 
HETATM   11  O1  UNL     1      20.667 -16.449  21.710  1.00  0.00    -0.271 OA
HETATM   12  N2  UNL     1      19.734 -16.204  23.825  1.00  0.00    -0.339 N 
ATOM     13  H2  UNL     1      18.837 -16.361  24.285  1.00  0.00     0.164 HD
BRANCH  12  14
HETATM   14  C6  UNL     1      20.729 -15.698  24.737  1.00  0.00     0.138 C 
BRANCH  14  15
HETATM   15  C7  UNL     1      20.865 -14.207  24.339  1.00  0.00     0.205 C 
BRANCH  15  16
HETATM   16  O2  UNL     1      21.486 -13.970  23.169  1.00  0.00    -0.398 OA
ATOM     17  H2  UNL     1      22.338 -13.555  23.233  1.00  0.00     0.209 HD
ENDBRANCH  15  16
ENDBRANCH  14  15
BRANCH  14  18
HETATM   18  C8  UNL     1      21.989 -16.410  24.601  1.00  0.00     0.249 C 
HETATM   19  O3  UNL     1      22.322 -17.245  25.517  1.00  0.00    -0.271 OA
HETATM   20  N3  UNL     1      22.953 -16.323  23.562  1.00  0.00    -0.354 N 
ATOM     21  H3  UNL     1      22.766 -15.694  22.781  1.00  0.00     0.162 HD
BRANCH  20  22
HETATM   22  C9  UNL     1      24.186 -17.080  23.554  1.00  0.00     0.084 C 
HETATM   23  C10 UNL     1      25.429 -16.271  23.456  1.00  0.00     0.025 C 
HETATM   24  C11 UNL     1      26.497 -17.297  23.170  1.00  0.00     0.002 C 
HETATM   25  C12 UNL     1      25.800 -18.368  22.392  1.00  0.00     0.002 C 
HETATM   26  C13 UNL     1      24.321 -17.971  22.320  1.00  0.00     0.025 C 
ENDBRANCH  20  22
ENDBRANCH  14  18
BRANCH  14  27
HETATM   27  C14 UNL     1      20.278 -15.694  26.174  1.00  0.00     0.017 C 
HETATM   28  C15 UNL     1      20.520 -14.448  26.940  1.00  0.00     0.012 C 
HETATM   29  C16 UNL     1      18.814 -16.021  26.265  1.00  0.00     0.012 C 
ENDBRANCH  14  27
ENDBRANCH  12  14
ENDBRANCH   1  10
BRANCH   1  30
HETATM   30  C17 UNL     1      17.495 -15.848  21.806  1.00  0.00     0.180 A 
HETATM   31  N4  UNL     1      16.335 -15.707  21.134  1.00  0.00    -0.324 N 
HETATM   32  C18 UNL     1      15.795 -14.508  21.415  1.00  0.00     0.117 A 
ATOM     33  H4  UNL     1      15.929 -16.403  20.509  1.00  0.00     0.169 HD
HETATM   34  N5  UNL     1      16.651 -13.914  22.278  1.00  0.00    -0.246 N 
HETATM   35  O6  UNL     1      17.614 -14.727  22.470  1.00  0.00    -0.220 OA
ATOM     36  H5  UNL     1      16.546 -12.990  22.696  1.00  0.00     0.196 HD
BRANCH  32  37
HETATM   37  C19 UNL     1      14.550 -13.863  20.944  1.00  0.00     0.218 C 
BRANCH  37  38
HETATM   38  S1  UNL     1      14.993 -12.262  20.281  1.00  0.00     0.147 S 
HETATM   39  C20 UNL     1      13.850 -11.810  18.984  1.00  0.00     0.161 C 
HETATM   40  O4  UNL     1      16.354 -12.386  19.628  1.00  0.00    -0.228 OA
HETATM   41  O5  UNL     1      14.998 -11.214  21.331  1.00  0.00    -0.228 OA
ENDBRANCH  37  38
ENDBRANCH  32  37
ENDBRANCH   1  30
TORSDOF 13
ENDMDL
MODEL 5
REMARK VINA RESULT: -6.926394179      2.273      4.682
REMARK  13 active torsions:
REMARK  status: ('A' for Active; 'I' for Inactive)
REMARK    1  A    between atoms: C2_2  and  N1_4 
REMARK    2  A    between atoms: N1_4  and  C4_5 
REMARK    3  A    between atoms: N1_4  and  C21_38 
REMARK    4  A    between atoms: C4_5  and  C5_6 
REMARK    5  A    between atoms: C4_5  and  C17_26 
REMARK       I    between atoms: C5_6  and  N2_8 
REMARK    6  A    between atoms: N2_8  and  C6_10 
REMARK    7  A    between atoms: C6_10  and  C7_11 
REMARK    8  A    between atoms: C6_10  and  C8_14 
REMARK    9  A    between atoms: C6_10  and  C14_23 
REMARK   10  A    between atoms: C7_11  and  O2_12 
REMARK       I    between atoms: C8_14  and  N3_16 
REMARK   11  A    between atoms: N3_16  and  C9_18 
REMARK   12  A    between atoms: C18_29  and  C19_30 
REMARK   13  A    between atoms: C19_30  and  S1_31 
ROOT
HETATM    1  C4  UNL     1      14.499 -17.506  21.330  1.00  0.00     0.255 C 
ENDROOT
BRANCH   1   2
HETATM    2  N1  UNL     1      14.437 -18.663  20.545  1.00  0.00    -0.360 N 
BRANCH   2   3
HETATM    3  C2  UNL     1      14.787 -18.613  19.190  1.00  0.00    -0.021 C 
HETATM    4  C1  UNL     1      13.700 -18.741  18.156  1.00  0.00     0.062 C 
HETATM    5  C3  UNL     1      16.078 -19.245  18.740  1.00  0.00     0.062 C 
ENDBRANCH   2   3
BRANCH   2   6
HETATM    6  C21 UNL     1      13.792 -19.813  21.045  1.00  0.00     0.022 C 
HETATM    7  C22 UNL     1      14.068 -21.141  20.447  1.00  0.00     0.037 C 
HETATM    8  C23 UNL     1      12.277 -19.575  20.949  1.00  0.00     0.037 C 
HETATM    9  C24 UNL     1      14.065 -19.995  22.534  1.00  0.00     0.037 C 
ENDBRANCH   2   6
ENDBRANCH   1   2
BRANCH   1  10
HETATM   10  C5  UNL     1      13.973 -16.202  20.777  1.00  0.00     0.249 C 
HETATM   11  O1  UNL     1      12.724 -16.149  20.793  1.00  0.00    -0.271 OA
HETATM   12  N2  UNL     1      14.790 -15.199  20.311  1.00  0.00    -0.339 N 
ATOM     13  H2  UNL     1      15.777 -15.453  20.365  1.00  0.00     0.164 HD
BRANCH  12  14
HETATM   14  C6  UNL     1      14.601 -13.878  19.766  1.00  0.00     0.138 C 
BRANCH  14  15
HETATM   15  C7  UNL     1      15.972 -13.192  19.990  1.00  0.00     0.205 C 
BRANCH  15  16
HETATM   16  O2  UNL     1      16.698 -13.662  21.021  1.00  0.00    -0.398 OA
ATOM     17  H2  UNL     1      17.307 -14.360  20.812  1.00  0.00     0.209 HD
ENDBRANCH  15  16
ENDBRANCH  14  15
BRANCH  14  18
HETATM   18  C8  UNL     1      13.526 -13.171  20.442  1.00  0.00     0.249 C 
HETATM   19  O3  UNL     1      12.359 -13.177  19.908  1.00  0.00    -0.271 OA
HETATM   20  N3  UNL     1      13.569 -12.442  21.660  1.00  0.00    -0.354 N 
ATOM     21  H3  UNL     1      14.453 -12.395  22.165  1.00  0.00     0.162 HD
BRANCH  20  22
HETATM   22  C9  UNL     1      12.421 -11.762  22.221  1.00  0.00     0.084 C 
HETATM   23  C10 UNL     1      12.711 -10.466  22.889  1.00  0.00     0.025 C 
HETATM   24  C11 UNL     1      11.430 -10.149  23.618  1.00  0.00     0.002 C 
HETATM   25  C12 UNL     1      10.853 -11.483  23.976  1.00  0.00     0.002 C 
HETATM   26  C13 UNL     1      11.779 -12.542  23.368  1.00  0.00     0.025 C 
ENDBRANCH  20  22
ENDBRANCH  14  18
BRANCH  14  27
HETATM   27  C14 UNL     1      14.384 -13.869  18.276  1.00  0.00     0.017 C 
HETATM   28  C15 UNL     1      15.034 -12.773  17.518  1.00  0.00     0.012 C 
HETATM   29  C16 UNL     1      14.820 -15.176  17.675  1.00  0.00     0.012 C 
ENDBRANCH  14  27
ENDBRANCH  12  14
ENDBRANCH   1  10
BRANCH   1  30
HETATM   30  C17 UNL     1      15.888 -17.192  21.830  1.00  0.00     0.180 A 
HETATM   31  N4  UNL     1      16.348 -17.229  23.096  1.00  0.00    -0.324 N 
HETATM   32  C18 UNL     1      17.645 -16.875  23.115  1.00  0.00     0.117 A 
ATOM     33  H4  UNL     1      15.797 -17.486  23.915  1.00  0.00     0.169 HD
HETATM   34  N5  UNL     1      17.973 -16.619  21.827  1.00  0.00    -0.246 N 
HETATM   35  O6  UNL     1      16.926 -16.816  21.127  1.00  0.00    -0.220 OA
ATOM     36  H5  UNL     1      18.886 -16.325  21.481  1.00  0.00     0.196 HD
BRANCH  32  37
HETATM   37  C19 UNL     1      18.607 -16.748  24.231  1.00  0.00     0.218 C 
BRANCH  37  38
HETATM   38  S1  UNL     1      19.616 -15.306  23.908  1.00  0.00     0.147 S 
HETATM   39  C20 UNL     1      20.092 -14.546  25.453  1.00  0.00     0.161 C 
HETATM   40  O4  UNL     1      18.760 -14.291  23.178  1.00  0.00    -0.228 OA
HETATM   41  O5  UNL     1      20.827 -15.646  23.123  1.00  0.00    -0.228 OA
ENDBRANCH  37  38
ENDBRANCH  32  37
ENDBRANCH   1  30
TORSDOF 13
ENDMDL
