MODEL 1
REMARK VINA RESULT: -7.703996882      0.000      0.000
REMARK  9 active torsions:
REMARK  status: ('A' for Active; 'I' for Inactive)
REMARK    1  A    between atoms: C2_2  and  N1_3 
REMARK    2  A    between atoms: C6_7  and  O1_8 
REMARK    3  A    between atoms: C13_17  and  O3_18 
REMARK    4  A    between atoms: C13_17  and  C14_20 
REMARK    5  A    between atoms: C14_20  and  O4_21 
REMARK    6  A    between atoms: C14_20  and  C15_23 
REMARK    7  A    between atoms: C15_23  and  C17_25 
REMARK    8  A    between atoms: C18_26  and  C19_27 
REMARK    9  A    between atoms: C19_27  and  C20_28 
ROOT
HETATM    1  N1  UNL     1      14.364 -19.939  22.011  1.00  0.00     0.093 N 
HETATM    2  C3  UNL     1      14.101 -20.866  20.946  1.00  0.00     0.274 C 
HETATM    3  C4  UNL     1      14.336 -20.047  19.670  1.00  0.00     0.045 C 
HETATM    4  C5  UNL     1      14.608 -18.647  20.142  1.00  0.00     0.029 C 
HETATM    5  C6  UNL     1      16.085 -18.479  20.275  1.00  0.00     0.129 C 
HETATM    6  C7  UNL     1      16.827 -17.392  20.827  1.00  0.00     0.033 C 
HETATM    7  C8  UNL     1      16.198 -16.038  21.245  1.00  0.00     0.016 C 
HETATM    8  C9  UNL     1      14.819 -16.353  21.030  1.00  0.00     0.003 C 
HETATM    9  C10 UNL     1      14.864 -16.510  19.538  1.00  0.00     0.026 C 
HETATM   10  C11 UNL     1      13.821 -17.600  19.468  1.00  0.00     0.073 C 
HETATM   11  C12 UNL     1      12.832 -16.778  20.234  1.00  0.00     0.169 C 
HETATM   12  O2  UNL     1      11.607 -16.908  20.245  1.00  0.00    -0.294 OA
HETATM   13  C13 UNL     1      13.553 -15.693  21.053  1.00  0.00     0.152 C 
HETATM   14  C25 UNL     1      14.604 -17.463  21.994  1.00  0.00     0.050 C 
HETATM   15  C26 UNL     1      13.933 -18.706  21.526  1.00  0.00     0.235 C 
ENDROOT
BRANCH  13  16
HETATM   16  O3  UNL     1      12.839 -15.754  22.288  1.00  0.00    -0.379 OA
ATOM     17  H3  UNL     1      12.348 -14.976  22.523  1.00  0.00     0.211 HD
ENDBRANCH  13  16
BRANCH  13  18
HETATM   18  C14 UNL     1      13.328 -14.334  20.576  1.00  0.00     0.168 C 
BRANCH  18  19
HETATM   19  O4  UNL     1      12.060 -14.090  20.039  1.00  0.00    -0.391 OA
ATOM     20  H4  UNL     1      12.043 -13.524  19.276  1.00  0.00     0.210 HD
ENDBRANCH  18  19
BRANCH  18  21
HETATM   21  C15 UNL     1      13.433 -13.249  21.638  1.00  0.00     0.036 C 
HETATM   22  C16 UNL     1      12.176 -12.469  21.779  1.00  0.00     0.017 C 
BRANCH  21  23
HETATM   23  C17 UNL     1      14.557 -12.315  21.299  1.00  0.00    -0.023 C 
HETATM   24  C18 UNL     1      15.535 -12.688  20.495  1.00  0.00    -0.026 C 
BRANCH  24  25
HETATM   25  C19 UNL     1      16.705 -11.942  20.047  1.00  0.00     0.060 C 
BRANCH  25  26
HETATM   26  C20 UNL     1      18.002 -12.382  20.579  1.00  0.00    -0.080 C 
HETATM   27  C21 UNL     1      19.207 -12.102  20.038  1.00  0.00    -0.024 C 
HETATM   28  C22 UNL     1      20.299 -12.719  20.851  1.00  0.00     0.027 C 
HETATM   29  C23 UNL     1      19.539 -13.949  21.397  1.00  0.00     0.008 C 
HETATM   30  C24 UNL     1      18.236 -13.229  21.773  1.00  0.00     0.034 C 
ENDBRANCH  25  26
ENDBRANCH  24  25
ENDBRANCH  21  23
ENDBRANCH  18  21
ENDBRANCH  13  18
BRANCH   5  31
HETATM   31  O1  UNL     1      16.531 -19.692  20.883  1.00  0.00    -0.395 OA
ATOM     32  H1  UNL     1      16.378 -19.563  21.812  1.00  0.00     0.210 HD
ENDBRANCH   5  31
BRANCH   1  33
HETATM   33  C2  UNL     1      14.081 -20.351  23.315  1.00  0.00     0.268 C 
HETATM   34  C1  UNL     1      15.096 -20.084  24.369  1.00  0.00     0.037 C 
ENDBRANCH   1  33
TORSDOF 9
ENDMDL
MODEL 2
REMARK VINA RESULT: -7.471869343      2.778      5.812
REMARK  9 active torsions:
REMARK  status: ('A' for Active; 'I' for Inactive)
REMARK    1  A    between atoms: C2_2  and  N1_3 
REMARK    2  A    between atoms: C6_7  and  O1_8 
REMARK    3  A    between atoms: C13_17  and  O3_18 
REMARK    4  A    between atoms: C13_17  and  C14_20 
REMARK    5  A    between atoms: C14_20  and  O4_21 
REMARK    6  A    between atoms: C14_20  and  C15_23 
REMARK    7  A    between atoms: C15_23  and  C17_25 
REMARK    8  A    between atoms: C18_26  and  C19_27 
REMARK    9  A    between atoms: C19_27  and  C20_28 
ROOT
HETATM    1  N1  UNL     1      14.949 -12.543  17.528  1.00  0.00     0.093 N 
HETATM    2  C3  UNL     1      14.040 -11.432  17.555  1.00  0.00     0.274 C 
HETATM    3  C4  UNL     1      13.545 -11.389  19.007  1.00  0.00     0.045 C 
HETATM    4  C5  UNL     1      14.152 -12.594  19.669  1.00  0.00     0.029 C 
HETATM    5  C6  UNL     1      15.434 -12.177  20.310  1.00  0.00     0.129 C 
HETATM    6  C7  UNL     1      16.441 -12.978  20.924  1.00  0.00     0.033 C 
HETATM    7  C8  UNL     1      16.287 -14.494  21.212  1.00  0.00     0.016 C 
HETATM    8  C9  UNL     1      15.025 -14.717  20.577  1.00  0.00     0.003 C 
HETATM    9  C10 UNL     1      14.173 -13.886  21.492  1.00  0.00     0.026 C 
HETATM   10  C11 UNL     1      13.205 -13.429  20.427  1.00  0.00     0.073 C 
HETATM   11  C12 UNL     1      12.922 -14.836  20.003  1.00  0.00     0.169 C 
HETATM   12  O2  UNL     1      11.931 -15.246  19.396  1.00  0.00    -0.294 OA
HETATM   13  C13 UNL     1      14.069 -15.769  20.430  1.00  0.00     0.152 C 
HETATM   14  C25 UNL     1      15.329 -14.380  19.162  1.00  0.00     0.050 C 
HETATM   15  C26 UNL     1      14.415 -13.465  18.425  1.00  0.00     0.235 C 
ENDROOT
BRANCH  13  16
HETATM   16  O3  UNL     1      14.214 -16.587  19.268  1.00  0.00    -0.379 OA
ATOM     17  H3  UNL     1      15.102 -16.830  19.039  1.00  0.00     0.211 HD
ENDBRANCH  13  16
BRANCH  13  18
HETATM   18  C14 UNL     1      13.715 -16.708  21.487  1.00  0.00     0.168 C 
BRANCH  18  19
HETATM   19  O4  UNL     1      12.408 -17.203  21.437  1.00  0.00    -0.391 OA
ATOM     20  H4  UNL     1      12.180 -17.820  22.121  1.00  0.00     0.210 HD
ENDBRANCH  18  19
BRANCH  18  21
HETATM   21  C15 UNL     1      14.535 -17.990  21.516  1.00  0.00     0.036 C 
HETATM   22  C16 UNL     1      13.699 -19.193  21.767  1.00  0.00     0.017 C 
BRANCH  21  23
HETATM   23  C17 UNL     1      15.591 -17.893  22.577  1.00  0.00    -0.023 C 
HETATM   24  C18 UNL     1      16.857 -17.692  22.263  1.00  0.00    -0.026 C 
BRANCH  24  25
HETATM   25  C19 UNL     1      18.021 -17.570  23.132  1.00  0.00     0.060 C 
BRANCH  25  26
HETATM   26  C20 UNL     1      18.622 -16.232  23.233  1.00  0.00    -0.080 C 
HETATM   27  C21 UNL     1      19.545 -15.721  22.390  1.00  0.00    -0.024 C 
HETATM   28  C22 UNL     1      19.923 -14.338  22.809  1.00  0.00     0.027 C 
HETATM   29  C23 UNL     1      19.702 -14.469  24.332  1.00  0.00     0.008 C 
HETATM   30  C24 UNL     1      18.360 -15.214  24.277  1.00  0.00     0.034 C 
ENDBRANCH  25  26
ENDBRANCH  24  25
ENDBRANCH  21  23
ENDBRANCH  18  21
ENDBRANCH  13  18
BRANCH   5  31
HETATM   31  O1  UNL     1      16.054 -11.321  19.348  1.00  0.00    -0.395 OA
ATOM     32  H1  UNL     1      15.688 -10.462  19.522  1.00  0.00     0.210 HD
ENDBRANCH   5  31
BRANCH   1  33
HETATM   33  C2  UNL     1      15.454 -12.939  16.287  1.00  0.00     0.268 C 
HETATM   34  C1  UNL     1      16.210 -11.939  15.486  1.00  0.00     0.037 C 
ENDBRANCH   1  33
TORSDOF 9
ENDMDL
MODEL 3
REMARK VINA RESULT: -7.153684211      2.865      5.373
REMARK  9 active torsions:
REMARK  status: ('A' for Active; 'I' for Inactive)
REMARK    1  A    between atoms: C2_2  and  N1_3 
REMARK    2  A    between atoms: C6_7  and  O1_8 
REMARK    3  A    between atoms: C13_17  and  O3_18 
REMARK    4  A    between atoms: C13_17  and  C14_20 
REMARK    5  A    between atoms: C14_20  and  O4_21 
REMARK    6  A    between atoms: C14_20  and  C15_23 
REMARK    7  A    between atoms: C15_23  and  C17_25 
REMARK    8  A    between atoms: C18_26  and  C19_27 
REMARK    9  A    between atoms: C19_27  and  C20_28 
ROOT
HETATM    1  N1  UNL     1      12.365 -13.616  21.835  1.00  0.00     0.093 N 
HETATM    2  C3  UNL     1      11.431 -14.085  20.851  1.00  0.00     0.274 C 
HETATM    3  C4  UNL     1      12.304 -14.818  19.824  1.00  0.00     0.045 C 
HETATM    4  C5  UNL     1      13.719 -14.592  20.275  1.00  0.00     0.029 C 
HETATM    5  C6  UNL     1      14.123 -15.743  21.135  1.00  0.00     0.129 C 
HETATM    6  C7  UNL     1      15.304 -15.920  21.915  1.00  0.00     0.033 C 
HETATM    7  C8  UNL     1      16.528 -14.970  21.861  1.00  0.00     0.016 C 
HETATM    8  C9  UNL     1      15.997 -13.966  20.991  1.00  0.00     0.003 C 
HETATM    9  C10 UNL     1      15.881 -14.798  19.747  1.00  0.00     0.026 C 
HETATM   10  C11 UNL     1      14.638 -14.119  19.225  1.00  0.00     0.073 C 
HETATM   11  C12 UNL     1      15.270 -12.767  19.319  1.00  0.00     0.169 C 
HETATM   12  O2  UNL     1      14.942 -11.747  18.709  1.00  0.00    -0.294 OA
HETATM   13  C13 UNL     1      16.441 -12.787  20.317  1.00  0.00     0.152 C 
HETATM   14  C25 UNL     1      14.847 -13.454  21.780  1.00  0.00     0.050 C 
HETATM   15  C26 UNL     1      13.521 -13.317  21.117  1.00  0.00     0.235 C 
ENDROOT
BRANCH  13  16
HETATM   16  O3  UNL     1      16.238 -11.557  21.013  1.00  0.00    -0.379 OA
ATOM     17  H3  UNL     1      15.900 -11.630  21.897  1.00  0.00     0.211 HD
ENDBRANCH  13  16
BRANCH  13  18
HETATM   18  C14 UNL     1      17.755 -12.639  19.703  1.00  0.00     0.168 C 
BRANCH  18  19
HETATM   19  O4  UNL     1      17.846 -11.656  18.713  1.00  0.00    -0.391 OA
ATOM     20  H4  UNL     1      18.248 -11.935  17.898  1.00  0.00     0.210 HD
ENDBRANCH  18  19
BRANCH  18  21
HETATM   21  C15 UNL     1      18.872 -12.232  20.653  1.00  0.00     0.036 C 
HETATM   22  C16 UNL     1      20.191 -12.147  19.974  1.00  0.00     0.017 C 
BRANCH  21  23
HETATM   23  C17 UNL     1      18.961 -13.215  21.782  1.00  0.00    -0.023 C 
HETATM   24  C18 UNL     1      19.975 -14.054  21.879  1.00  0.00    -0.026 C 
BRANCH  24  25
HETATM   25  C19 UNL     1      20.244 -15.074  22.885  1.00  0.00     0.060 C 
BRANCH  25  26
HETATM   26  C20 UNL     1      20.316 -14.613  24.279  1.00  0.00    -0.080 C 
HETATM   27  C21 UNL     1      21.240 -13.764  24.778  1.00  0.00    -0.024 C 
HETATM   28  C22 UNL     1      20.997 -13.527  26.233  1.00  0.00     0.027 C 
HETATM   29  C23 UNL     1      20.361 -14.885  26.605  1.00  0.00     0.008 C 
HETATM   30  C24 UNL     1      19.423 -15.004  25.395  1.00  0.00     0.034 C 
ENDBRANCH  25  26
ENDBRANCH  24  25
ENDBRANCH  21  23
ENDBRANCH  18  21
ENDBRANCH  13  18
BRANCH   5  31
HETATM   31  O1  UNL     1      12.986 -15.988  21.964  1.00  0.00    -0.395 OA
ATOM     32  H1  UNL     1      13.255 -16.698  22.535  1.00  0.00     0.210 HD
ENDBRANCH   5  31
BRANCH   1  33
HETATM   33  C2  UNL     1      11.885 -12.766  22.834  1.00  0.00     0.268 C 
HETATM   34  C1  UNL     1      11.805 -11.310  22.537  1.00  0.00     0.037 C 
ENDBRANCH   1  33
TORSDOF 9
ENDMDL
MODEL 4
REMARK VINA RESULT: -7.075491433      2.008      4.856
REMARK  9 active torsions:
REMARK  status: ('A' for Active; 'I' for Inactive)
REMARK    1  A    between atoms: C2_2  and  N1_3 
REMARK    2  A    between atoms: C6_7  and  O1_8 
REMARK    3  A    between atoms: C13_17  and  O3_18 
REMARK    4  A    between atoms: C13_17  and  C14_20 
REMARK    5  A    between atoms: C14_20  and  O4_21 
REMARK    6  A    between atoms: C14_20  and  C15_23 
REMARK    7  A    between atoms: C15_23  and  C17_25 
REMARK    8  A    between atoms: C18_26  and  C19_27 
REMARK    9  A    between atoms: C19_27  and  C20_28 
ROOT
HETATM    1  N1  UNL     1      13.246 -18.990  18.733  1.00  0.00     0.093 N 
HETATM    2  C3  UNL     1      12.705 -19.988  19.613  1.00  0.00     0.274 C 
HETATM    3  C4  UNL     1      12.352 -19.212  20.888  1.00  0.00     0.045 C 
HETATM    4  C5  UNL     1      12.849 -17.814  20.652  1.00  0.00     0.029 C 
HETATM    5  C6  UNL     1      11.723 -17.007  20.097  1.00  0.00     0.129 C 
HETATM    6  C7  UNL     1      11.732 -15.679  19.574  1.00  0.00     0.033 C 
HETATM    7  C8  UNL     1      12.948 -14.722  19.663  1.00  0.00     0.016 C 
HETATM    8  C9  UNL     1      13.903 -15.621  20.233  1.00  0.00     0.003 C 
HETATM    9  C10 UNL     1      13.246 -15.815  21.569  1.00  0.00     0.026 C 
HETATM   10  C11 UNL     1      13.670 -17.254  21.740  1.00  0.00     0.073 C 
HETATM   11  C12 UNL     1      15.109 -16.915  21.511  1.00  0.00     0.169 C 
HETATM   12  O2  UNL     1      16.093 -17.570  21.862  1.00  0.00    -0.294 OA
HETATM   13  C13 UNL     1      15.235 -15.585  20.748  1.00  0.00     0.152 C 
HETATM   14  C25 UNL     1      14.009 -16.664  19.180  1.00  0.00     0.050 C 
HETATM   15  C26 UNL     1      13.911 -18.097  19.572  1.00  0.00     0.235 C 
ENDROOT
BRANCH  13  16
HETATM   16  O3  UNL     1      16.273 -15.894  19.817  1.00  0.00    -0.379 OA
ATOM     17  H3  UNL     1      17.062 -15.370  19.885  1.00  0.00     0.211 HD
ENDBRANCH  13  16
BRANCH  13  18
HETATM   18  C14 UNL     1      15.779 -14.489  21.539  1.00  0.00     0.168 C 
BRANCH  18  19
HETATM   19  O4  UNL     1      16.701 -14.860  22.523  1.00  0.00    -0.391 OA
ATOM     20  H4  UNL     1      16.325 -15.167  23.339  1.00  0.00     0.210 HD
ENDBRANCH  18  19
BRANCH  18  21
HETATM   21  C15 UNL     1      16.562 -13.447  20.753  1.00  0.00     0.036 C 
HETATM   22  C16 UNL     1      17.906 -13.191  21.331  1.00  0.00     0.017 C 
BRANCH  21  23
HETATM   23  C17 UNL     1      15.791 -12.161  20.708  1.00  0.00    -0.023 C 
HETATM   24  C18 UNL     1      14.648 -12.028  21.354  1.00  0.00    -0.026 C 
BRANCH  24  25
HETATM   25  C19 UNL     1      13.757 -10.877  21.436  1.00  0.00     0.060 C 
BRANCH  25  26
HETATM   26  C20 UNL     1      12.584 -11.023  22.310  1.00  0.00    -0.080 C 
HETATM   27  C21 UNL     1      12.251 -10.193  23.322  1.00  0.00    -0.024 C 
HETATM   28  C22 UNL     1      10.997 -10.659  23.987  1.00  0.00     0.027 C 
HETATM   29  C23 UNL     1      11.134 -12.179  23.741  1.00  0.00     0.008 C 
HETATM   30  C24 UNL     1      11.572 -12.105  22.271  1.00  0.00     0.034 C 
ENDBRANCH  25  26
ENDBRANCH  24  25
ENDBRANCH  21  23
ENDBRANCH  18  21
ENDBRANCH  13  18
BRANCH   5  31
HETATM   31  O1  UNL     1      11.100 -17.869  19.143  1.00  0.00    -0.395 OA
ATOM     32  H1  UNL     1      11.817 -18.366  18.768  1.00  0.00     0.210 HD
ENDBRANCH   5  31
BRANCH   1  33
HETATM   33  C2  UNL     1      13.810 -19.420  17.530  1.00  0.00     0.268 C 
HETATM   34  C1  UNL     1      13.000 -19.284  16.289  1.00  0.00     0.037 C 
ENDBRANCH   1  33
TORSDOF 9
ENDMDL
MODEL 5
REMARK VINA RESULT: -7.044216877      1.996      3.367
REMARK  9 active torsions:
REMARK  status: ('A' for Active; 'I' for Inactive)
REMARK    1  A    between atoms: C2_2  and  N1_3 
REMARK    2  A    between atoms: C6_7  and  O1_8 
REMARK    3  A    between atoms: C13_17  and  O3_18 
REMARK    4  A    between atoms: C13_17  and  C14_20 
REMARK    5  A    between atoms: C14_20  and  O4_21 
REMARK    6  A    between atoms: C14_20  and  C15_23 
REMARK    7  A    between atoms: C15_23  and  C17_25 
REMARK    8  A    between atoms: C18_26  and  C19_27 
REMARK    9  A    between atoms: C19_27  and  C20_28 
ROOT
HETATM    1  N1  UNL     1      13.296 -18.163  20.904  1.00  0.00     0.093 N 
HETATM    2  C3  UNL     1      11.887 -18.384  20.741  1.00  0.00     0.274 C 
HETATM    3  C4  UNL     1      11.416 -17.195  19.894  1.00  0.00     0.045 C 
HETATM    4  C5  UNL     1      12.623 -16.313  19.744  1.00  0.00     0.029 C 
HETATM    5  C6  UNL     1      13.313 -16.680  18.473  1.00  0.00     0.129 C 
HETATM    6  C7  UNL     1      14.572 -16.240  17.966  1.00  0.00     0.033 C 
HETATM    7  C8  UNL     1      15.409 -15.099  18.598  1.00  0.00     0.016 C 
HETATM    8  C9  UNL     1      14.610 -14.848  19.758  1.00  0.00     0.003 C 
HETATM    9  C10 UNL     1      13.385 -14.324  19.067  1.00  0.00     0.026 C 
HETATM   10  C11 UNL     1      12.396 -14.891  20.057  1.00  0.00     0.073 C 
HETATM   11  C12 UNL     1      13.097 -14.244  21.210  1.00  0.00     0.169 C 
HETATM   12  O2  UNL     1      12.623 -13.985  22.318  1.00  0.00    -0.294 OA
HETATM   13  C13 UNL     1      14.555 -13.919  20.842  1.00  0.00     0.152 C 
HETATM   14  C25 UNL     1      14.690 -16.148  20.473  1.00  0.00     0.050 C 
HETATM   15  C26 UNL     1      13.436 -16.778  20.968  1.00  0.00     0.235 C 
ENDROOT
BRANCH  13  16
HETATM   16  O3  UNL     1      15.239 -14.307  22.033  1.00  0.00    -0.379 OA
ATOM     17  H3  UNL     1      15.320 -13.638  22.703  1.00  0.00     0.211 HD
ENDBRANCH  13  16
BRANCH  13  18
HETATM   18  C14 UNL     1      14.837 -12.494  20.715  1.00  0.00     0.168 C 
BRANCH  18  19
HETATM   19  O4  UNL     1      14.388 -11.698  21.773  1.00  0.00    -0.391 OA
ATOM     20  H4  UNL     1      14.144 -12.167  22.562  1.00  0.00     0.210 HD
ENDBRANCH  18  19
BRANCH  18  21
HETATM   21  C15 UNL     1      16.313 -12.129  20.651  1.00  0.00     0.036 C 
HETATM   22  C16 UNL     1      16.763 -11.824  19.268  1.00  0.00     0.017 C 
BRANCH  21  23
HETATM   23  C17 UNL     1      17.138 -13.253  21.202  1.00  0.00    -0.023 C 
HETATM   24  C18 UNL     1      18.448 -13.145  21.320  1.00  0.00    -0.026 C 
BRANCH  24  25
HETATM   25  C19 UNL     1      19.419 -14.108  21.824  1.00  0.00     0.060 C 
BRANCH  25  26
HETATM   26  C20 UNL     1      19.429 -14.325  23.277  1.00  0.00    -0.080 C 
HETATM   27  C21 UNL     1      20.453 -14.031  24.107  1.00  0.00    -0.024 C 
HETATM   28  C22 UNL     1      20.103 -14.391  25.514  1.00  0.00     0.027 C 
HETATM   29  C23 UNL     1      19.147 -15.573  25.239  1.00  0.00     0.008 C 
HETATM   30  C24 UNL     1      18.350 -14.925  24.097  1.00  0.00     0.034 C 
ENDBRANCH  25  26
ENDBRANCH  24  25
ENDBRANCH  21  23
ENDBRANCH  18  21
ENDBRANCH  13  18
BRANCH   5  31
HETATM   31  O1  UNL     1      13.284 -18.108  18.449  1.00  0.00    -0.395 OA
ATOM     32  H1  UNL     1      13.618 -18.339  17.590  1.00  0.00     0.210 HD
ENDBRANCH   5  31
BRANCH   1  33
HETATM   33  C2  UNL     1      13.991 -19.008  21.772  1.00  0.00     0.268 C 
HETATM   34  C1  UNL     1      15.096 -19.832  21.212  1.00  0.00     0.037 C 
ENDBRANCH   1  33
TORSDOF 9
ENDMDL
