MODEL 1
REMARK VINA RESULT: -7.704085058      0.000      0.000
REMARK  9 active torsions:
REMARK  status: ('A' for Active; 'I' for Inactive)
REMARK    1  A    between atoms: C2_2  and  C3_3 
REMARK    2  A    between atoms: C3_3  and  N1_4 
REMARK    3  A    between atoms: C3_3  and  C9_12 
REMARK       I    between atoms: N1_4  and  C4_5 
REMARK    4  A    between atoms: C4_5  and  O2_7 
REMARK    5  A    between atoms: O2_7  and  C5_8 
REMARK       I    between atoms: C9_12  and  N2_14 
REMARK    6  A    between atoms: N2_14  and  C10_16 
REMARK    7  A    between atoms: C17_23  and  N3_24 
REMARK    8  A    between atoms: C21_28  and  C22_29 
REMARK    9  A    between atoms: C22_29  and  O4_30 
ROOT
HETATM    1  C10 UNL     1      15.742 -15.855  20.404  1.00  0.00     0.092 C 
HETATM    2  C11 UNL     1      15.220 -15.352  19.104  1.00  0.00     0.011 C 
HETATM    3  C12 UNL     1      14.903 -16.624  18.294  1.00  0.00     0.012 C 
HETATM    4  C13 UNL     1      13.747 -17.304  18.948  1.00  0.00    -0.007 C 
HETATM    5  C14 UNL     1      13.931 -17.555  20.425  1.00  0.00     0.012 C 
HETATM    6  C15 UNL     1      14.574 -16.439  21.144  1.00  0.00     0.011 C 
HETATM    7  C16 UNL     1      13.576 -15.298  21.404  1.00  0.00     0.048 C 
HETATM    8  C17 UNL     1      13.020 -14.709  20.142  1.00  0.00     0.160 C 
HETATM    9  C20 UNL     1      11.976 -15.643  19.614  1.00  0.00     0.048 C 
HETATM   10  C21 UNL     1      12.464 -16.642  18.600  1.00  0.00     0.016 C 
HETATM   11  C23 UNL     1      14.101 -14.393  19.126  1.00  0.00     0.048 C 
ENDROOT
BRANCH   1  12
HETATM   12  N2  UNL     1      16.514 -14.984  21.226  1.00  0.00    -0.353 N 
HETATM   13  C9  UNL     1      17.713 -15.298  21.899  1.00  0.00     0.254 C 
HETATM   14  O3  UNL     1      18.277 -16.408  21.920  1.00  0.00    -0.270 OA
ATOM     15  H2  UNL     1      16.161 -14.034  21.341  1.00  0.00     0.163 HD
BRANCH  13  16
HETATM   16  C3  UNL     1      18.371 -14.167  22.665  1.00  0.00     0.260 C 
BRANCH  16  17
HETATM   17  C2  UNL     1      18.618 -13.098  21.560  1.00  0.00     0.045 C 
HETATM   18  C1  UNL     1      19.900 -13.366  20.825  1.00  0.00     0.009 C 
ENDBRANCH  16  17
BRANCH  16  19
HETATM   19  N1  UNL     1      19.568 -14.538  23.245  1.00  0.00    -0.375 NA
HETATM   20  C4  UNL     1      20.743 -14.909  23.809  1.00  0.00     0.436 C 
HETATM   21  O1  UNL     1      21.387 -15.933  23.372  1.00  0.00    -0.221 OA
BRANCH  20  22
HETATM   22  O2  UNL     1      21.392 -14.280  24.866  1.00  0.00    -0.283 OA
BRANCH  22  23
HETATM   23  C5  UNL     1      21.246 -14.663  26.176  1.00  0.00     0.062 C 
HETATM   24  C6  UNL     1      22.459 -15.413  26.675  1.00  0.00     0.046 C 
HETATM   25  C7  UNL     1      21.189 -13.383  27.048  1.00  0.00     0.046 C 
HETATM   26  C8  UNL     1      20.015 -15.456  26.520  1.00  0.00     0.046 C 
ENDBRANCH  22  23
ENDBRANCH  20  22
ENDBRANCH  16  19
ENDBRANCH  13  16
ENDBRANCH   1  12
BRANCH   8  27
HETATM   27  N3  UNL     1      12.413 -13.419  20.435  1.00  0.00     0.089 N 
HETATM   28  C18 UNL     1      13.206 -12.306  20.003  1.00  0.00     0.310 C 
HETATM   29  C19 UNL     1      12.035 -13.298  21.836  1.00  0.00     0.310 C 
ENDBRANCH   8  27
BRANCH  10  30
HETATM   30  C22 UNL     1      11.359 -17.689  18.452  1.00  0.00     0.169 C 
BRANCH  30  31
HETATM   31  O4  UNL     1      10.631 -17.442  17.290  1.00  0.00    -0.400 OA
ATOM     32  H4  UNL     1       9.711 -17.343  17.504  1.00  0.00     0.209 HD
ENDBRANCH  30  31
ENDBRANCH  10  30
TORSDOF 9
ENDMDL
MODEL 2
REMARK VINA RESULT: -7.620308426      3.082      9.661
REMARK  9 active torsions:
REMARK  status: ('A' for Active; 'I' for Inactive)
REMARK    1  A    between atoms: C2_2  and  C3_3 
REMARK    2  A    between atoms: C3_3  and  N1_4 
REMARK    3  A    between atoms: C3_3  and  C9_12 
REMARK       I    between atoms: N1_4  and  C4_5 
REMARK    4  A    between atoms: C4_5  and  O2_7 
REMARK    5  A    between atoms: O2_7  and  C5_8 
REMARK       I    between atoms: C9_12  and  N2_14 
REMARK    6  A    between atoms: N2_14  and  C10_16 
REMARK    7  A    between atoms: C17_23  and  N3_24 
REMARK    8  A    between atoms: C21_28  and  C22_29 
REMARK    9  A    between atoms: C22_29  and  O4_30 
ROOT
HETATM    1  C10 UNL     1      20.247 -14.520  24.598  1.00  0.00     0.092 C 
HETATM    2  C11 UNL     1      21.163 -13.637  25.370  1.00  0.00     0.011 C 
HETATM    3  C12 UNL     1      20.842 -13.941  26.847  1.00  0.00     0.012 C 
HETATM    4  C13 UNL     1      21.299 -15.333  27.134  1.00  0.00    -0.007 C 
HETATM    5  C14 UNL     1      20.771 -16.369  26.172  1.00  0.00     0.012 C 
HETATM    6  C15 UNL     1      20.754 -15.923  24.766  1.00  0.00     0.011 C 
HETATM    7  C16 UNL     1      22.161 -15.983  24.148  1.00  0.00     0.048 C 
HETATM    8  C17 UNL     1      23.145 -15.096  24.849  1.00  0.00     0.160 C 
HETATM    9  C20 UNL     1      23.560 -15.773  26.118  1.00  0.00     0.048 C 
HETATM   10  C21 UNL     1      22.769 -15.387  27.338  1.00  0.00     0.016 C 
HETATM   11  C23 UNL     1      22.605 -13.696  25.073  1.00  0.00     0.048 C 
ENDROOT
BRANCH   1  12
HETATM   12  N2  UNL     1      19.972 -14.213  23.234  1.00  0.00    -0.353 N 
HETATM   13  C9  UNL     1      18.707 -14.186  22.611  1.00  0.00     0.254 C 
HETATM   14  O3  UNL     1      17.618 -14.471  23.144  1.00  0.00    -0.270 OA
ATOM     15  H2  UNL     1      20.775 -13.988  22.646  1.00  0.00     0.163 HD
BRANCH  13  16
HETATM   16  C3  UNL     1      18.682 -13.767  21.154  1.00  0.00     0.260 C 
BRANCH  16  17
HETATM   17  C2  UNL     1      20.040 -13.025  20.984  1.00  0.00     0.045 C 
HETATM   18  C1  UNL     1      20.077 -12.252  19.697  1.00  0.00     0.009 C 
ENDBRANCH  16  17
BRANCH  16  19
HETATM   19  N1  UNL     1      17.634 -12.917  20.860  1.00  0.00    -0.375 NA
HETATM   20  C4  UNL     1      16.610 -12.080  20.566  1.00  0.00     0.436 C 
HETATM   21  O1  UNL     1      16.661 -11.319  19.530  1.00  0.00    -0.221 OA
BRANCH  20  22
HETATM   22  O2  UNL     1      15.427 -11.931  21.281  1.00  0.00    -0.283 OA
BRANCH  22  23
HETATM   23  C5  UNL     1      14.257 -12.566  20.945  1.00  0.00     0.062 C 
HETATM   24  C6  UNL     1      14.326 -14.048  21.232  1.00  0.00     0.046 C 
HETATM   25  C7  UNL     1      13.137 -12.036  21.876  1.00  0.00     0.046 C 
HETATM   26  C8  UNL     1      13.756 -12.371  19.540  1.00  0.00     0.046 C 
ENDBRANCH  22  23
ENDBRANCH  20  22
ENDBRANCH  16  19
ENDBRANCH  13  16
ENDBRANCH   1  12
BRANCH   8  27
HETATM   27  N3  UNL     1      24.312 -14.900  24.001  1.00  0.00     0.089 N 
HETATM   28  C18 UNL     1      25.337 -15.880  24.206  1.00  0.00     0.310 C 
HETATM   29  C19 UNL     1      24.837 -13.545  24.098  1.00  0.00     0.310 C 
ENDBRANCH   8  27
BRANCH  10  30
HETATM   30  C22 UNL     1      23.109 -16.411  28.422  1.00  0.00     0.169 C 
BRANCH  30  31
HETATM   31  O4  UNL     1      24.210 -15.973  29.153  1.00  0.00    -0.400 OA
ATOM     32  H4  UNL     1      23.932 -15.711  30.023  1.00  0.00     0.209 HD
ENDBRANCH  30  31
ENDBRANCH  10  30
TORSDOF 9
ENDMDL
MODEL 3
REMARK VINA RESULT: -7.529317456      0.688      1.036
REMARK  9 active torsions:
REMARK  status: ('A' for Active; 'I' for Inactive)
REMARK    1  A    between atoms: C2_2  and  C3_3 
REMARK    2  A    between atoms: C3_3  and  N1_4 
REMARK    3  A    between atoms: C3_3  and  C9_12 
REMARK       I    between atoms: N1_4  and  C4_5 
REMARK    4  A    between atoms: C4_5  and  O2_7 
REMARK    5  A    between atoms: O2_7  and  C5_8 
REMARK       I    between atoms: C9_12  and  N2_14 
REMARK    6  A    between atoms: N2_14  and  C10_16 
REMARK    7  A    between atoms: C17_23  and  N3_24 
REMARK    8  A    between atoms: C21_28  and  C22_29 
REMARK    9  A    between atoms: C22_29  and  O4_30 
ROOT
HETATM    1  C10 UNL     1      15.704 -16.081  20.492  1.00  0.00     0.092 C 
HETATM    2  C11 UNL     1      15.268 -15.455  19.214  1.00  0.00     0.011 C 
HETATM    3  C12 UNL     1      14.917 -16.645  18.299  1.00  0.00     0.012 C 
HETATM    4  C13 UNL     1      13.698 -17.302  18.855  1.00  0.00    -0.007 C 
HETATM    5  C14 UNL     1      13.802 -17.669  20.315  1.00  0.00     0.012 C 
HETATM    6  C15 UNL     1      14.475 -16.647  21.140  1.00  0.00     0.011 C 
HETATM    7  C16 UNL     1      13.530 -15.472  21.445  1.00  0.00     0.048 C 
HETATM    8  C17 UNL     1      13.064 -14.762  20.209  1.00  0.00     0.160 C 
HETATM    9  C20 UNL     1      11.994 -15.593  19.572  1.00  0.00     0.048 C 
HETATM   10  C21 UNL     1      12.469 -16.542  18.507  1.00  0.00     0.016 C 
HETATM   11  C23 UNL     1      14.204 -14.437  19.263  1.00  0.00     0.048 C 
ENDROOT
BRANCH   1  12
HETATM   12  N2  UNL     1      16.486 -15.318  21.407  1.00  0.00    -0.353 N 
HETATM   13  C9  UNL     1      17.707 -15.701  22.000  1.00  0.00     0.254 C 
HETATM   14  O3  UNL     1      18.287 -16.794  21.853  1.00  0.00    -0.270 OA
ATOM     15  H2  UNL     1      16.124 -14.399  21.660  1.00  0.00     0.163 HD
BRANCH  13  16
HETATM   16  C3  UNL     1      18.371 -14.675  22.898  1.00  0.00     0.260 C 
BRANCH  16  17
HETATM   17  C2  UNL     1      18.633 -13.485  21.928  1.00  0.00     0.045 C 
HETATM   18  C1  UNL     1      19.909 -13.683  21.161  1.00  0.00     0.009 C 
ENDBRANCH  16  17
BRANCH  16  19
HETATM   19  N1  UNL     1      19.561 -15.123  23.434  1.00  0.00    -0.375 NA
HETATM   20  C4  UNL     1      20.731 -15.567  23.954  1.00  0.00     0.436 C 
HETATM   21  O1  UNL     1      21.592 -16.172  23.215  1.00  0.00    -0.221 OA
BRANCH  20  22
HETATM   22  O2  UNL     1      21.157 -15.438  25.273  1.00  0.00    -0.283 OA
BRANCH  22  23
HETATM   23  C5  UNL     1      21.926 -14.391  25.717  1.00  0.00     0.062 C 
HETATM   24  C6  UNL     1      21.097 -13.151  25.954  1.00  0.00     0.046 C 
HETATM   25  C7  UNL     1      22.484 -14.765  27.114  1.00  0.00     0.046 C 
HETATM   26  C8  UNL     1      23.119 -14.019  24.880  1.00  0.00     0.046 C 
ENDBRANCH  22  23
ENDBRANCH  20  22
ENDBRANCH  16  19
ENDBRANCH  13  16
ENDBRANCH   1  12
BRANCH   8  27
HETATM   27  N3  UNL     1      12.517 -13.463  20.573  1.00  0.00     0.089 N 
HETATM   28  C18 UNL     1      13.226 -12.363  19.988  1.00  0.00     0.310 C 
HETATM   29  C19 UNL     1      12.384 -13.311  22.015  1.00  0.00     0.310 C 
ENDBRANCH   8  27
BRANCH  10  30
HETATM   30  C22 UNL     1      11.316 -17.510  18.237  1.00  0.00     0.169 C 
BRANCH  30  31
HETATM   31  O4  UNL     1      11.583 -18.250  17.088  1.00  0.00    -0.400 OA
ATOM     32  H4  UNL     1      11.418 -19.170  17.254  1.00  0.00     0.209 HD
ENDBRANCH  30  31
ENDBRANCH  10  30
TORSDOF 9
ENDMDL
MODEL 4
REMARK VINA RESULT: -7.215818351      3.015      8.522
REMARK  9 active torsions:
REMARK  status: ('A' for Active; 'I' for Inactive)
REMARK    1  A    between atoms: C2_2  and  C3_3 
REMARK    2  A    between atoms: C3_3  and  N1_4 
REMARK    3  A    between atoms: C3_3  and  C9_12 
REMARK       I    between atoms: N1_4  and  C4_5 
REMARK    4  A    between atoms: C4_5  and  O2_7 
REMARK    5  A    between atoms: O2_7  and  C5_8 
REMARK       I    between atoms: C9_12  and  N2_14 
REMARK    6  A    between atoms: N2_14  and  C10_16 
REMARK    7  A    between atoms: C17_23  and  N3_24 
REMARK    8  A    between atoms: C21_28  and  C22_29 
REMARK    9  A    between atoms: C22_29  and  O4_30 
ROOT
HETATM    1  C10 UNL     1      18.261 -16.328  23.761  1.00  0.00     0.092 C 
HETATM    2  C11 UNL     1      18.475 -15.991  25.194  1.00  0.00     0.011 C 
HETATM    3  C12 UNL     1      18.602 -17.356  25.900  1.00  0.00     0.012 C 
HETATM    4  C13 UNL     1      19.877 -17.985  25.447  1.00  0.00    -0.007 C 
HETATM    5  C14 UNL     1      20.033 -18.060  23.948  1.00  0.00     0.012 C 
HETATM    6  C15 UNL     1      19.567 -16.852  23.239  1.00  0.00     0.011 C 
HETATM    7  C16 UNL     1      20.597 -15.715  23.346  1.00  0.00     0.048 C 
HETATM    8  C17 UNL     1      20.851 -15.289  24.762  1.00  0.00     0.160 C 
HETATM    9  C20 UNL     1      21.750 -16.303  25.398  1.00  0.00     0.048 C 
HETATM   10  C21 UNL     1      21.047 -17.399  26.150  1.00  0.00     0.016 C 
HETATM   11  C23 UNL     1      19.568 -15.064  25.538  1.00  0.00     0.048 C 
ENDROOT
BRANCH   1  12
HETATM   12  N2  UNL     1      17.695 -15.350  22.894  1.00  0.00    -0.353 N 
HETATM   13  C9  UNL     1      16.954 -15.589  21.718  1.00  0.00     0.254 C 
HETATM   14  O3  UNL     1      16.707 -16.702  21.216  1.00  0.00    -0.270 OA
ATOM     15  H2  UNL     1      17.841 -14.374  23.151  1.00  0.00     0.163 HD
BRANCH  13  16
HETATM   16  C3  UNL     1      16.408 -14.367  21.005  1.00  0.00     0.260 C 
BRANCH  16  17
HETATM   17  C2  UNL     1      17.348 -13.229  21.499  1.00  0.00     0.045 C 
HETATM   18  C1  UNL     1      17.618 -12.236  20.406  1.00  0.00     0.009 C 
ENDBRANCH  16  17
BRANCH  16  19
HETATM   19  N1  UNL     1      15.100 -14.087  21.349  1.00  0.00    -0.375 NA
HETATM   20  C4  UNL     1      13.815 -13.820  21.684  1.00  0.00     0.436 C 
HETATM   21  O1  UNL     1      12.906 -14.724  21.577  1.00  0.00    -0.221 OA
BRANCH  20  22
HETATM   22  O2  UNL     1      13.316 -12.615  22.168  1.00  0.00    -0.283 OA
BRANCH  22  23
HETATM   23  C5  UNL     1      13.149 -11.499  21.386  1.00  0.00     0.062 C 
HETATM   24  C6  UNL     1      14.326 -10.558  21.501  1.00  0.00     0.046 C 
HETATM   25  C7  UNL     1      13.147 -11.947  19.902  1.00  0.00     0.046 C 
HETATM   26  C8  UNL     1      11.883 -10.711  21.584  1.00  0.00     0.046 C 
ENDBRANCH  22  23
ENDBRANCH  20  22
ENDBRANCH  16  19
ENDBRANCH  13  16
ENDBRANCH   1  12
BRANCH   8  27
HETATM   27  N3  UNL     1      21.507 -13.989  24.766  1.00  0.00     0.089 N 
HETATM   28  C18 UNL     1      22.929 -14.068  24.602  1.00  0.00     0.310 C 
HETATM   29  C19 UNL     1      21.144 -13.198  25.934  1.00  0.00     0.310 C 
ENDBRANCH   8  27
BRANCH  10  30
HETATM   30  C22 UNL     1      22.092 -18.483  26.420  1.00  0.00     0.169 C 
BRANCH  30  31
HETATM   31  O4  UNL     1      21.466 -19.623  26.919  1.00  0.00    -0.400 OA
ATOM     32  H4  UNL     1      22.027 -20.040  27.562  1.00  0.00     0.209 HD
ENDBRANCH  30  31
ENDBRANCH  10  30
TORSDOF 9
ENDMDL
MODEL 5
REMARK VINA RESULT: -7.188792117      1.818      3.281
REMARK  9 active torsions:
REMARK  status: ('A' for Active; 'I' for Inactive)
REMARK    1  A    between atoms: C2_2  and  C3_3 
REMARK    2  A    between atoms: C3_3  and  N1_4 
REMARK    3  A    between atoms: C3_3  and  C9_12 
REMARK       I    between atoms: N1_4  and  C4_5 
REMARK    4  A    between atoms: C4_5  and  O2_7 
REMARK    5  A    between atoms: O2_7  and  C5_8 
REMARK       I    between atoms: C9_12  and  N2_14 
REMARK    6  A    between atoms: N2_14  and  C10_16 
REMARK    7  A    between atoms: C17_23  and  N3_24 
REMARK    8  A    between atoms: C21_28  and  C22_29 
REMARK    9  A    between atoms: C22_29  and  O4_30 
ROOT
HETATM    1  C10 UNL     1      14.748 -14.640  20.174  1.00  0.00     0.092 C 
HETATM    2  C11 UNL     1      13.790 -15.246  21.137  1.00  0.00     0.011 C 
HETATM    3  C12 UNL     1      12.416 -15.124  20.448  1.00  0.00     0.012 C 
HETATM    4  C13 UNL     1      12.417 -16.033  19.266  1.00  0.00    -0.007 C 
HETATM    5  C14 UNL     1      13.585 -15.833  18.331  1.00  0.00     0.012 C 
HETATM    6  C15 UNL     1      14.867 -15.594  19.021  1.00  0.00     0.011 C 
HETATM    7  C16 UNL     1      15.456 -16.906  19.567  1.00  0.00     0.048 C 
HETATM    8  C17 UNL     1      14.564 -17.572  20.573  1.00  0.00     0.160 C 
HETATM    9  C20 UNL     1      13.457 -18.255  19.832  1.00  0.00     0.048 C 
HETATM   10  C21 UNL     1      12.200 -17.446  19.671  1.00  0.00     0.016 C 
HETATM   11  C23 UNL     1      14.063 -16.608  21.631  1.00  0.00     0.048 C 
ENDROOT
BRANCH   1  12
HETATM   12  N2  UNL     1      16.022 -14.207  20.642  1.00  0.00    -0.353 N 
HETATM   13  C9  UNL     1      16.509 -12.883  20.665  1.00  0.00     0.254 C 
HETATM   14  O3  UNL     1      15.919 -11.873  20.239  1.00  0.00    -0.270 OA
ATOM     15  H2  UNL     1      16.647 -14.930  20.996  1.00  0.00     0.163 HD
BRANCH  13  16
HETATM   16  C3  UNL     1      17.884 -12.682  21.273  1.00  0.00     0.260 C 
BRANCH  16  17
HETATM   17  C2  UNL     1      18.683 -12.024  20.111  1.00  0.00     0.045 C 
HETATM   18  C1  UNL     1      20.143 -12.366  20.196  1.00  0.00     0.009 C 
ENDBRANCH  16  17
BRANCH  16  19
HETATM   19  N1  UNL     1      18.481 -13.869  21.649  1.00  0.00    -0.375 NA
HETATM   20  C4  UNL     1      19.060 -15.038  22.016  1.00  0.00     0.436 C 
HETATM   21  O1  UNL     1      18.440 -16.154  21.867  1.00  0.00    -0.221 OA
BRANCH  20  22
HETATM   22  O2  UNL     1      20.328 -15.200  22.565  1.00  0.00    -0.283 OA
BRANCH  22  23
HETATM   23  C5  UNL     1      20.562 -15.267  23.916  1.00  0.00     0.062 C 
HETATM   24  C6  UNL     1      21.038 -16.640  24.331  1.00  0.00     0.046 C 
HETATM   25  C7  UNL     1      21.746 -14.323  24.246  1.00  0.00     0.046 C 
HETATM   26  C8  UNL     1      19.436 -14.854  24.824  1.00  0.00     0.046 C 
ENDBRANCH  22  23
ENDBRANCH  20  22
ENDBRANCH  16  19
ENDBRANCH  13  16
ENDBRANCH   1  12
BRANCH   8  27
HETATM   27  N3  UNL     1      15.330 -18.560  21.320  1.00  0.00     0.089 N 
HETATM   28  C18 UNL     1      15.545 -18.196  22.689  1.00  0.00     0.310 C 
HETATM   29  C19 UNL     1      16.577 -18.904  20.652  1.00  0.00     0.310 C 
ENDBRANCH   8  27
BRANCH  10  30
HETATM   30  C22 UNL     1      11.348 -18.165  18.624  1.00  0.00     0.169 C 
BRANCH  30  31
HETATM   31  O4  UNL     1      10.135 -17.499  18.468  1.00  0.00    -0.400 OA
ATOM     32  H4  UNL     1       9.981 -17.327  17.547  1.00  0.00     0.209 HD
ENDBRANCH  30  31
ENDBRANCH  10  30
TORSDOF 9
ENDMDL
