MODEL 1
REMARK VINA RESULT: -7.611077413      0.000      0.000
REMARK  8 active torsions:
REMARK  status: ('A' for Active; 'I' for Inactive)
REMARK    1  A    between atoms: C2_2  and  C3_3 
REMARK    2  A    between atoms: C2_2  and  C8_11 
REMARK       I    between atoms: C3_3  and  N1_5 
REMARK    3  A    between atoms: N1_5  and  C4_7 
REMARK    4  A    between atoms: C8_11  and  N2_12 
REMARK    5  A    between atoms: C8_11  and  C22_31 
REMARK       I    between atoms: N2_12  and  C9_14 
REMARK    6  A    between atoms: C9_14  and  C10_16 
REMARK    7  A    between atoms: C10_16  and  N3_17 
REMARK    8  A    between atoms: C13_20  and  O3_21 
ROOT
HETATM    1  N2  UNL     1      16.718 -14.010  21.754  1.00  0.00    -0.353 N 
ATOM      2  H2  UNL     1      16.162 -14.866  21.757  1.00  0.00     0.163 HD
HETATM    3  C9  UNL     1      16.141 -12.902  21.142  1.00  0.00     0.247 C 
HETATM    4  O2  UNL     1      16.846 -11.845  21.152  1.00  0.00    -0.271 OA
ENDROOT
BRANCH   3   5
HETATM    5  C10 UNL     1      14.817 -12.797  20.483  1.00  0.00     0.125 A 
HETATM    6  C16 UNL     1      14.822 -12.740  18.954  1.00  0.00    -0.003 A 
HETATM    7  C17 UNL     1      13.785 -11.814  18.311  1.00  0.00     0.019 C 
HETATM    8  C18 UNL     1      16.105 -12.750  18.193  1.00  0.00     0.019 C 
HETATM    9  C19 UNL     1      14.369 -13.965  19.623  1.00  0.00    -0.003 A 
HETATM   10  C20 UNL     1      15.130 -15.241  19.669  1.00  0.00     0.019 C 
HETATM   11  C21 UNL     1      12.858 -14.209  19.429  1.00  0.00     0.019 C 
BRANCH   5  12
HETATM   12  N3  UNL     1      13.753 -12.108  21.141  1.00  0.00    -0.394 N 
HETATM   13  C11 UNL     1      14.006 -10.750  21.517  1.00  0.00     0.120 C 
HETATM   14  C12 UNL     1      13.193 -10.347  22.745  1.00  0.00     0.051 C 
HETATM   15  C13 UNL     1      11.769 -10.802  22.452  1.00  0.00     0.121 C 
HETATM   16  C14 UNL     1      11.778 -12.313  22.572  1.00  0.00     0.051 C 
HETATM   17  C15 UNL     1      13.112 -12.889  22.139  1.00  0.00     0.120 C 
BRANCH  15  18
HETATM   18  O3  UNL     1      11.456 -10.503  21.111  1.00  0.00    -0.395 OA
ATOM     19  H3  UNL     1      10.552 -10.743  20.941  1.00  0.00     0.210 HD
ENDBRANCH  15  18
ENDBRANCH   5  12
ENDBRANCH   3   5
BRANCH   1  20
HETATM   20  C8  UNL     1      18.010 -14.085  22.383  1.00  0.00     0.101 C 
BRANCH  20  21
HETATM   21  C2  UNL     1      18.094 -15.245  23.386  1.00  0.00     0.097 C 
HETATM   22  C1  UNL     1      17.885 -16.568  22.690  1.00  0.00     0.022 C 
BRANCH  21  23
HETATM   23  C3  UNL     1      19.389 -15.292  24.093  1.00  0.00     0.224 C 
HETATM   24  O1  UNL     1      20.183 -16.245  23.797  1.00  0.00    -0.273 OA
HETATM   25  N1  UNL     1      19.779 -14.337  25.065  1.00  0.00    -0.353 N 
ATOM     26  H1  UNL     1      19.141 -13.574  25.295  1.00  0.00     0.163 HD
BRANCH  25  27
HETATM   27  C4  UNL     1      21.037 -14.413  25.731  1.00  0.00     0.022 C 
HETATM   28  C5  UNL     1      21.136 -13.231  26.715  1.00  0.00     0.037 C 
HETATM   29  C6  UNL     1      21.239 -15.680  26.511  1.00  0.00     0.037 C 
HETATM   30  C7  UNL     1      22.234 -14.215  24.798  1.00  0.00     0.037 C 
ENDBRANCH  25  27
ENDBRANCH  21  23
ENDBRANCH  20  21
BRANCH  20  31
HETATM   31  C22 UNL     1      19.174 -14.150  21.504  1.00  0.00     0.009 A 
HETATM   32  C23 UNL     1      19.619 -13.207  20.501  1.00  0.00     0.007 A 
HETATM   33  C24 UNL     1      20.332 -13.214  21.826  1.00  0.00     0.007 A 
ENDBRANCH  20  31
ENDBRANCH   1  20
TORSDOF 8
ENDMDL
MODEL 2
REMARK VINA RESULT: -7.484305605      1.943      2.988
REMARK  8 active torsions:
REMARK  status: ('A' for Active; 'I' for Inactive)
REMARK    1  A    between atoms: C2_2  and  C3_3 
REMARK    2  A    between atoms: C2_2  and  C8_11 
REMARK       I    between atoms: C3_3  and  N1_5 
REMARK    3  A    between atoms: N1_5  and  C4_7 
REMARK    4  A    between atoms: C8_11  and  N2_12 
REMARK    5  A    between atoms: C8_11  and  C22_31 
REMARK       I    between atoms: N2_12  and  C9_14 
REMARK    6  A    between atoms: C9_14  and  C10_16 
REMARK    7  A    between atoms: C10_16  and  N3_17 
REMARK    8  A    between atoms: C13_20  and  O3_21 
ROOT
HETATM    1  N2  UNL     1      16.690 -16.332  22.464  1.00  0.00    -0.353 N 
ATOM      2  H2  UNL     1      15.917 -16.933  22.750  1.00  0.00     0.163 HD
HETATM    3  C9  UNL     1      16.417 -15.410  21.460  1.00  0.00     0.247 C 
HETATM    4  O2  UNL     1      17.391 -14.668  21.121  1.00  0.00    -0.271 OA
ENDROOT
BRANCH   3   5
HETATM    5  C10 UNL     1      15.142 -15.183  20.738  1.00  0.00     0.125 A 
HETATM    6  C16 UNL     1      14.828 -16.149  19.593  1.00  0.00    -0.003 A 
HETATM    7  C17 UNL     1      14.148 -15.539  18.364  1.00  0.00     0.019 C 
HETATM    8  C18 UNL     1      15.790 -17.226  19.217  1.00  0.00     0.019 C 
HETATM    9  C19 UNL     1      14.076 -16.258  20.847  1.00  0.00    -0.003 A 
HETATM   10  C20 UNL     1      14.235 -17.348  21.845  1.00  0.00     0.019 C 
HETATM   11  C21 UNL     1      12.595 -15.857  20.673  1.00  0.00     0.019 C 
BRANCH   5  12
HETATM   12  N3  UNL     1      14.629 -13.856  20.608  1.00  0.00    -0.394 N 
HETATM   13  C11 UNL     1      15.430 -12.932  19.863  1.00  0.00     0.120 C 
HETATM   14  C12 UNL     1      15.219 -11.496  20.340  1.00  0.00     0.051 C 
HETATM   15  C13 UNL     1      13.708 -11.312  20.405  1.00  0.00     0.121 C 
HETATM   16  C14 UNL     1      13.240 -12.107  21.607  1.00  0.00     0.051 C 
HETATM   17  C15 UNL     1      14.099 -13.339  21.819  1.00  0.00     0.120 C 
BRANCH  15  18
HETATM   18  O3  UNL     1      13.121 -11.909  19.271  1.00  0.00    -0.395 OA
ATOM     19  H3  UNL     1      12.457 -12.528  19.553  1.00  0.00     0.210 HD
ENDBRANCH  15  18
ENDBRANCH   5  12
ENDBRANCH   3   5
BRANCH   1  20
HETATM   20  C8  UNL     1      17.941 -16.534  23.146  1.00  0.00     0.101 C 
BRANCH  20  21
HETATM   21  C2  UNL     1      18.013 -15.743  24.460  1.00  0.00     0.097 C 
HETATM   22  C1  UNL     1      17.861 -16.665  25.646  1.00  0.00     0.022 C 
BRANCH  21  23
HETATM   23  C3  UNL     1      19.281 -15.002  24.609  1.00  0.00     0.224 C 
HETATM   24  O1  UNL     1      19.569 -14.147  23.708  1.00  0.00    -0.273 OA
HETATM   25  N1  UNL     1      20.173 -15.198  25.694  1.00  0.00    -0.353 N 
ATOM     26  H1  UNL     1      19.935 -15.880  26.415  1.00  0.00     0.163 HD
BRANCH  25  27
HETATM   27  C4  UNL     1      21.392 -14.467  25.807  1.00  0.00     0.022 C 
HETATM   28  C5  UNL     1      22.166 -15.002  27.026  1.00  0.00     0.037 C 
HETATM   29  C6  UNL     1      22.285 -14.582  24.606  1.00  0.00     0.037 C 
HETATM   30  C7  UNL     1      21.186 -12.983  26.125  1.00  0.00     0.037 C 
ENDBRANCH  25  27
ENDBRANCH  21  23
ENDBRANCH  20  21
BRANCH  20  31
HETATM   31  C22 UNL     1      18.337 -17.913  23.416  1.00  0.00     0.009 A 
HETATM   32  C23 UNL     1      18.073 -19.110  22.645  1.00  0.00     0.007 A 
HETATM   33  C24 UNL     1      19.444 -18.495  22.545  1.00  0.00     0.007 A 
ENDBRANCH  20  31
ENDBRANCH   1  20
TORSDOF 8
ENDMDL
MODEL 3
REMARK VINA RESULT: -7.425811098      2.178      8.429
REMARK  8 active torsions:
REMARK  status: ('A' for Active; 'I' for Inactive)
REMARK    1  A    between atoms: C2_2  and  C3_3 
REMARK    2  A    between atoms: C2_2  and  C8_11 
REMARK       I    between atoms: C3_3  and  N1_5 
REMARK    3  A    between atoms: N1_5  and  C4_7 
REMARK    4  A    between atoms: C8_11  and  N2_12 
REMARK    5  A    between atoms: C8_11  and  C22_31 
REMARK       I    between atoms: N2_12  and  C9_14 
REMARK    6  A    between atoms: C9_14  and  C10_16 
REMARK    7  A    between atoms: C10_16  and  N3_17 
REMARK    8  A    between atoms: C13_20  and  O3_21 
ROOT
HETATM    1  N2  UNL     1      18.517 -15.580  22.757  1.00  0.00    -0.353 N 
ATOM      2  H2  UNL     1      19.279 -15.271  22.153  1.00  0.00     0.163 HD
HETATM    3  C9  UNL     1      18.883 -16.290  23.896  1.00  0.00     0.247 C 
HETATM    4  O2  UNL     1      17.921 -16.662  24.638  1.00  0.00    -0.271 OA
ENDROOT
BRANCH   3   5
HETATM    5  C10 UNL     1      20.242 -16.665  24.352  1.00  0.00     0.125 A 
HETATM    6  C16 UNL     1      20.517 -18.162  24.509  1.00  0.00    -0.003 A 
HETATM    7  C17 UNL     1      21.401 -18.566  25.692  1.00  0.00     0.019 C 
HETATM    8  C18 UNL     1      19.445 -19.167  24.249  1.00  0.00     0.019 C 
HETATM    9  C19 UNL     1      21.116 -17.439  23.382  1.00  0.00    -0.003 A 
HETATM   10  C20 UNL     1      20.695 -17.571  21.963  1.00  0.00     0.019 C 
HETATM   11  C21 UNL     1      22.650 -17.328  23.513  1.00  0.00     0.019 C 
BRANCH   5  12
HETATM   12  N3  UNL     1      20.961 -15.793  25.226  1.00  0.00    -0.394 N 
HETATM   13  C11 UNL     1      20.398 -15.584  26.525  1.00  0.00     0.120 C 
HETATM   14  C12 UNL     1      20.769 -14.211  27.083  1.00  0.00     0.051 C 
HETATM   15  C13 UNL     1      22.273 -14.087  26.877  1.00  0.00     0.121 C 
HETATM   16  C14 UNL     1      22.478 -13.880  25.390  1.00  0.00     0.051 C 
HETATM   17  C15 UNL     1      21.425 -14.614  24.584  1.00  0.00     0.120 C 
BRANCH  15  18
HETATM   18  O3  UNL     1      22.887 -15.313  27.204  1.00  0.00    -0.395 OA
ATOM     19  H3  UNL     1      23.271 -15.688  26.421  1.00  0.00     0.210 HD
ENDBRANCH  15  18
ENDBRANCH   5  12
ENDBRANCH   3   5
BRANCH   1  20
HETATM   20  C8  UNL     1      17.186 -15.233  22.335  1.00  0.00     0.101 C 
BRANCH  20  21
HETATM   21  C2  UNL     1      17.061 -13.740  21.996  1.00  0.00     0.097 C 
HETATM   22  C1  UNL     1      18.234 -13.284  21.161  1.00  0.00     0.022 C 
BRANCH  21  23
HETATM   23  C3  UNL     1      15.820 -13.426  21.262  1.00  0.00     0.224 C 
HETATM   24  O1  UNL     1      14.754 -13.288  21.947  1.00  0.00    -0.273 OA
HETATM   25  N1  UNL     1      15.769 -13.270  19.853  1.00  0.00    -0.353 N 
ATOM     26  H1  UNL     1      16.626 -13.377  19.311  1.00  0.00     0.163 HD
BRANCH  25  27
HETATM   27  C4  UNL     1      14.552 -12.968  19.175  1.00  0.00     0.022 C 
HETATM   28  C5  UNL     1      14.879 -12.693  17.695  1.00  0.00     0.037 C 
HETATM   29  C6  UNL     1      13.535 -14.071  19.226  1.00  0.00     0.037 C 
HETATM   30  C7  UNL     1      13.892 -11.671  19.652  1.00  0.00     0.037 C 
ENDBRANCH  25  27
ENDBRANCH  21  23
ENDBRANCH  20  21
BRANCH  20  31
HETATM   31  C22 UNL     1      16.614 -16.005  21.235  1.00  0.00     0.009 A 
HETATM   32  C23 UNL     1      16.820 -17.394  20.887  1.00  0.00     0.007 A 
HETATM   33  C24 UNL     1      15.544 -17.028  21.596  1.00  0.00     0.007 A 
ENDBRANCH  20  31
ENDBRANCH   1  20
TORSDOF 8
ENDMDL
MODEL 4
REMARK VINA RESULT: -7.396095673      2.766      8.215
REMARK  8 active torsions:
REMARK  status: ('A' for Active; 'I' for Inactive)
REMARK    1  A    between atoms: C2_2  and  C3_3 
REMARK    2  A    between atoms: C2_2  and  C8_11 
REMARK       I    between atoms: C3_3  and  N1_5 
REMARK    3  A    between atoms: N1_5  and  C4_7 
REMARK    4  A    between atoms: C8_11  and  N2_12 
REMARK    5  A    between atoms: C8_11  and  C22_31 
REMARK       I    between atoms: N2_12  and  C9_14 
REMARK    6  A    between atoms: C9_14  and  C10_16 
REMARK    7  A    between atoms: C10_16  and  N3_17 
REMARK    8  A    between atoms: C13_20  and  O3_21 
ROOT
HETATM    1  N2  UNL     1      18.907 -14.131  22.555  1.00  0.00    -0.353 N 
ATOM      2  H2  UNL     1      18.520 -13.720  23.404  1.00  0.00     0.163 HD
HETATM    3  C9  UNL     1      19.808 -15.176  22.731  1.00  0.00     0.247 C 
HETATM    4  O2  UNL     1      20.275 -15.679  21.661  1.00  0.00    -0.271 OA
ENDROOT
BRANCH   3   5
HETATM    5  C10 UNL     1      20.290 -15.776  23.998  1.00  0.00     0.125 A 
HETATM    6  C16 UNL     1      19.246 -15.964  25.101  1.00  0.00    -0.003 A 
HETATM    7  C17 UNL     1      19.724 -15.710  26.533  1.00  0.00     0.019 C 
HETATM    8  C18 UNL     1      17.835 -15.521  24.900  1.00  0.00     0.019 C 
HETATM    9  C19 UNL     1      19.743 -17.140  24.378  1.00  0.00    -0.003 A 
HETATM   10  C20 UNL     1      18.964 -17.920  23.381  1.00  0.00     0.019 C 
HETATM   11  C21 UNL     1      20.595 -18.058  25.280  1.00  0.00     0.019 C 
BRANCH   5  12
HETATM   12  N3  UNL     1      21.631 -15.539  24.427  1.00  0.00    -0.394 N 
HETATM   13  C11 UNL     1      22.054 -14.172  24.475  1.00  0.00     0.120 C 
HETATM   14  C12 UNL     1      23.559 -14.042  24.247  1.00  0.00     0.051 C 
HETATM   15  C13 UNL     1      24.196 -15.069  25.175  1.00  0.00     0.121 C 
HETATM   16  C14 UNL     1      23.908 -16.425  24.563  1.00  0.00     0.051 C 
HETATM   17  C15 UNL     1      22.571 -16.430  23.846  1.00  0.00     0.120 C 
BRANCH  15  18
HETATM   18  O3  UNL     1      23.537 -15.038  26.420  1.00  0.00    -0.395 OA
ATOM     19  H3  UNL     1      23.516 -15.915  26.784  1.00  0.00     0.210 HD
ENDBRANCH  15  18
ENDBRANCH   5  12
ENDBRANCH   3   5
BRANCH   1  20
HETATM   20  C8  UNL     1      18.460 -13.565  21.310  1.00  0.00     0.101 C 
BRANCH  20  21
HETATM   21  C2  UNL     1      16.957 -13.249  21.330  1.00  0.00     0.097 C 
HETATM   22  C1  UNL     1      16.634 -12.135  20.363  1.00  0.00     0.022 C 
BRANCH  21  23
HETATM   23  C3  UNL     1      16.125 -14.418  20.985  1.00  0.00     0.224 C 
HETATM   24  O1  UNL     1      16.629 -15.573  21.179  1.00  0.00    -0.273 OA
HETATM   25  N1  UNL     1      14.812 -14.309  20.459  1.00  0.00    -0.353 N 
ATOM     26  H1  UNL     1      14.412 -13.382  20.311  1.00  0.00     0.163 HD
BRANCH  25  27
HETATM   27  C4  UNL     1      14.035 -15.460  20.134  1.00  0.00     0.022 C 
HETATM   28  C5  UNL     1      12.639 -14.989  19.685  1.00  0.00     0.037 C 
HETATM   29  C6  UNL     1      14.617 -16.297  19.032  1.00  0.00     0.037 C 
HETATM   30  C7  UNL     1      13.749 -16.363  21.338  1.00  0.00     0.037 C 
ENDBRANCH  25  27
ENDBRANCH  21  23
ENDBRANCH  20  21
BRANCH  20  31
HETATM   31  C22 UNL     1      19.172 -12.389  20.819  1.00  0.00     0.009 A 
HETATM   32  C23 UNL     1      20.595 -12.129  20.783  1.00  0.00     0.007 A 
HETATM   33  C24 UNL     1      19.921 -12.538  19.501  1.00  0.00     0.007 A 
ENDBRANCH  20  31
ENDBRANCH   1  20
TORSDOF 8
ENDMDL
MODEL 5
REMARK VINA RESULT: -7.327923098      2.602      7.856
REMARK  8 active torsions:
REMARK  status: ('A' for Active; 'I' for Inactive)
REMARK    1  A    between atoms: C2_2  and  C3_3 
REMARK    2  A    between atoms: C2_2  and  C8_11 
REMARK       I    between atoms: C3_3  and  N1_5 
REMARK    3  A    between atoms: N1_5  and  C4_7 
REMARK    4  A    between atoms: C8_11  and  N2_12 
REMARK    5  A    between atoms: C8_11  and  C22_31 
REMARK       I    between atoms: N2_12  and  C9_14 
REMARK    6  A    between atoms: C9_14  and  C10_16 
REMARK    7  A    between atoms: C10_16  and  N3_17 
REMARK    8  A    between atoms: C13_20  and  O3_21 
ROOT
HETATM    1  N2  UNL     1      18.654 -14.217  22.402  1.00  0.00    -0.353 N 
ATOM      2  H2  UNL     1      18.169 -13.914  23.246  1.00  0.00     0.163 HD
HETATM    3  C9  UNL     1      19.582 -15.241  22.557  1.00  0.00     0.247 C 
HETATM    4  O2  UNL     1      20.172 -15.608  21.493  1.00  0.00    -0.271 OA
ENDROOT
BRANCH   3   5
HETATM    5  C10 UNL     1      19.970 -15.954  23.798  1.00  0.00     0.125 A 
HETATM    6  C16 UNL     1      18.969 -16.981  24.332  1.00  0.00    -0.003 A 
HETATM    7  C17 UNL     1      18.834 -17.060  25.856  1.00  0.00     0.019 C 
HETATM    8  C18 UNL     1      17.663 -17.203  23.647  1.00  0.00     0.019 C 
HETATM    9  C19 UNL     1      20.206 -17.451  23.698  1.00  0.00    -0.003 A 
HETATM   10  C20 UNL     1      20.287 -18.092  22.360  1.00  0.00     0.019 C 
HETATM   11  C21 UNL     1      21.159 -18.122  24.711  1.00  0.00     0.019 C 
BRANCH   5  12
HETATM   12  N3  UNL     1      20.782 -15.293  24.769  1.00  0.00    -0.394 N 
HETATM   13  C11 UNL     1      20.165 -14.228  25.499  1.00  0.00     0.120 C 
HETATM   14  C12 UNL     1      21.189 -13.185  25.942  1.00  0.00     0.051 C 
HETATM   15  C13 UNL     1      22.326 -13.979  26.572  1.00  0.00     0.121 C 
HETATM   16  C14 UNL     1      23.051 -14.655  25.426  1.00  0.00     0.051 C 
HETATM   17  C15 UNL     1      22.094 -15.012  24.305  1.00  0.00     0.120 C 
BRANCH  15  18
HETATM   18  O3  UNL     1      21.784 -15.007  27.370  1.00  0.00    -0.395 OA
ATOM     19  H3  UNL     1      20.842 -14.896  27.425  1.00  0.00     0.210 HD
ENDBRANCH  15  18
ENDBRANCH   5  12
ENDBRANCH   3   5
BRANCH   1  20
HETATM   20  C8  UNL     1      18.300 -13.539  21.183  1.00  0.00     0.101 C 
BRANCH  20  21
HETATM   21  C2  UNL     1      16.815 -13.145  21.155  1.00  0.00     0.097 C 
HETATM   22  C1  UNL     1      16.570 -12.062  20.132  1.00  0.00     0.022 C 
BRANCH  21  23
HETATM   23  C3  UNL     1      15.931 -14.285  20.844  1.00  0.00     0.224 C 
HETATM   24  O1  UNL     1      16.438 -15.454  20.908  1.00  0.00    -0.273 OA
HETATM   25  N1  UNL     1      14.566 -14.135  20.488  1.00  0.00    -0.353 N 
ATOM     26  H1  UNL     1      14.165 -13.198  20.443  1.00  0.00     0.163 HD
BRANCH  25  27
HETATM   27  C4  UNL     1      13.739 -15.258  20.191  1.00  0.00     0.022 C 
HETATM   28  C5  UNL     1      12.308 -14.751  19.937  1.00  0.00     0.037 C 
HETATM   29  C6  UNL     1      14.176 -16.034  18.982  1.00  0.00     0.037 C 
HETATM   30  C7  UNL     1      13.583 -16.228  21.366  1.00  0.00     0.037 C 
ENDBRANCH  25  27
ENDBRANCH  21  23
ENDBRANCH  20  21
BRANCH  20  31
HETATM   31  C22 UNL     1      19.094 -12.369  20.818  1.00  0.00     0.009 A 
HETATM   32  C23 UNL     1      20.529 -12.188  20.853  1.00  0.00     0.007 A 
HETATM   33  C24 UNL     1      19.884 -12.451  19.519  1.00  0.00     0.007 A 
ENDBRANCH  20  31
ENDBRANCH   1  20
TORSDOF 8
ENDMDL
