MODEL 1
REMARK VINA RESULT: -8.373032159      0.000      0.000
REMARK  9 active torsions:
REMARK  status: ('A' for Active; 'I' for Inactive)
REMARK    1  A    between atoms: C2_2  and  O1_3 
REMARK    2  A    between atoms: O1_3  and  C3_4 
REMARK    3  A    between atoms: C3_4  and  C4_6 
REMARK    4  A    between atoms: C4_6  and  N1_7 
REMARK    5  A    between atoms: C4_6  and  C9_18 
REMARK       I    between atoms: N1_7  and  C5_9 
REMARK    6  A    between atoms: C5_9  and  C6_11 
REMARK    7  A    between atoms: N4_21  and  C12_22 
REMARK    8  A    between atoms: C12_22  and  N5_24 
REMARK    9  A    between atoms: N5_24  and  C13_26 
ROOT
HETATM    1  C4  UNL     1      14.857 -11.795  19.434  1.00  0.00     0.189 C 
ENDROOT
BRANCH   1   2
HETATM    2  C3  UNL     1      14.304 -11.728  18.078  1.00  0.00     0.282 C 
HETATM    3  O2  UNL     1      13.382 -10.914  17.804  1.00  0.00    -0.263 OA
BRANCH   2   4
HETATM    4  O1  UNL     1      14.755 -12.535  17.064  1.00  0.00    -0.320 OA
BRANCH   4   5
HETATM    5  C2  UNL     1      15.085 -12.123  15.773  1.00  0.00     0.174 C 
HETATM    6  C1  UNL     1      16.521 -11.730  15.639  1.00  0.00     0.034 C 
ENDBRANCH   4   5
ENDBRANCH   2   4
ENDBRANCH   1   2
BRANCH   1   7
HETATM    7  N1  UNL     1      13.833 -12.013  20.433  1.00  0.00    -0.340 N 
HETATM    8  C5  UNL     1      13.606 -11.101  21.506  1.00  0.00     0.286 C 
HETATM    9  O3  UNL     1      14.297 -10.070  21.618  1.00  0.00    -0.264 OA
ATOM     10  H1  UNL     1      13.254 -12.850  20.369  1.00  0.00     0.163 HD
BRANCH   8  11
HETATM   11  C6  UNL     1      12.553 -11.373  22.492  1.00  0.00     0.174 A 
HETATM   12  N2  UNL     1      11.757 -12.454  22.548  1.00  0.00    -0.346 N 
HETATM   13  C7  UNL     1      10.934 -12.321  23.588  1.00  0.00     0.107 A 
ATOM     14  H2  UNL     1      11.779 -13.244  21.904  1.00  0.00     0.167 HD
HETATM   15  C8  UNL     1      11.233 -11.120  24.190  1.00  0.00     0.107 A 
HETATM   16  N3  UNL     1      12.230 -10.560  23.496  1.00  0.00    -0.346 N 
ATOM     17  H3  UNL     1      12.669  -9.662  23.702  1.00  0.00     0.167 HD
ENDBRANCH   8  11
ENDBRANCH   1   7
BRANCH   1  18
HETATM   18  C9  UNL     1      16.020 -12.780  19.568  1.00  0.00     0.021 C 
HETATM   19  C10 UNL     1      17.094 -12.150  20.410  1.00  0.00     0.027 C 
HETATM   20  C11 UNL     1      17.889 -13.163  21.201  1.00  0.00     0.125 C 
HETATM   21  N4  UNL     1      17.080 -14.143  21.840  1.00  0.00    -0.358 N 
HETATM   22  C19 UNL     1      15.659 -14.167  21.590  1.00  0.00     0.125 C 
HETATM   23  C20 UNL     1      15.479 -14.060  20.092  1.00  0.00     0.027 C 
BRANCH  21  24
HETATM   24  C12 UNL     1      17.641 -15.101  22.721  1.00  0.00     0.170 C 
HETATM   25  S1  UNL     1      17.970 -16.639  22.207  1.00  0.00    -0.041 SA
BRANCH  24  26
HETATM   26  N5  UNL     1      17.950 -14.810  24.074  1.00  0.00    -0.363 N 
ATOM     27  H5  UNL     1      17.277 -14.294  24.641  1.00  0.00     0.162 HD
BRANCH  26  28
HETATM   28  C13 UNL     1      19.190 -15.226  24.659  1.00  0.00     0.083 C 
HETATM   29  C14 UNL     1      20.122 -14.066  24.935  1.00  0.00     0.025 C 
HETATM   30  C15 UNL     1      20.646 -14.189  26.357  1.00  0.00     0.002 C 
HETATM   31  C16 UNL     1      21.286 -15.552  26.506  1.00  0.00     0.000 C 
HETATM   32  C17 UNL     1      20.175 -16.579  26.506  1.00  0.00     0.002 C 
HETATM   33  C18 UNL     1      18.916 -16.013  25.898  1.00  0.00     0.025 C 
ENDBRANCH  26  28
ENDBRANCH  24  26
ENDBRANCH  21  24
ENDBRANCH   1  18
TORSDOF 9
ENDMDL
MODEL 2
REMARK VINA RESULT: -8.002354414      3.230      4.593
REMARK  9 active torsions:
REMARK  status: ('A' for Active; 'I' for Inactive)
REMARK    1  A    between atoms: C2_2  and  O1_3 
REMARK    2  A    between atoms: O1_3  and  C3_4 
REMARK    3  A    between atoms: C3_4  and  C4_6 
REMARK    4  A    between atoms: C4_6  and  N1_7 
REMARK    5  A    between atoms: C4_6  and  C9_18 
REMARK       I    between atoms: N1_7  and  C5_9 
REMARK    6  A    between atoms: C5_9  and  C6_11 
REMARK    7  A    between atoms: N4_21  and  C12_22 
REMARK    8  A    between atoms: C12_22  and  N5_24 
REMARK    9  A    between atoms: N5_24  and  C13_26 
ROOT
HETATM    1  C4  UNL     1      14.276 -14.260  21.113  1.00  0.00     0.189 C 
ENDROOT
BRANCH   1   2
HETATM    2  C3  UNL     1      13.632 -12.944  21.135  1.00  0.00     0.282 C 
HETATM    3  O2  UNL     1      13.373 -12.341  20.059  1.00  0.00    -0.263 OA
BRANCH   2   4
HETATM    4  O1  UNL     1      13.287 -12.318  22.307  1.00  0.00    -0.320 OA
BRANCH   4   5
HETATM    5  C2  UNL     1      12.720 -11.048  22.423  1.00  0.00     0.174 C 
HETATM    6  C1  UNL     1      11.634 -10.990  23.448  1.00  0.00     0.034 C 
ENDBRANCH   4   5
ENDBRANCH   2   4
ENDBRANCH   1   2
BRANCH   1   7
HETATM    7  N1  UNL     1      13.491 -15.242  20.396  1.00  0.00    -0.340 N 
HETATM    8  C5  UNL     1      13.005 -16.431  21.016  1.00  0.00     0.286 C 
HETATM    9  O3  UNL     1      13.249 -16.665  22.216  1.00  0.00    -0.264 OA
ATOM     10  H1  UNL     1      13.278 -15.079  19.413  1.00  0.00     0.163 HD
BRANCH   8  11
HETATM   11  C6  UNL     1      12.213 -17.393  20.241  1.00  0.00     0.174 A 
HETATM   12  N2  UNL     1      12.104 -18.714  20.458  1.00  0.00    -0.346 N 
HETATM   13  C7  UNL     1      11.293 -19.231  19.536  1.00  0.00     0.107 A 
ATOM     14  H2  UNL     1      12.566 -19.234  21.204  1.00  0.00     0.167 HD
HETATM   15  C8  UNL     1      10.890 -18.195  18.726  1.00  0.00     0.107 A 
HETATM   16  N3  UNL     1      11.469 -17.079  19.181  1.00  0.00    -0.346 N 
ATOM     17  H3  UNL     1      11.360 -16.145  18.784  1.00  0.00     0.167 HD
ENDBRANCH   8  11
ENDBRANCH   1   7
BRANCH   1  18
HETATM   18  C9  UNL     1      15.729 -14.217  20.635  1.00  0.00     0.021 C 
HETATM   19  C10 UNL     1      16.472 -13.185  21.437  1.00  0.00     0.027 C 
HETATM   20  C11 UNL     1      17.936 -13.520  21.611  1.00  0.00     0.125 C 
HETATM   21  N4  UNL     1      18.168 -14.879  21.961  1.00  0.00    -0.358 N 
HETATM   22  C19 UNL     1      17.061 -15.805  21.993  1.00  0.00     0.125 C 
HETATM   23  C20 UNL     1      16.280 -15.593  20.715  1.00  0.00     0.027 C 
BRANCH  21  24
HETATM   24  C12 UNL     1      19.466 -15.346  22.282  1.00  0.00     0.170 C 
HETATM   25  S1  UNL     1      19.945 -16.876  21.870  1.00  0.00    -0.041 SA
BRANCH  24  26
HETATM   26  N5  UNL     1      20.421 -14.550  22.963  1.00  0.00    -0.363 N 
ATOM     27  H5  UNL     1      20.862 -13.770  22.475  1.00  0.00     0.162 HD
BRANCH  26  28
HETATM   28  C13 UNL     1      20.779 -14.820  24.324  1.00  0.00     0.083 C 
HETATM   29  C14 UNL     1      21.698 -13.767  24.904  1.00  0.00     0.025 C 
HETATM   30  C15 UNL     1      21.156 -13.338  26.258  1.00  0.00     0.002 C 
HETATM   31  C16 UNL     1      21.004 -14.574  27.117  1.00  0.00     0.000 C 
HETATM   32  C17 UNL     1      19.841 -15.371  26.567  1.00  0.00     0.002 C 
HETATM   33  C18 UNL     1      19.539 -14.974  25.144  1.00  0.00     0.025 C 
ENDBRANCH  26  28
ENDBRANCH  24  26
ENDBRANCH  21  24
ENDBRANCH   1  18
TORSDOF 9
ENDMDL
MODEL 3
REMARK VINA RESULT: -7.920162000      2.911      3.686
REMARK  9 active torsions:
REMARK  status: ('A' for Active; 'I' for Inactive)
REMARK    1  A    between atoms: C2_2  and  O1_3 
REMARK    2  A    between atoms: O1_3  and  C3_4 
REMARK    3  A    between atoms: C3_4  and  C4_6 
REMARK    4  A    between atoms: C4_6  and  N1_7 
REMARK    5  A    between atoms: C4_6  and  C9_18 
REMARK       I    between atoms: N1_7  and  C5_9 
REMARK    6  A    between atoms: C5_9  and  C6_11 
REMARK    7  A    between atoms: N4_21  and  C12_22 
REMARK    8  A    between atoms: C12_22  and  N5_24 
REMARK    9  A    between atoms: N5_24  and  C13_26 
ROOT
HETATM    1  C4  UNL     1      14.150 -15.681  20.692  1.00  0.00     0.189 C 
ENDROOT
BRANCH   1   2
HETATM    2  C3  UNL     1      13.746 -17.031  21.092  1.00  0.00     0.282 C 
HETATM    3  O2  UNL     1      13.581 -17.314  22.309  1.00  0.00    -0.263 OA
BRANCH   2   4
HETATM    4  O1  UNL     1      13.534 -18.033  20.178  1.00  0.00    -0.320 OA
BRANCH   4   5
HETATM    5  C2  UNL     1      12.724 -17.951  19.045  1.00  0.00     0.174 C 
HETATM    6  C1  UNL     1      11.306 -17.612  19.370  1.00  0.00     0.034 C 
ENDBRANCH   4   5
ENDBRANCH   2   4
ENDBRANCH   1   2
BRANCH   1   7
HETATM    7  N1  UNL     1      13.665 -14.670  21.606  1.00  0.00    -0.340 N 
HETATM    8  C5  UNL     1      12.582 -13.801  21.278  1.00  0.00     0.286 C 
HETATM    9  O3  UNL     1      12.013 -13.887  20.173  1.00  0.00    -0.264 OA
ATOM     10  H1  UNL     1      14.112 -14.575  22.517  1.00  0.00     0.163 HD
BRANCH   8  11
HETATM   11  C6  UNL     1      12.130 -12.793  22.245  1.00  0.00     0.174 A 
HETATM   12  N2  UNL     1      11.147 -12.925  23.152  1.00  0.00    -0.346 N 
HETATM   13  C7  UNL     1      11.047 -11.786  23.836  1.00  0.00     0.107 A 
ATOM     14  H2  UNL     1      10.574 -13.757  23.292  1.00  0.00     0.167 HD
HETATM   15  C8  UNL     1      11.998 -10.927  23.336  1.00  0.00     0.107 A 
HETATM   16  N3  UNL     1      12.648 -11.571  22.361  1.00  0.00    -0.346 N 
ATOM     17  H3  UNL     1      13.411 -11.191  21.800  1.00  0.00     0.167 HD
ENDBRANCH   8  11
ENDBRANCH   1   7
BRANCH   1  18
HETATM   18  C9  UNL     1      15.652 -15.550  20.425  1.00  0.00     0.021 C 
HETATM   19  C10 UNL     1      16.185 -14.391  21.221  1.00  0.00     0.027 C 
HETATM   20  C11 UNL     1      17.627 -14.578  21.634  1.00  0.00     0.125 C 
HETATM   21  N4  UNL     1      17.906 -15.876  22.145  1.00  0.00    -0.358 N 
HETATM   22  C19 UNL     1      16.880 -16.891  22.108  1.00  0.00     0.125 C 
HETATM   23  C20 UNL     1      16.286 -16.860  20.717  1.00  0.00     0.027 C 
BRANCH  21  24
HETATM   24  C12 UNL     1      19.173 -16.197  22.692  1.00  0.00     0.170 C 
HETATM   25  S1  UNL     1      19.621 -17.772  22.931  1.00  0.00    -0.041 SA
BRANCH  24  26
HETATM   26  N5  UNL     1      20.119 -15.209  23.063  1.00  0.00    -0.363 N 
ATOM     27  H5  UNL     1      20.437 -14.533  22.368  1.00  0.00     0.162 HD
BRANCH  26  28
HETATM   28  C13 UNL     1      20.639 -15.141  24.397  1.00  0.00     0.083 C 
HETATM   29  C14 UNL     1      21.564 -13.962  24.603  1.00  0.00     0.025 C 
HETATM   30  C15 UNL     1      21.155 -13.237  25.875  1.00  0.00     0.002 C 
HETATM   31  C16 UNL     1      21.161 -14.238  27.009  1.00  0.00     0.000 C 
HETATM   32  C17 UNL     1      19.984 -15.166  26.802  1.00  0.00     0.002 C 
HETATM   33  C18 UNL     1      19.507 -15.124  25.372  1.00  0.00     0.025 C 
ENDBRANCH  26  28
ENDBRANCH  24  26
ENDBRANCH  21  24
ENDBRANCH   1  18
TORSDOF 9
ENDMDL
MODEL 4
REMARK VINA RESULT: -7.906568464      1.083      1.449
REMARK  9 active torsions:
REMARK  status: ('A' for Active; 'I' for Inactive)
REMARK    1  A    between atoms: C2_2  and  O1_3 
REMARK    2  A    between atoms: O1_3  and  C3_4 
REMARK    3  A    between atoms: C3_4  and  C4_6 
REMARK    4  A    between atoms: C4_6  and  N1_7 
REMARK    5  A    between atoms: C4_6  and  C9_18 
REMARK       I    between atoms: N1_7  and  C5_9 
REMARK    6  A    between atoms: C5_9  and  C6_11 
REMARK    7  A    between atoms: N4_21  and  C12_22 
REMARK    8  A    between atoms: C12_22  and  N5_24 
REMARK    9  A    between atoms: N5_24  and  C13_26 
ROOT
HETATM    1  C4  UNL     1      14.959 -11.873  19.433  1.00  0.00     0.189 C 
ENDROOT
BRANCH   1   2
HETATM    2  C3  UNL     1      14.403 -11.834  18.078  1.00  0.00     0.282 C 
HETATM    3  O2  UNL     1      13.511 -10.996  17.777  1.00  0.00    -0.263 OA
BRANCH   2   4
HETATM    4  O1  UNL     1      14.820 -12.692  17.091  1.00  0.00    -0.320 OA
BRANCH   4   5
HETATM    5  C2  UNL     1      15.233 -12.329  15.809  1.00  0.00     0.174 C 
HETATM    6  C1  UNL     1      16.570 -11.661  15.800  1.00  0.00     0.034 C 
ENDBRANCH   4   5
ENDBRANCH   2   4
ENDBRANCH   1   2
BRANCH   1   7
HETATM    7  N1  UNL     1      13.943 -12.115  20.435  1.00  0.00    -0.340 N 
HETATM    8  C5  UNL     1      13.618 -11.156  21.440  1.00  0.00     0.286 C 
HETATM    9  O3  UNL     1      14.212 -10.061  21.487  1.00  0.00    -0.264 OA
ATOM     10  H1  UNL     1      13.441 -13.002  20.423  1.00  0.00     0.163 HD
BRANCH   8  11
HETATM   11  C6  UNL     1      12.577 -11.454  22.431  1.00  0.00     0.174 A 
HETATM   12  N2  UNL     1      11.817 -12.560  22.499  1.00  0.00    -0.346 N 
HETATM   13  C7  UNL     1      10.994 -12.445  23.541  1.00  0.00     0.107 A 
ATOM     14  H2  UNL     1      11.862 -13.353  21.861  1.00  0.00     0.167 HD
HETATM   15  C8  UNL     1      11.256 -11.231  24.132  1.00  0.00     0.107 A 
HETATM   16  N3  UNL     1      12.231 -10.644  23.431  1.00  0.00    -0.346 N 
ATOM     17  H3  UNL     1      12.642  -9.731  23.628  1.00  0.00     0.167 HD
ENDBRANCH   8  11
ENDBRANCH   1   7
BRANCH   1  18
HETATM   18  C9  UNL     1      16.150 -12.823  19.574  1.00  0.00     0.021 C 
HETATM   19  C10 UNL     1      17.339 -12.039  20.057  1.00  0.00     0.027 C 
HETATM   20  C11 UNL     1      18.285 -12.865  20.898  1.00  0.00     0.125 C 
HETATM   21  N4  UNL     1      17.623 -13.669  21.867  1.00  0.00    -0.358 N 
HETATM   22  C19 UNL     1      16.181 -13.726  21.881  1.00  0.00     0.125 C 
HETATM   23  C20 UNL     1      15.740 -13.948  20.452  1.00  0.00     0.027 C 
BRANCH  21  24
HETATM   24  C12 UNL     1      18.351 -14.418  22.825  1.00  0.00     0.170 C 
HETATM   25  S1  UNL     1      20.000 -14.533  22.739  1.00  0.00    -0.041 SA
BRANCH  24  26
HETATM   26  N5  UNL     1      17.727 -15.103  23.897  1.00  0.00    -0.363 N 
ATOM     27  H5  UNL     1      16.811 -14.796  24.223  1.00  0.00     0.162 HD
BRANCH  26  28
HETATM   28  C13 UNL     1      18.360 -16.221  24.534  1.00  0.00     0.083 C 
HETATM   29  C14 UNL     1      18.943 -15.868  25.885  1.00  0.00     0.025 C 
HETATM   30  C15 UNL     1      18.502 -16.915  26.895  1.00  0.00     0.002 C 
HETATM   31  C16 UNL     1      18.913 -18.274  26.374  1.00  0.00     0.000 C 
HETATM   32  C17 UNL     1      18.022 -18.600  25.196  1.00  0.00     0.002 C 
HETATM   33  C18 UNL     1      17.388 -17.351  24.637  1.00  0.00     0.025 C 
ENDBRANCH  26  28
ENDBRANCH  24  26
ENDBRANCH  21  24
ENDBRANCH   1  18
TORSDOF 9
ENDMDL
MODEL 5
REMARK VINA RESULT: -7.891369118      3.392      4.346
REMARK  9 active torsions:
REMARK  status: ('A' for Active; 'I' for Inactive)
REMARK    1  A    between atoms: C2_2  and  O1_3 
REMARK    2  A    between atoms: O1_3  and  C3_4 
REMARK    3  A    between atoms: C3_4  and  C4_6 
REMARK    4  A    between atoms: C4_6  and  N1_7 
REMARK    5  A    between atoms: C4_6  and  C9_18 
REMARK       I    between atoms: N1_7  and  C5_9 
REMARK    6  A    between atoms: C5_9  and  C6_11 
REMARK    7  A    between atoms: N4_21  and  C12_22 
REMARK    8  A    between atoms: C12_22  and  N5_24 
REMARK    9  A    between atoms: N5_24  and  C13_26 
ROOT
HETATM    1  C4  UNL     1      14.300 -14.581  21.162  1.00  0.00     0.189 C 
ENDROOT
BRANCH   1   2
HETATM    2  C3  UNL     1      13.621 -13.283  21.174  1.00  0.00     0.282 C 
HETATM    3  O2  UNL     1      13.485 -12.643  22.251  1.00  0.00    -0.263 OA
BRANCH   2   4
HETATM    4  O1  UNL     1      13.110 -12.714  20.034  1.00  0.00    -0.320 OA
BRANCH   4   5
HETATM    5  C2  UNL     1      13.715 -11.713  19.274  1.00  0.00     0.174 C 
HETATM    6  C1  UNL     1      14.544 -12.255  18.155  1.00  0.00     0.034 C 
ENDBRANCH   4   5
ENDBRANCH   2   4
ENDBRANCH   1   2
BRANCH   1   7
HETATM    7  N1  UNL     1      13.535 -15.594  20.468  1.00  0.00    -0.340 N 
HETATM    8  C5  UNL     1      13.138 -16.813  21.093  1.00  0.00     0.286 C 
HETATM    9  O3  UNL     1      13.446 -17.048  22.277  1.00  0.00    -0.264 OA
ATOM     10  H1  UNL     1      13.270 -15.431  19.497  1.00  0.00     0.163 HD
BRANCH   8  11
HETATM   11  C6  UNL     1      12.361 -17.806  20.340  1.00  0.00     0.174 A 
HETATM   12  N2  UNL     1      11.779 -17.639  19.141  1.00  0.00    -0.346 N 
HETATM   13  C7  UNL     1      11.170 -18.774  18.803  1.00  0.00     0.107 A 
ATOM     14  H2  UNL     1      11.801 -16.785  18.583  1.00  0.00     0.167 HD
HETATM   15  C8  UNL     1      11.384 -19.669  19.827  1.00  0.00     0.107 A 
HETATM   16  N3  UNL     1      12.117 -19.048  20.757  1.00  0.00    -0.346 N 
ATOM     17  H3  UNL     1      12.436 -19.456  21.635  1.00  0.00     0.167 HD
ENDBRANCH   8  11
ENDBRANCH   1   7
BRANCH   1  18
HETATM   18  C9  UNL     1      15.747 -14.506  20.668  1.00  0.00     0.021 C 
HETATM   19  C10 UNL     1      16.465 -13.431  21.435  1.00  0.00     0.027 C 
HETATM   20  C11 UNL     1      17.940 -13.715  21.601  1.00  0.00     0.125 C 
HETATM   21  N4  UNL     1      18.218 -15.056  21.984  1.00  0.00    -0.358 N 
HETATM   22  C19 UNL     1      17.141 -16.015  22.053  1.00  0.00     0.125 C 
HETATM   23  C20 UNL     1      16.341 -15.862  20.778  1.00  0.00     0.027 C 
BRANCH  21  24
HETATM   24  C12 UNL     1      19.534 -15.475  22.303  1.00  0.00     0.170 C 
HETATM   25  S1  UNL     1      20.060 -16.995  21.916  1.00  0.00    -0.041 SA
BRANCH  24  26
HETATM   26  N5  UNL     1      20.466 -14.634  22.962  1.00  0.00    -0.363 N 
ATOM     27  H5  UNL     1      20.900 -13.868  22.447  1.00  0.00     0.162 HD
BRANCH  26  28
HETATM   28  C13 UNL     1      20.811 -14.841  24.337  1.00  0.00     0.083 C 
HETATM   29  C14 UNL     1      21.715 -13.756  24.880  1.00  0.00     0.025 C 
HETATM   30  C15 UNL     1      21.155 -13.273  26.208  1.00  0.00     0.002 C 
HETATM   31  C16 UNL     1      21.004 -14.472  27.119  1.00  0.00     0.000 C 
HETATM   32  C17 UNL     1      19.853 -15.302  26.592  1.00  0.00     0.002 C 
HETATM   33  C18 UNL     1      19.564 -14.970  25.149  1.00  0.00     0.025 C 
ENDBRANCH  26  28
ENDBRANCH  24  26
ENDBRANCH  21  24
ENDBRANCH   1  18
TORSDOF 9
ENDMDL
