MODEL 1
REMARK VINA RESULT: -7.684933810      0.000      0.000
REMARK  6 active torsions:
REMARK  status: ('A' for Active; 'I' for Inactive)
REMARK    1  A    between atoms: C2_2  and  C3_3 
REMARK       I    between atoms: N1_5  and  C5_6 
REMARK       I    between atoms: C5_6  and  N4_11 
REMARK       I    between atoms: N4_11  and  C7_13 
REMARK    2  A    between atoms: C7_13  and  C8_15 
REMARK    3  A    between atoms: C8_15  and  N5_17 
REMARK       I    between atoms: N5_17  and  C10_19 
REMARK       I    between atoms: C10_19  and  N6_21 
REMARK    4  A    between atoms: N6_21  and  C11_23 
REMARK    5  A    between atoms: C18_30  and  C19_31 
REMARK    6  A    between atoms: C19_31  and  N7_32 
ROOT
HETATM    1  C3  UNL     1      15.650 -12.400  19.626  1.00  0.00     0.010 C 
HETATM    2  C4  UNL     1      15.401 -13.336  20.752  1.00  0.00     0.146 C 
HETATM    3  N1  UNL     1      14.963 -14.655  20.415  1.00  0.00    -0.217 N 
HETATM    4  C5  UNL     1      14.509 -15.520  21.446  1.00  0.00     0.692 C 
HETATM    5  N2  UNL     1      13.260 -15.409  21.857  1.00  0.00    -0.126 N 
ATOM      6  H2  UNL     1      12.898 -16.016  22.592  1.00  0.00     0.197 HD
HETATM    7  C6  UNL     1      12.454 -14.457  21.274  1.00  0.00     0.196 C 
HETATM    8  N3  UNL     1      11.753 -13.645  20.800  1.00  0.00    -0.171 NA
HETATM    9  N4  UNL     1      15.329 -16.494  22.063  1.00  0.00    -0.157 N 
ATOM     10  H4  UNL     1      14.878 -17.045  22.793  1.00  0.00     0.187 HD
HETATM   11  C7  UNL     1      16.655 -16.803  21.819  1.00  0.00     0.258 C 
HETATM   12  O1  UNL     1      17.336 -16.212  20.965  1.00  0.00    -0.270 OA
HETATM   13  C16 UNL     1      14.952 -15.104  19.059  1.00  0.00     0.141 C 
HETATM   14  C17 UNL     1      14.454 -14.043  18.102  1.00  0.00     0.027 C 
HETATM   15  C18 UNL     1      15.080 -12.711  18.320  1.00  0.00     0.021 C 
ENDROOT
BRANCH  11  16
HETATM   16  C8  UNL     1      17.343 -17.894  22.584  1.00  0.00     0.175 C 
HETATM   17  C9  UNL     1      17.460 -19.158  21.785  1.00  0.00     0.042 C 
BRANCH  16  18
HETATM   18  N5  UNL     1      18.646 -17.455  23.005  1.00  0.00    -0.330 N 
HETATM   19  C10 UNL     1      18.810 -16.691  24.184  1.00  0.00     0.317 C 
HETATM   20  O2  UNL     1      17.825 -16.381  24.876  1.00  0.00    -0.247 OA
HETATM   21  N6  UNL     1      20.134 -16.275  24.569  1.00  0.00    -0.339 N 
ATOM     22  H6  UNL     1      20.934 -16.536  23.993  1.00  0.00     0.164 HD
ATOM     23  H5  UNL     1      19.463 -17.697  22.446  1.00  0.00     0.165 HD
BRANCH  21  24
HETATM   24  C11 UNL     1      20.336 -15.492  25.766  1.00  0.00     0.086 C 
HETATM   25  C12 UNL     1      21.699 -15.726  26.366  1.00  0.00     0.025 C 
HETATM   26  C13 UNL     1      21.974 -14.485  27.161  1.00  0.00     0.002 C 
HETATM   27  C14 UNL     1      21.172 -13.388  26.546  1.00  0.00     0.002 C 
HETATM   28  C15 UNL     1      20.319 -14.024  25.481  1.00  0.00     0.025 C 
ENDBRANCH  21  24
ENDBRANCH  16  18
ENDBRANCH  11  16
BRANCH   1  29
HETATM   29  C2  UNL     1      17.058 -11.895  19.728  1.00  0.00     0.002 C 
HETATM   30  C1  UNL     1      17.927 -12.479  20.770  1.00  0.00     0.005 C 
ENDBRANCH   1  29
BRANCH  15  31
HETATM   31  C19 UNL     1      15.975 -12.401  17.139  1.00  0.00     0.276 C 
BRANCH  31  32
HETATM   32  N7  UNL     1      15.264 -12.508  15.877  1.00  0.00     0.080 N 
HETATM   33  C20 UNL     1      16.096 -13.341  14.996  1.00  0.00     0.309 C 
HETATM   34  C21 UNL     1      14.993 -11.287  15.211  1.00  0.00     0.309 C 
ENDBRANCH  31  32
ENDBRANCH  15  31
TORSDOF 6
ENDMDL
MODEL 2
REMARK VINA RESULT: -7.258338483      1.696      2.443
REMARK  6 active torsions:
REMARK  status: ('A' for Active; 'I' for Inactive)
REMARK    1  A    between atoms: C2_2  and  C3_3 
REMARK       I    between atoms: N1_5  and  C5_6 
REMARK       I    between atoms: C5_6  and  N4_11 
REMARK       I    between atoms: N4_11  and  C7_13 
REMARK    2  A    between atoms: C7_13  and  C8_15 
REMARK    3  A    between atoms: C8_15  and  N5_17 
REMARK       I    between atoms: N5_17  and  C10_19 
REMARK       I    between atoms: C10_19  and  N6_21 
REMARK    4  A    between atoms: N6_21  and  C11_23 
REMARK    5  A    between atoms: C18_30  and  C19_31 
REMARK    6  A    between atoms: C19_31  and  N7_32 
ROOT
HETATM    1  C3  UNL     1      13.077 -14.117  20.762  1.00  0.00     0.010 C 
HETATM    2  C4  UNL     1      13.289 -15.448  21.387  1.00  0.00     0.146 C 
HETATM    3  N1  UNL     1      14.063 -16.397  20.647  1.00  0.00    -0.217 N 
HETATM    4  C5  UNL     1      14.120 -17.744  21.094  1.00  0.00     0.692 C 
HETATM    5  N2  UNL     1      13.138 -18.561  20.759  1.00  0.00    -0.126 N 
ATOM      6  H2  UNL     1      13.148 -19.536  21.058  1.00  0.00     0.197 HD
HETATM    7  C6  UNL     1      12.100 -18.071  19.999  1.00  0.00     0.196 C 
HETATM    8  N3  UNL     1      11.200 -17.672  19.362  1.00  0.00    -0.171 NA
HETATM    9  N4  UNL     1      15.173 -18.259  21.886  1.00  0.00    -0.157 N 
ATOM     10  H4  UNL     1      15.088 -19.242  22.141  1.00  0.00     0.187 HD
HETATM   11  C7  UNL     1      16.301 -17.617  22.366  1.00  0.00     0.258 C 
HETATM   12  O1  UNL     1      16.537 -16.418  22.143  1.00  0.00    -0.270 OA
HETATM   13  C16 UNL     1      14.756 -16.017  19.458  1.00  0.00     0.141 C 
HETATM   14  C17 UNL     1      13.937 -15.096  18.580  1.00  0.00     0.027 C 
HETATM   15  C18 UNL     1      13.304 -13.975  19.328  1.00  0.00     0.021 C 
ENDROOT
BRANCH  11  16
HETATM   16  C8  UNL     1      17.315 -18.356  23.186  1.00  0.00     0.175 C 
HETATM   17  C9  UNL     1      17.668 -19.685  22.587  1.00  0.00     0.042 C 
BRANCH  16  18
HETATM   18  N5  UNL     1      18.500 -17.556  23.344  1.00  0.00    -0.330 N 
HETATM   19  C10 UNL     1      18.599 -16.601  24.383  1.00  0.00     0.317 C 
HETATM   20  O2  UNL     1      17.657 -16.433  25.177  1.00  0.00    -0.247 OA
HETATM   21  N6  UNL     1      19.806 -15.825  24.505  1.00  0.00    -0.339 N 
ATOM     22  H6  UNL     1      20.572 -15.972  23.848  1.00  0.00     0.164 HD
ATOM     23  H5  UNL     1      19.279 -17.679  22.699  1.00  0.00     0.165 HD
BRANCH  21  24
HETATM   24  C11 UNL     1      19.938 -14.839  25.553  1.00  0.00     0.086 C 
HETATM   25  C12 UNL     1      20.817 -15.329  26.676  1.00  0.00     0.025 C 
HETATM   26  C13 UNL     1      21.328 -14.077  27.322  1.00  0.00     0.002 C 
HETATM   27  C14 UNL     1      21.296 -13.007  26.283  1.00  0.00     0.002 C 
HETATM   28  C15 UNL     1      20.630 -13.603  25.072  1.00  0.00     0.025 C 
ENDBRANCH  21  24
ENDBRANCH  16  18
ENDBRANCH  11  16
BRANCH   1  29
HETATM   29  C2  UNL     1      13.571 -13.064  21.706  1.00  0.00     0.002 C 
HETATM   30  C1  UNL     1      12.573 -12.167  22.325  1.00  0.00     0.005 C 
ENDBRANCH   1  29
BRANCH  15  31
HETATM   31  C19 UNL     1      13.970 -12.682  18.909  1.00  0.00     0.276 C 
BRANCH  31  32
HETATM   32  N7  UNL     1      15.276 -12.912  18.315  1.00  0.00     0.080 N 
HETATM   33  C20 UNL     1      16.250 -12.202  19.158  1.00  0.00     0.309 C 
HETATM   34  C21 UNL     1      15.438 -12.472  16.979  1.00  0.00     0.309 C 
ENDBRANCH  31  32
ENDBRANCH  15  31
TORSDOF 6
ENDMDL
MODEL 3
REMARK VINA RESULT: -7.212509862      3.776      5.577
REMARK  6 active torsions:
REMARK  status: ('A' for Active; 'I' for Inactive)
REMARK    1  A    between atoms: C2_2  and  C3_3 
REMARK       I    between atoms: N1_5  and  C5_6 
REMARK       I    between atoms: C5_6  and  N4_11 
REMARK       I    between atoms: N4_11  and  C7_13 
REMARK    2  A    between atoms: C7_13  and  C8_15 
REMARK    3  A    between atoms: C8_15  and  N5_17 
REMARK       I    between atoms: N5_17  and  C10_19 
REMARK       I    between atoms: C10_19  and  N6_21 
REMARK    4  A    between atoms: N6_21  and  C11_23 
REMARK    5  A    between atoms: C18_30  and  C19_31 
REMARK    6  A    between atoms: C19_31  and  N7_32 
ROOT
HETATM    1  C3  UNL     1      11.777 -18.665  19.812  1.00  0.00     0.010 C 
HETATM    2  C4  UNL     1      12.635 -18.129  20.900  1.00  0.00     0.146 C 
HETATM    3  N1  UNL     1      14.023 -18.472  20.861  1.00  0.00    -0.217 N 
HETATM    4  C5  UNL     1      14.845 -18.168  21.979  1.00  0.00     0.692 C 
HETATM    5  N2  UNL     1      14.856 -19.007  22.998  1.00  0.00    -0.126 N 
ATOM      6  H2  UNL     1      15.437 -18.823  23.816  1.00  0.00     0.197 HD
HETATM    7  C6  UNL     1      14.067 -20.133  22.937  1.00  0.00     0.196 C 
HETATM    8  N3  UNL     1      13.394 -21.093  22.911  1.00  0.00    -0.171 NA
HETATM    9  N4  UNL     1      15.650 -17.008  22.062  1.00  0.00    -0.157 N 
ATOM     10  H4  UNL     1      16.187 -16.910  22.923  1.00  0.00     0.187 HD
HETATM   11  C7  UNL     1      15.810 -15.987  21.142  1.00  0.00     0.258 C 
HETATM   12  O1  UNL     1      15.215 -15.965  20.052  1.00  0.00    -0.270 OA
HETATM   13  C16 UNL     1      14.587 -19.134  19.728  1.00  0.00     0.141 C 
HETATM   14  C17 UNL     1      13.685 -20.221  19.184  1.00  0.00     0.027 C 
HETATM   15  C18 UNL     1      12.270 -19.787  19.022  1.00  0.00     0.021 C 
ENDROOT
BRANCH  11  16
HETATM   16  C8  UNL     1      16.734 -14.840  21.422  1.00  0.00     0.175 C 
HETATM   17  C9  UNL     1      16.154 -13.526  20.987  1.00  0.00     0.042 C 
BRANCH  16  18
HETATM   18  N5  UNL     1      17.057 -14.796  22.823  1.00  0.00    -0.330 N 
HETATM   19  C10 UNL     1      18.400 -14.863  23.262  1.00  0.00     0.317 C 
HETATM   20  O2  UNL     1      19.327 -14.965  22.440  1.00  0.00    -0.247 OA
HETATM   21  N6  UNL     1      18.676 -14.813  24.675  1.00  0.00    -0.339 N 
ATOM     22  H6  UNL     1      17.907 -14.728  25.339  1.00  0.00     0.164 HD
ATOM     23  H5  UNL     1      16.307 -14.717  23.509  1.00  0.00     0.165 HD
BRANCH  21  24
HETATM   24  C11 UNL     1      20.037 -14.881  25.157  1.00  0.00     0.086 C 
HETATM   25  C12 UNL     1      20.671 -13.516  25.240  1.00  0.00     0.025 C 
HETATM   26  C13 UNL     1      21.756 -13.671  26.262  1.00  0.00     0.002 C 
HETATM   27  C14 UNL     1      21.356 -14.799  27.153  1.00  0.00     0.002 C 
HETATM   28  C15 UNL     1      20.106 -15.393  26.560  1.00  0.00     0.025 C 
ENDBRANCH  21  24
ENDBRANCH  16  18
ENDBRANCH  11  16
BRANCH   1  29
HETATM   29  C2  UNL     1      11.093 -17.516  19.136  1.00  0.00     0.002 C 
HETATM   30  C1  UNL     1      11.818 -16.231  19.053  1.00  0.00     0.005 C 
ENDBRANCH   1  29
BRANCH  15  31
HETATM   31  C19 UNL     1      11.956 -19.718  17.543  1.00  0.00     0.276 C 
BRANCH  31  32
HETATM   32  N7  UNL     1      11.286 -20.919  17.074  1.00  0.00     0.080 N 
HETATM   33  C20 UNL     1      10.556 -20.542  15.854  1.00  0.00     0.309 C 
HETATM   34  C21 UNL     1      10.370 -21.512  17.977  1.00  0.00     0.309 C 
ENDBRANCH  31  32
ENDBRANCH  15  31
TORSDOF 6
ENDMDL
MODEL 4
REMARK VINA RESULT: -7.203195900      2.057      8.524
REMARK  6 active torsions:
REMARK  status: ('A' for Active; 'I' for Inactive)
REMARK    1  A    between atoms: C2_2  and  C3_3 
REMARK       I    between atoms: N1_5  and  C5_6 
REMARK       I    between atoms: C5_6  and  N4_11 
REMARK       I    between atoms: N4_11  and  C7_13 
REMARK    2  A    between atoms: C7_13  and  C8_15 
REMARK    3  A    between atoms: C8_15  and  N5_17 
REMARK       I    between atoms: N5_17  and  C10_19 
REMARK       I    between atoms: C10_19  and  N6_21 
REMARK    4  A    between atoms: N6_21  and  C11_23 
REMARK    5  A    between atoms: C18_30  and  C19_31 
REMARK    6  A    between atoms: C19_31  and  N7_32 
ROOT
HETATM    1  C3  UNL     1      19.933 -14.549  22.258  1.00  0.00     0.010 C 
HETATM    2  C4  UNL     1      18.690 -14.913  21.532  1.00  0.00     0.146 C 
HETATM    3  N1  UNL     1      17.528 -15.177  22.325  1.00  0.00    -0.217 N 
HETATM    4  C5  UNL     1      16.377 -15.731  21.706  1.00  0.00     0.692 C 
HETATM    5  N2  UNL     1      16.325 -17.038  21.526  1.00  0.00    -0.126 N 
ATOM      6  H2  UNL     1      15.513 -17.471  21.088  1.00  0.00     0.197 HD
HETATM    7  C6  UNL     1      17.391 -17.805  21.940  1.00  0.00     0.196 C 
HETATM    8  N3  UNL     1      18.293 -18.476  22.274  1.00  0.00    -0.171 NA
HETATM    9  N4  UNL     1      15.280 -14.955  21.263  1.00  0.00    -0.157 N 
ATOM     10  H4  UNL     1      14.520 -15.479  20.831  1.00  0.00     0.187 HD
HETATM   11  C7  UNL     1      15.093 -13.586  21.331  1.00  0.00     0.258 C 
HETATM   12  O1  UNL     1      15.936 -12.817  21.824  1.00  0.00    -0.270 OA
HETATM   13  C16 UNL     1      17.519 -14.915  23.729  1.00  0.00     0.141 C 
HETATM   14  C17 UNL     1      18.812 -15.324  24.402  1.00  0.00     0.027 C 
HETATM   15  C18 UNL     1      20.027 -14.856  23.681  1.00  0.00     0.021 C 
ENDROOT
BRANCH  11  16
HETATM   16  C8  UNL     1      13.837 -12.955  20.811  1.00  0.00     0.175 C 
HETATM   17  C9  UNL     1      13.119 -12.167  21.867  1.00  0.00     0.042 C 
BRANCH  16  18
HETATM   18  N5  UNL     1      14.138 -12.111  19.686  1.00  0.00    -0.330 N 
HETATM   19  C10 UNL     1      14.315 -12.656  18.394  1.00  0.00     0.317 C 
HETATM   20  O2  UNL     1      14.218 -13.882  18.209  1.00  0.00    -0.247 OA
HETATM   21  N6  UNL     1      14.613 -11.772  17.296  1.00  0.00    -0.339 N 
ATOM     22  H6  UNL     1      14.689 -10.769  17.460  1.00  0.00     0.164 HD
ATOM     23  H5  UNL     1      14.225 -11.104  19.823  1.00  0.00     0.165 HD
BRANCH  21  24
HETATM   24  C11 UNL     1      14.802 -12.299  15.964  1.00  0.00     0.086 C 
HETATM   25  C12 UNL     1      14.832 -11.204  14.928  1.00  0.00     0.025 C 
HETATM   26  C13 UNL     1      15.602 -11.794  13.785  1.00  0.00     0.002 C 
HETATM   27  C14 UNL     1      16.489 -12.848  14.356  1.00  0.00     0.002 C 
HETATM   28  C15 UNL     1      16.130 -12.969  15.813  1.00  0.00     0.025 C 
ENDBRANCH  21  24
ENDBRANCH  16  18
ENDBRANCH  11  16
BRANCH   1  29
HETATM   29  C2  UNL     1      20.415 -13.226  21.744  1.00  0.00     0.002 C 
HETATM   30  C1  UNL     1      19.933 -12.781  20.420  1.00  0.00     0.005 C 
ENDBRANCH   1  29
BRANCH  15  31
HETATM   31  C19 UNL     1      20.707 -13.797  24.522  1.00  0.00     0.276 C 
BRANCH  31  32
HETATM   32  N7  UNL     1      21.476 -14.379  25.608  1.00  0.00     0.080 N 
HETATM   33  C20 UNL     1      21.169 -13.589  26.810  1.00  0.00     0.309 C 
HETATM   34  C21 UNL     1      22.882 -14.398  25.434  1.00  0.00     0.309 C 
ENDBRANCH  31  32
ENDBRANCH  15  31
TORSDOF 6
ENDMDL
MODEL 5
REMARK VINA RESULT: -7.055240052      3.179      8.295
REMARK  6 active torsions:
REMARK  status: ('A' for Active; 'I' for Inactive)
REMARK    1  A    between atoms: C2_2  and  C3_3 
REMARK       I    between atoms: N1_5  and  C5_6 
REMARK       I    between atoms: C5_6  and  N4_11 
REMARK       I    between atoms: N4_11  and  C7_13 
REMARK    2  A    between atoms: C7_13  and  C8_15 
REMARK    3  A    between atoms: C8_15  and  N5_17 
REMARK       I    between atoms: N5_17  and  C10_19 
REMARK       I    between atoms: C10_19  and  N6_21 
REMARK    4  A    between atoms: N6_21  and  C11_23 
REMARK    5  A    between atoms: C18_30  and  C19_31 
REMARK    6  A    between atoms: C19_31  and  N7_32 
ROOT
HETATM    1  C3  UNL     1      20.430 -17.615  24.326  1.00  0.00     0.010 C 
HETATM    2  C4  UNL     1      19.167 -18.324  23.999  1.00  0.00     0.146 C 
HETATM    3  N1  UNL     1      17.958 -17.782  24.540  1.00  0.00    -0.217 N 
HETATM    4  C5  UNL     1      16.756 -18.529  24.438  1.00  0.00     0.692 C 
HETATM    5  N2  UNL     1      16.519 -19.467  25.336  1.00  0.00    -0.126 N 
ATOM      6  H2  UNL     1      15.664 -20.021  25.297  1.00  0.00     0.197 HD
HETATM    7  C6  UNL     1      17.450 -19.684  26.327  1.00  0.00     0.196 C 
HETATM    8  N3  UNL     1      18.235 -19.894  27.173  1.00  0.00    -0.171 NA
HETATM    9  N4  UNL     1      15.796 -18.328  23.418  1.00  0.00    -0.157 N 
ATOM     10  H4  UNL     1      14.979 -18.936  23.460  1.00  0.00     0.187 HD
HETATM   11  C7  UNL     1      15.809 -17.422  22.372  1.00  0.00     0.258 C 
HETATM   12  O1  UNL     1      16.741 -16.622  22.188  1.00  0.00    -0.270 OA
HETATM   13  C16 UNL     1      17.950 -16.515  25.199  1.00  0.00     0.141 C 
HETATM   14  C17 UNL     1      19.150 -16.323  26.101  1.00  0.00     0.027 C 
HETATM   15  C18 UNL     1      20.440 -16.688  25.453  1.00  0.00     0.021 C 
ENDROOT
BRANCH  11  16
HETATM   16  C8  UNL     1      14.673 -17.360  21.396  1.00  0.00     0.175 C 
HETATM   17  C9  UNL     1      14.086 -18.713  21.124  1.00  0.00     0.042 C 
BRANCH  16  18
HETATM   18  N5  UNL     1      13.654 -16.469  21.882  1.00  0.00    -0.330 N 
HETATM   19  C10 UNL     1      13.575 -15.134  21.423  1.00  0.00     0.317 C 
HETATM   20  O2  UNL     1      14.393 -14.705  20.591  1.00  0.00    -0.247 OA
HETATM   21  N6  UNL     1      12.535 -14.279  21.935  1.00  0.00    -0.339 N 
ATOM     22  H6  UNL     1      11.870 -14.643  22.617  1.00  0.00     0.164 HD
ATOM     23  H5  UNL     1      12.978 -16.806  22.568  1.00  0.00     0.165 HD
BRANCH  21  24
HETATM   24  C11 UNL     1      12.429 -12.909  21.489  1.00  0.00     0.086 C 
HETATM   25  C12 UNL     1      11.425 -12.131  22.300  1.00  0.00     0.025 C 
HETATM   26  C13 UNL     1      11.851 -10.702  22.151  1.00  0.00     0.002 C 
HETATM   27  C14 UNL     1      13.313 -10.714  21.853  1.00  0.00     0.002 C 
HETATM   28  C15 UNL     1      13.707 -12.157  21.687  1.00  0.00     0.025 C 
ENDBRANCH  21  24
ENDBRANCH  16  18
ENDBRANCH  11  16
BRANCH   1  29
HETATM   29  C2  UNL     1      21.113 -17.243  23.045  1.00  0.00     0.002 C 
HETATM   30  C1  UNL     1      20.267 -16.878  21.891  1.00  0.00     0.005 C 
ENDBRANCH   1  29
BRANCH  15  31
HETATM   31  C19 UNL     1      21.244 -15.424  25.237  1.00  0.00     0.276 C 
BRANCH  31  32
HETATM   32  N7  UNL     1      21.312 -14.613  26.441  1.00  0.00     0.080 N 
HETATM   33  C20 UNL     1      21.186 -13.213  26.010  1.00  0.00     0.309 C 
HETATM   34  C21 UNL     1      22.496 -14.739  27.208  1.00  0.00     0.309 C 
ENDBRANCH  31  32
ENDBRANCH  15  31
TORSDOF 6
ENDMDL
