MODEL 1
REMARK VINA RESULT: -8.964199003      0.000      0.000
REMARK  17 active torsions:
REMARK  status: ('A' for Active; 'I' for Inactive)
REMARK    1  A    between atoms: C2_2  and  O1_3 
REMARK    2  A    between atoms: O1_3  and  C3_4 
REMARK    3  A    between atoms: C3_4  and  C4_6 
REMARK    4  A    between atoms: C4_6  and  C5_7 
REMARK    5  A    between atoms: C5_7  and  C6_8 
REMARK    6  A    between atoms: C6_8  and  N1_9 
REMARK    7  A    between atoms: C6_8  and  C12_18 
REMARK       I    between atoms: N1_9  and  C7_11 
REMARK    8  A    between atoms: C7_11  and  O4_13 
REMARK    9  A    between atoms: O4_13  and  C8_14 
REMARK       I    between atoms: C12_18  and  N2_20 
REMARK   10  A    between atoms: N2_20  and  C13_22 
REMARK   11  A    between atoms: C13_22  and  C14_23 
REMARK   12  A    between atoms: C13_22  and  C30_47 
REMARK       I    between atoms: C14_23  and  N3_25 
REMARK   13  A    between atoms: N3_25  and  C15_27 
REMARK   14  A    between atoms: C15_27  and  C16_28 
REMARK   15  A    between atoms: C15_27  and  C27_44 
REMARK       I    between atoms: C16_28  and  N4_30 
REMARK       I    between atoms: N5_34  and  C20_35 
REMARK   16  A    between atoms: C20_35  and  O9_37 
REMARK   17  A    between atoms: O9_37  and  C21_38 
ROOT
HETATM    1  C13 UNL     1      10.161  25.682   4.490  1.00  0.00     0.184 C 
ENDROOT
BRANCH   1   2
HETATM    2  N2  UNL     1       9.332  25.491   5.665  1.00  0.00    -0.342 N 
HETATM    3  C12 UNL     1       8.717  26.539   6.386  1.00  0.00     0.264 C 
HETATM    4  O5  UNL     1       8.892  27.709   5.969  1.00  0.00    -0.266 OA
ATOM      5  H2  UNL     1       9.184  24.536   5.992  1.00  0.00     0.163 HD
BRANCH   3   6
HETATM    6  C6  UNL     1       7.887  26.311   7.599  1.00  0.00     0.082 C 
BRANCH   6   7
HETATM    7  C5  UNL     1       8.519  25.516   8.666  1.00  0.00     0.073 C 
BRANCH   7   8
HETATM    8  C4  UNL     1       9.941  25.738   8.998  1.00  0.00     0.117 C 
BRANCH   8   9
HETATM    9  C3  UNL     1      10.252  27.031   9.659  1.00  0.00     0.259 C 
HETATM   10  O2  UNL     1      11.328  27.659   9.441  1.00  0.00    -0.265 OA
BRANCH   9  11
HETATM   11  O1  UNL     1       9.362  27.621  10.560  1.00  0.00    -0.322 OA
BRANCH  11  12
HETATM   12  C2  UNL     1       8.966  28.969  10.539  1.00  0.00     0.174 C 
HETATM   13  C1  UNL     1       7.674  29.062   9.737  1.00  0.00     0.034 C 
ENDBRANCH  11  12
ENDBRANCH   9  11
ENDBRANCH   8   9
ENDBRANCH   7   8
ENDBRANCH   6   7
BRANCH   6  14
HETATM   14  N1  UNL     1       6.518  26.037   7.336  1.00  0.00    -0.301 N 
HETATM   15  C7  UNL     1       5.504  26.997   7.044  1.00  0.00     0.365 C 
HETATM   16  O3  UNL     1       5.755  28.226   6.991  1.00  0.00    -0.238 OA
ATOM     17  H1  UNL     1       6.233  25.058   7.356  1.00  0.00     0.171 HD
BRANCH  15  18
HETATM   18  O4  UNL     1       4.195  26.641   6.805  1.00  0.00    -0.294 OA
BRANCH  18  19
HETATM   19  C8  UNL     1       3.558  26.434   5.603  1.00  0.00     0.061 C 
HETATM   20  C9  UNL     1       2.672  25.186   5.755  1.00  0.00     0.046 C 
HETATM   21  C10 UNL     1       4.456  26.187   4.424  1.00  0.00     0.046 C 
HETATM   22  C11 UNL     1       2.631  27.577   5.265  1.00  0.00     0.046 C 
ENDBRANCH  18  19
ENDBRANCH  15  18
ENDBRANCH   6  14
ENDBRANCH   3   6
ENDBRANCH   1   2
BRANCH   1  23
HETATM   23  C14 UNL     1      11.480  25.043   4.639  1.00  0.00     0.241 C 
HETATM   24  O6  UNL     1      12.506  25.664   4.195  1.00  0.00    -0.271 OA
HETATM   25  N3  UNL     1      11.611  23.780   5.257  1.00  0.00    -0.346 N 
ATOM     26  H3  UNL     1      10.777  23.293   5.588  1.00  0.00     0.163 HD
BRANCH  25  27
HETATM   27  C15 UNL     1      12.933  23.154   5.431  1.00  0.00     0.180 C 
BRANCH  27  28
HETATM   28  C16 UNL     1      13.093  22.692   6.825  1.00  0.00     0.243 C 
HETATM   29  O7  UNL     1      11.995  22.500   7.459  1.00  0.00    -0.271 OA
HETATM   30  N4  UNL     1      14.279  22.447   7.508  1.00  0.00    -0.346 N 
HETATM   31  C17 UNL     1      15.556  22.733   6.888  1.00  0.00     0.128 C 
HETATM   32  C26 UNL     1      14.174  21.883   8.839  1.00  0.00     0.170 C 
HETATM   33  C18 UNL     1      16.541  23.222   7.949  1.00  0.00     0.040 C 
HETATM   34  C19 UNL     1      17.312  22.139   8.611  1.00  0.00     0.135 C 
HETATM   35  N5  UNL     1      16.506  21.091   9.146  1.00  0.00    -0.306 N 
HETATM   36  C20 UNL     1      17.262  20.210  10.007  1.00  0.00     0.367 C 
HETATM   37  C25 UNL     1      15.149  20.737   9.014  1.00  0.00     0.089 C 
HETATM   38  O8  UNL     1      18.468  20.372  10.259  1.00  0.00    -0.238 OA
BRANCH  36  39
HETATM   39  O9  UNL     1      16.628  19.117  10.595  1.00  0.00    -0.294 OA
BRANCH  39  40
HETATM   40  C21 UNL     1      17.118  17.821  10.670  1.00  0.00     0.061 C 
HETATM   41  C22 UNL     1      15.903  16.916  10.934  1.00  0.00     0.046 C 
HETATM   42  C23 UNL     1      18.066  17.560  11.813  1.00  0.00     0.046 C 
HETATM   43  C24 UNL     1      17.777  17.400   9.386  1.00  0.00     0.046 C 
ENDBRANCH  39  40
ENDBRANCH  36  39
ENDBRANCH  27  28
BRANCH  27  44
HETATM   44  C27 UNL     1      12.942  21.856   4.572  1.00  0.00     0.009 C 
HETATM   45  C28 UNL     1      13.948  21.936   3.465  1.00  0.00     0.012 C 
HETATM   46  C29 UNL     1      11.596  21.617   3.966  1.00  0.00     0.012 C 
ENDBRANCH  27  44
ENDBRANCH  25  27
ENDBRANCH   1  23
BRANCH   1  47
HETATM   47  C30 UNL     1       9.438  25.106   3.260  1.00  0.00    -0.022 C 
HETATM   48  C31 UNL     1      10.393  24.715   2.180  1.00  0.00     0.017 C 
HETATM   49  C32 UNL     1       8.517  26.165   2.687  1.00  0.00     0.017 C 
HETATM   50  C33 UNL     1       8.599  23.906   3.621  1.00  0.00     0.017 C 
ENDBRANCH   1  47
TORSDOF 17
ENDMDL
MODEL 2
REMARK VINA RESULT: -8.285559920      0.651      1.175
REMARK  17 active torsions:
REMARK  status: ('A' for Active; 'I' for Inactive)
REMARK    1  A    between atoms: C2_2  and  O1_3 
REMARK    2  A    between atoms: O1_3  and  C3_4 
REMARK    3  A    between atoms: C3_4  and  C4_6 
REMARK    4  A    between atoms: C4_6  and  C5_7 
REMARK    5  A    between atoms: C5_7  and  C6_8 
REMARK    6  A    between atoms: C6_8  and  N1_9 
REMARK    7  A    between atoms: C6_8  and  C12_18 
REMARK       I    between atoms: N1_9  and  C7_11 
REMARK    8  A    between atoms: C7_11  and  O4_13 
REMARK    9  A    between atoms: O4_13  and  C8_14 
REMARK       I    between atoms: C12_18  and  N2_20 
REMARK   10  A    between atoms: N2_20  and  C13_22 
REMARK   11  A    between atoms: C13_22  and  C14_23 
REMARK   12  A    between atoms: C13_22  and  C30_47 
REMARK       I    between atoms: C14_23  and  N3_25 
REMARK   13  A    between atoms: N3_25  and  C15_27 
REMARK   14  A    between atoms: C15_27  and  C16_28 
REMARK   15  A    between atoms: C15_27  and  C27_44 
REMARK       I    between atoms: C16_28  and  N4_30 
REMARK       I    between atoms: N5_34  and  C20_35 
REMARK   16  A    between atoms: C20_35  and  O9_37 
REMARK   17  A    between atoms: O9_37  and  C21_38 
ROOT
HETATM    1  C13 UNL     1       9.984  25.749   4.417  1.00  0.00     0.184 C 
ENDROOT
BRANCH   1   2
HETATM    2  N2  UNL     1       9.167  25.574   5.603  1.00  0.00    -0.342 N 
HETATM    3  C12 UNL     1       8.529  26.629   6.295  1.00  0.00     0.264 C 
HETATM    4  O5  UNL     1       8.673  27.790   5.840  1.00  0.00    -0.266 OA
ATOM      5  H2  UNL     1       9.044  24.627   5.960  1.00  0.00     0.163 HD
BRANCH   3   6
HETATM    6  C6  UNL     1       7.712  26.419   7.519  1.00  0.00     0.082 C 
BRANCH   6   7
HETATM    7  C5  UNL     1       8.383  25.708   8.621  1.00  0.00     0.073 C 
BRANCH   7   8
HETATM    8  C4  UNL     1       8.769  26.447   9.840  1.00  0.00     0.117 C 
BRANCH   8   9
HETATM    9  C3  UNL     1       9.436  27.754   9.615  1.00  0.00     0.259 C 
HETATM   10  O2  UNL     1       8.874  28.854   9.882  1.00  0.00    -0.265 OA
BRANCH   9  11
HETATM   11  O1  UNL     1      10.730  27.830   9.091  1.00  0.00    -0.322 OA
BRANCH  11  12
HETATM   12  C2  UNL     1      11.710  26.829   9.212  1.00  0.00     0.174 C 
HETATM   13  C1  UNL     1      11.859  26.157   7.854  1.00  0.00     0.034 C 
ENDBRANCH  11  12
ENDBRANCH   9  11
ENDBRANCH   8   9
ENDBRANCH   7   8
ENDBRANCH   6   7
BRANCH   6  14
HETATM   14  N1  UNL     1       6.358  26.065   7.272  1.00  0.00    -0.301 N 
HETATM   15  C7  UNL     1       5.227  26.929   7.369  1.00  0.00     0.365 C 
HETATM   16  O3  UNL     1       5.344  28.136   7.693  1.00  0.00    -0.238 OA
ATOM     17  H1  UNL     1       6.178  25.100   6.998  1.00  0.00     0.171 HD
BRANCH  15  18
HETATM   18  O4  UNL     1       3.944  26.498   7.115  1.00  0.00    -0.294 OA
BRANCH  18  19
HETATM   19  C8  UNL     1       3.178  26.670   5.984  1.00  0.00     0.061 C 
HETATM   20  C9  UNL     1       2.472  25.335   5.693  1.00  0.00     0.046 C 
HETATM   21  C10 UNL     1       3.931  27.042   4.739  1.00  0.00     0.046 C 
HETATM   22  C11 UNL     1       2.088  27.691   6.205  1.00  0.00     0.046 C 
ENDBRANCH  18  19
ENDBRANCH  15  18
ENDBRANCH   6  14
ENDBRANCH   3   6
ENDBRANCH   1   2
BRANCH   1  23
HETATM   23  C14 UNL     1      11.282  25.060   4.539  1.00  0.00     0.241 C 
HETATM   24  O6  UNL     1      12.324  25.652   4.094  1.00  0.00    -0.271 OA
HETATM   25  N3  UNL     1      11.373  23.782   5.133  1.00  0.00    -0.346 N 
ATOM     26  H3  UNL     1      10.527  23.320   5.465  1.00  0.00     0.163 HD
BRANCH  25  27
HETATM   27  C15 UNL     1      12.674  23.106   5.279  1.00  0.00     0.180 C 
BRANCH  27  28
HETATM   28  C16 UNL     1      12.867  22.683   6.681  1.00  0.00     0.243 C 
HETATM   29  O7  UNL     1      11.784  22.487   7.340  1.00  0.00    -0.271 OA
HETATM   30  N4  UNL     1      14.069  22.477   7.348  1.00  0.00    -0.346 N 
HETATM   31  C17 UNL     1      15.330  22.770   6.699  1.00  0.00     0.128 C 
HETATM   32  C26 UNL     1      13.999  21.945   8.695  1.00  0.00     0.170 C 
HETATM   33  C18 UNL     1      16.324  23.304   7.728  1.00  0.00     0.040 C 
HETATM   34  C19 UNL     1      17.127  22.253   8.403  1.00  0.00     0.135 C 
HETATM   35  N5  UNL     1      16.350  21.204   8.979  1.00  0.00    -0.306 N 
HETATM   36  C20 UNL     1      17.137  20.360   9.848  1.00  0.00     0.367 C 
HETATM   37  C25 UNL     1      14.998  20.822   8.881  1.00  0.00     0.089 C 
HETATM   38  O8  UNL     1      18.345  20.550  10.074  1.00  0.00    -0.238 OA
BRANCH  36  39
HETATM   39  O9  UNL     1      16.535  19.270  10.475  1.00  0.00    -0.294 OA
BRANCH  39  40
HETATM   40  C21 UNL     1      17.088  18.010  10.651  1.00  0.00     0.061 C 
HETATM   41  C22 UNL     1      15.917  17.070  10.985  1.00  0.00     0.046 C 
HETATM   42  C23 UNL     1      18.043  17.886  11.811  1.00  0.00     0.046 C 
HETATM   43  C24 UNL     1      17.770  17.523   9.403  1.00  0.00     0.046 C 
ENDBRANCH  39  40
ENDBRANCH  36  39
ENDBRANCH  27  28
BRANCH  27  44
HETATM   44  C27 UNL     1      12.595  21.781   4.465  1.00  0.00     0.009 C 
HETATM   45  C28 UNL     1      13.688  21.698   3.444  1.00  0.00     0.012 C 
HETATM   46  C29 UNL     1      11.283  21.676   3.757  1.00  0.00     0.012 C 
ENDBRANCH  27  44
ENDBRANCH  25  27
ENDBRANCH   1  23
BRANCH   1  47
HETATM   47  C30 UNL     1       9.223  25.216   3.192  1.00  0.00    -0.022 C 
HETATM   48  C31 UNL     1      10.147  24.792   2.097  1.00  0.00     0.017 C 
HETATM   49  C32 UNL     1       8.342  26.317   2.638  1.00  0.00     0.017 C 
HETATM   50  C33 UNL     1       8.336  24.050   3.554  1.00  0.00     0.017 C 
ENDBRANCH   1  47
TORSDOF 17
ENDMDL
MODEL 3
REMARK VINA RESULT: -8.000971800      2.883     12.401
REMARK  17 active torsions:
REMARK  status: ('A' for Active; 'I' for Inactive)
REMARK    1  A    between atoms: C2_2  and  O1_3 
REMARK    2  A    between atoms: O1_3  and  C3_4 
REMARK    3  A    between atoms: C3_4  and  C4_6 
REMARK    4  A    between atoms: C4_6  and  C5_7 
REMARK    5  A    between atoms: C5_7  and  C6_8 
REMARK    6  A    between atoms: C6_8  and  N1_9 
REMARK    7  A    between atoms: C6_8  and  C12_18 
REMARK       I    between atoms: N1_9  and  C7_11 
REMARK    8  A    between atoms: C7_11  and  O4_13 
REMARK    9  A    between atoms: O4_13  and  C8_14 
REMARK       I    between atoms: C12_18  and  N2_20 
REMARK   10  A    between atoms: N2_20  and  C13_22 
REMARK   11  A    between atoms: C13_22  and  C14_23 
REMARK   12  A    between atoms: C13_22  and  C30_47 
REMARK       I    between atoms: C14_23  and  N3_25 
REMARK   13  A    between atoms: N3_25  and  C15_27 
REMARK   14  A    between atoms: C15_27  and  C16_28 
REMARK   15  A    between atoms: C15_27  and  C27_44 
REMARK       I    between atoms: C16_28  and  N4_30 
REMARK       I    between atoms: N5_34  and  C20_35 
REMARK   16  A    between atoms: C20_35  and  O9_37 
REMARK   17  A    between atoms: O9_37  and  C21_38 
ROOT
HETATM    1  C13 UNL     1      16.622  21.201   7.028  1.00  0.00     0.184 C 
ENDROOT
BRANCH   1   2
HETATM    2  N2  UNL     1      16.955  19.792   7.127  1.00  0.00    -0.342 N 
HETATM    3  C12 UNL     1      18.092  19.198   6.535  1.00  0.00     0.264 C 
HETATM    4  O5  UNL     1      18.869  19.947   5.895  1.00  0.00    -0.266 OA
ATOM      5  H2  UNL     1      16.325  19.191   7.659  1.00  0.00     0.163 HD
BRANCH   3   6
HETATM    6  C6  UNL     1      18.396  17.746   6.639  1.00  0.00     0.082 C 
BRANCH   6   7
HETATM    7  C5  UNL     1      18.294  16.980   5.384  1.00  0.00     0.073 C 
BRANCH   7   8
HETATM    8  C4  UNL     1      19.404  16.096   4.975  1.00  0.00     0.117 C 
BRANCH   8   9
HETATM    9  C3  UNL     1      19.336  14.702   5.482  1.00  0.00     0.259 C 
HETATM   10  O2  UNL     1      19.917  13.743   4.900  1.00  0.00    -0.265 OA
BRANCH   9  11
HETATM   11  O1  UNL     1      18.618  14.383   6.638  1.00  0.00    -0.322 OA
BRANCH  11  12
HETATM   12  C2  UNL     1      18.801  13.219   7.406  1.00  0.00     0.174 C 
HETATM   13  C1  UNL     1      19.973  13.463   8.348  1.00  0.00     0.034 C 
ENDBRANCH  11  12
ENDBRANCH   9  11
ENDBRANCH   8   9
ENDBRANCH   7   8
ENDBRANCH   6   7
BRANCH   6  14
HETATM   14  N1  UNL     1      17.883  17.117   7.805  1.00  0.00    -0.301 N 
HETATM   15  C7  UNL     1      18.619  16.787   8.982  1.00  0.00     0.365 C 
HETATM   16  O3  UNL     1      19.844  17.044   9.087  1.00  0.00    -0.238 OA
ATOM     17  H1  UNL     1      16.892  16.879   7.801  1.00  0.00     0.171 HD
BRANCH  15  18
HETATM   18  O4  UNL     1      18.039  16.171  10.068  1.00  0.00    -0.294 OA
BRANCH  18  19
HETATM   19  C8  UNL     1      17.510  16.736  11.206  1.00  0.00     0.061 C 
HETATM   20  C9  UNL     1      15.999  16.447  11.207  1.00  0.00     0.046 C 
HETATM   21  C10 UNL     1      17.666  18.224  11.327  1.00  0.00     0.046 C 
HETATM   22  C11 UNL     1      18.068  16.094  12.453  1.00  0.00     0.046 C 
ENDBRANCH  18  19
ENDBRANCH  15  18
ENDBRANCH   6  14
ENDBRANCH   3   6
ENDBRANCH   1   2
BRANCH   1  23
HETATM   23  C14 UNL     1      15.214  21.406   6.644  1.00  0.00     0.241 C 
HETATM   24  O6  UNL     1      14.313  20.762   7.285  1.00  0.00    -0.271 OA
HETATM   25  N3  UNL     1      14.866  22.290   5.598  1.00  0.00    -0.346 N 
ATOM     26  H3  UNL     1      15.602  22.779   5.089  1.00  0.00     0.163 HD
BRANCH  25  27
HETATM   27  C15 UNL     1      13.457  22.515   5.233  1.00  0.00     0.180 C 
BRANCH  27  28
HETATM   28  C16 UNL     1      13.107  23.937   5.428  1.00  0.00     0.243 C 
HETATM   29  O7  UNL     1      13.692  24.751   4.628  1.00  0.00    -0.271 OA
HETATM   30  N4  UNL     1      12.231  24.475   6.364  1.00  0.00    -0.346 N 
HETATM   31  C17 UNL     1      11.609  23.628   7.361  1.00  0.00     0.128 C 
HETATM   32  C26 UNL     1      11.960  25.896   6.279  1.00  0.00     0.170 C 
HETATM   33  C18 UNL     1      11.458  24.403   8.668  1.00  0.00     0.040 C 
HETATM   34  C19 UNL     1      10.186  25.162   8.785  1.00  0.00     0.135 C 
HETATM   35  N5  UNL     1       9.915  26.021   7.679  1.00  0.00    -0.306 N 
HETATM   36  C20 UNL     1       8.826  26.930   7.953  1.00  0.00     0.367 C 
HETATM   37  C25 UNL     1      10.475  26.168   6.395  1.00  0.00     0.089 C 
HETATM   38  O8  UNL     1       8.219  26.962   9.037  1.00  0.00    -0.238 OA
BRANCH  36  39
HETATM   39  O9  UNL     1       8.415  27.825   6.966  1.00  0.00    -0.294 OA
BRANCH  39  40
HETATM   40  C21 UNL     1       7.194  27.825   6.308  1.00  0.00     0.061 C 
HETATM   41  C22 UNL     1       7.509  28.020   4.815  1.00  0.00     0.046 C 
HETATM   42  C23 UNL     1       6.270  28.960   6.673  1.00  0.00     0.046 C 
HETATM   43  C24 UNL     1       6.463  26.524   6.492  1.00  0.00     0.046 C 
ENDBRANCH  39  40
ENDBRANCH  36  39
ENDBRANCH  27  28
BRANCH  27  44
HETATM   44  C27 UNL     1      13.338  22.276   3.700  1.00  0.00     0.009 C 
HETATM   45  C28 UNL     1      11.944  21.887   3.311  1.00  0.00     0.012 C 
HETATM   46  C29 UNL     1      14.267  21.190   3.263  1.00  0.00     0.012 C 
ENDBRANCH  27  44
ENDBRANCH  25  27
ENDBRANCH   1  23
BRANCH   1  47
HETATM   47  C30 UNL     1      16.900  21.883   8.378  1.00  0.00    -0.022 C 
HETATM   48  C31 UNL     1      16.383  23.285   8.415  1.00  0.00     0.017 C 
HETATM   49  C32 UNL     1      18.397  21.948   8.602  1.00  0.00     0.017 C 
HETATM   50  C33 UNL     1      16.291  21.114   9.525  1.00  0.00     0.017 C 
ENDBRANCH   1  47
TORSDOF 17
ENDMDL
MODEL 4
REMARK VINA RESULT: -7.979713194      2.877     11.856
REMARK  17 active torsions:
REMARK  status: ('A' for Active; 'I' for Inactive)
REMARK    1  A    between atoms: C2_2  and  O1_3 
REMARK    2  A    between atoms: O1_3  and  C3_4 
REMARK    3  A    between atoms: C3_4  and  C4_6 
REMARK    4  A    between atoms: C4_6  and  C5_7 
REMARK    5  A    between atoms: C5_7  and  C6_8 
REMARK    6  A    between atoms: C6_8  and  N1_9 
REMARK    7  A    between atoms: C6_8  and  C12_18 
REMARK       I    between atoms: N1_9  and  C7_11 
REMARK    8  A    between atoms: C7_11  and  O4_13 
REMARK    9  A    between atoms: O4_13  and  C8_14 
REMARK       I    between atoms: C12_18  and  N2_20 
REMARK   10  A    between atoms: N2_20  and  C13_22 
REMARK   11  A    between atoms: C13_22  and  C14_23 
REMARK   12  A    between atoms: C13_22  and  C30_47 
REMARK       I    between atoms: C14_23  and  N3_25 
REMARK   13  A    between atoms: N3_25  and  C15_27 
REMARK   14  A    between atoms: C15_27  and  C16_28 
REMARK   15  A    between atoms: C15_27  and  C27_44 
REMARK       I    between atoms: C16_28  and  N4_30 
REMARK       I    between atoms: N5_34  and  C20_35 
REMARK   16  A    between atoms: C20_35  and  O9_37 
REMARK   17  A    between atoms: O9_37  and  C21_38 
ROOT
HETATM    1  C13 UNL     1      16.504  21.203   7.054  1.00  0.00     0.184 C 
ENDROOT
BRANCH   1   2
HETATM    2  N2  UNL     1      16.835  19.795   7.164  1.00  0.00    -0.342 N 
HETATM    3  C12 UNL     1      18.042  19.221   6.703  1.00  0.00     0.264 C 
HETATM    4  O5  UNL     1      18.884  19.989   6.177  1.00  0.00    -0.266 OA
ATOM      5  H2  UNL     1      16.151  19.179   7.603  1.00  0.00     0.163 HD
BRANCH   3   6
HETATM    6  C6  UNL     1      18.344  17.770   6.814  1.00  0.00     0.082 C 
BRANCH   6   7
HETATM    7  C5  UNL     1      18.164  16.983   5.581  1.00  0.00     0.073 C 
BRANCH   7   8
HETATM    8  C4  UNL     1      18.873  17.383   4.349  1.00  0.00     0.117 C 
BRANCH   8   9
HETATM    9  C3  UNL     1      18.055  18.105   3.341  1.00  0.00     0.259 C 
HETATM   10  O2  UNL     1      18.485  18.362   2.181  1.00  0.00    -0.265 OA
BRANCH   9  11
HETATM   11  O1  UNL     1      16.759  18.539   3.633  1.00  0.00    -0.322 OA
BRANCH  11  12
HETATM   12  C2  UNL     1      15.583  17.986   3.097  1.00  0.00     0.174 C 
HETATM   13  C1  UNL     1      14.671  17.617   4.259  1.00  0.00     0.034 C 
ENDBRANCH  11  12
ENDBRANCH   9  11
ENDBRANCH   8   9
ENDBRANCH   7   8
ENDBRANCH   6   7
BRANCH   6  14
HETATM   14  N1  UNL     1      17.898  17.164   8.018  1.00  0.00    -0.301 N 
HETATM   15  C7  UNL     1      18.704  16.832   9.148  1.00  0.00     0.365 C 
HETATM   16  O3  UNL     1      19.938  17.065   9.169  1.00  0.00    -0.238 OA
ATOM     17  H1  UNL     1      16.904  16.945   8.083  1.00  0.00     0.171 HD
BRANCH  15  18
HETATM   18  O4  UNL     1      18.187  16.238  10.277  1.00  0.00    -0.294 OA
BRANCH  18  19
HETATM   19  C8  UNL     1      17.471  16.808  11.306  1.00  0.00     0.061 C 
HETATM   20  C9  UNL     1      15.985  16.488  11.071  1.00  0.00     0.046 C 
HETATM   21  C10 UNL     1      17.578  18.301  11.425  1.00  0.00     0.046 C 
HETATM   22  C11 UNL     1      17.834  16.195  12.638  1.00  0.00     0.046 C 
ENDBRANCH  18  19
ENDBRANCH  15  18
ENDBRANCH   6  14
ENDBRANCH   3   6
ENDBRANCH   1   2
BRANCH   1  23
HETATM   23  C14 UNL     1      15.095  21.407   6.672  1.00  0.00     0.241 C 
HETATM   24  O6  UNL     1      14.201  20.715   7.270  1.00  0.00    -0.271 OA
HETATM   25  N3  UNL     1      14.740  22.341   5.673  1.00  0.00    -0.346 N 
ATOM     26  H3  UNL     1      15.470  22.869   5.196  1.00  0.00     0.163 HD
BRANCH  25  27
HETATM   27  C15 UNL     1      13.329  22.563   5.311  1.00  0.00     0.180 C 
BRANCH  27  28
HETATM   28  C16 UNL     1      12.985  23.990   5.479  1.00  0.00     0.243 C 
HETATM   29  O7  UNL     1      13.521  24.779   4.622  1.00  0.00    -0.271 OA
HETATM   30  N4  UNL     1      12.159  24.556   6.444  1.00  0.00    -0.346 N 
HETATM   31  C17 UNL     1      11.597  23.741   7.501  1.00  0.00     0.128 C 
HETATM   32  C26 UNL     1      11.879  25.973   6.329  1.00  0.00     0.170 C 
HETATM   33  C18 UNL     1      11.516  24.557   8.789  1.00  0.00     0.040 C 
HETATM   34  C19 UNL     1      10.249  25.316   8.952  1.00  0.00     0.135 C 
HETATM   35  N5  UNL     1       9.913  26.139   7.835  1.00  0.00    -0.306 N 
HETATM   36  C20 UNL     1       8.837  27.054   8.139  1.00  0.00     0.367 C 
HETATM   37  C25 UNL     1      10.401  26.246   6.518  1.00  0.00     0.089 C 
HETATM   38  O8  UNL     1       8.292  27.120   9.254  1.00  0.00    -0.238 OA
BRANCH  36  39
HETATM   39  O9  UNL     1       8.370  27.915   7.148  1.00  0.00    -0.294 OA
BRANCH  39  40
HETATM   40  C21 UNL     1       7.092  27.936   6.608  1.00  0.00     0.061 C 
HETATM   41  C22 UNL     1       7.271  28.043   5.084  1.00  0.00     0.046 C 
HETATM   42  C23 UNL     1       6.251  29.125   6.997  1.00  0.00     0.046 C 
HETATM   43  C24 UNL     1       6.333  26.678   6.928  1.00  0.00     0.046 C 
ENDBRANCH  39  40
ENDBRANCH  36  39
ENDBRANCH  27  28
BRANCH  27  44
HETATM   44  C27 UNL     1      13.201  22.294   3.784  1.00  0.00     0.009 C 
HETATM   45  C28 UNL     1      11.826  21.824   3.422  1.00  0.00     0.012 C 
HETATM   46  C29 UNL     1      14.182  21.254   3.349  1.00  0.00     0.012 C 
ENDBRANCH  27  44
ENDBRANCH  25  27
ENDBRANCH   1  23
BRANCH   1  47
HETATM   47  C30 UNL     1      16.786  21.897   8.397  1.00  0.00    -0.022 C 
HETATM   48  C31 UNL     1      16.082  21.228   9.533  1.00  0.00     0.017 C 
HETATM   49  C32 UNL     1      16.281  23.325   8.333  1.00  0.00     0.017 C 
HETATM   50  C33 UNL     1      18.263  21.939   8.701  1.00  0.00     0.017 C 
ENDBRANCH   1  47
TORSDOF 17
ENDMDL
MODEL 5
REMARK VINA RESULT: -7.884109542      2.725      3.922
REMARK  17 active torsions:
REMARK  status: ('A' for Active; 'I' for Inactive)
REMARK    1  A    between atoms: C2_2  and  O1_3 
REMARK    2  A    between atoms: O1_3  and  C3_4 
REMARK    3  A    between atoms: C3_4  and  C4_6 
REMARK    4  A    between atoms: C4_6  and  C5_7 
REMARK    5  A    between atoms: C5_7  and  C6_8 
REMARK    6  A    between atoms: C6_8  and  N1_9 
REMARK    7  A    between atoms: C6_8  and  C12_18 
REMARK       I    between atoms: N1_9  and  C7_11 
REMARK    8  A    between atoms: C7_11  and  O4_13 
REMARK    9  A    between atoms: O4_13  and  C8_14 
REMARK       I    between atoms: C12_18  and  N2_20 
REMARK   10  A    between atoms: N2_20  and  C13_22 
REMARK   11  A    between atoms: C13_22  and  C14_23 
REMARK   12  A    between atoms: C13_22  and  C30_47 
REMARK       I    between atoms: C14_23  and  N3_25 
REMARK   13  A    between atoms: N3_25  and  C15_27 
REMARK   14  A    between atoms: C15_27  and  C16_28 
REMARK   15  A    between atoms: C15_27  and  C27_44 
REMARK       I    between atoms: C16_28  and  N4_30 
REMARK       I    between atoms: N5_34  and  C20_35 
REMARK   16  A    between atoms: C20_35  and  O9_37 
REMARK   17  A    between atoms: O9_37  and  C21_38 
ROOT
HETATM    1  C13 UNL     1       8.440  25.633   4.008  1.00  0.00     0.184 C 
ENDROOT
BRANCH   1   2
HETATM    2  N2  UNL     1       7.154  26.085   4.502  1.00  0.00    -0.342 N 
HETATM    3  C12 UNL     1       6.872  27.413   4.896  1.00  0.00     0.264 C 
HETATM    4  O5  UNL     1       7.797  28.255   4.794  1.00  0.00    -0.266 OA
ATOM      5  H2  UNL     1       6.403  25.399   4.570  1.00  0.00     0.163 HD
BRANCH   3   6
HETATM    6  C6  UNL     1       5.546  27.842   5.416  1.00  0.00     0.082 C 
BRANCH   6   7
HETATM    7  C5  UNL     1       5.569  28.588   6.687  1.00  0.00     0.073 C 
BRANCH   7   8
HETATM    8  C4  UNL     1       6.255  28.011   7.860  1.00  0.00     0.117 C 
BRANCH   8   9
HETATM    9  C3  UNL     1       7.339  28.842   8.444  1.00  0.00     0.259 C 
HETATM   10  O2  UNL     1       7.977  29.695   7.763  1.00  0.00    -0.265 OA
BRANCH   9  11
HETATM   11  O1  UNL     1       7.708  28.717   9.786  1.00  0.00    -0.322 OA
BRANCH  11  12
HETATM   12  C2  UNL     1       9.031  28.641  10.256  1.00  0.00     0.174 C 
HETATM   13  C1  UNL     1       9.636  27.346   9.732  1.00  0.00     0.034 C 
ENDBRANCH  11  12
ENDBRANCH   9  11
ENDBRANCH   8   9
ENDBRANCH   7   8
ENDBRANCH   6   7
BRANCH   6  14
HETATM   14  N1  UNL     1       4.515  26.876   5.270  1.00  0.00    -0.301 N 
HETATM   15  C7  UNL     1       3.364  26.987   4.435  1.00  0.00     0.365 C 
HETATM   16  O3  UNL     1       3.163  28.000   3.720  1.00  0.00    -0.238 OA
ATOM     17  H1  UNL     1       4.605  26.020   5.816  1.00  0.00     0.171 HD
BRANCH  15  18
HETATM   18  O4  UNL     1       2.407  26.000   4.359  1.00  0.00    -0.294 OA
BRANCH  18  19
HETATM   19  C8  UNL     1       2.479  24.766   3.753  1.00  0.00     0.061 C 
HETATM   20  C9  UNL     1       1.040  24.307   3.462  1.00  0.00     0.046 C 
HETATM   21  C10 UNL     1       3.124  23.680   4.565  1.00  0.00     0.046 C 
HETATM   22  C11 UNL     1       3.181  24.845   2.419  1.00  0.00     0.046 C 
ENDBRANCH  18  19
ENDBRANCH  15  18
ENDBRANCH   6  14
ENDBRANCH   3   6
ENDBRANCH   1   2
BRANCH   1  23
HETATM   23  C14 UNL     1       9.245  25.004   5.070  1.00  0.00     0.241 C 
HETATM   24  O6  UNL     1       8.807  25.055   6.270  1.00  0.00    -0.271 OA
HETATM   25  N3  UNL     1      10.467  24.361   4.772  1.00  0.00    -0.346 N 
ATOM     26  H3  UNL     1      10.807  24.348   3.810  1.00  0.00     0.163 HD
BRANCH  25  27
HETATM   27  C15 UNL     1      11.257  23.708   5.830  1.00  0.00     0.180 C 
BRANCH  27  28
HETATM   28  C16 UNL     1      11.859  22.462   5.313  1.00  0.00     0.243 C 
HETATM   29  O7  UNL     1      11.180  21.873   4.398  1.00  0.00    -0.271 OA
HETATM   30  N4  UNL     1      13.058  21.873   5.701  1.00  0.00    -0.346 N 
HETATM   31  C17 UNL     1      13.830  22.428   6.793  1.00  0.00     0.128 C 
HETATM   32  C26 UNL     1      13.496  20.708   4.957  1.00  0.00     0.170 C 
HETATM   33  C18 UNL     1      14.502  21.299   7.570  1.00  0.00     0.040 C 
HETATM   34  C19 UNL     1      15.843  20.918   7.058  1.00  0.00     0.135 C 
HETATM   35  N5  UNL     1      15.875  20.629   5.661  1.00  0.00    -0.306 N 
HETATM   36  C20 UNL     1      17.117  20.009   5.263  1.00  0.00     0.367 C 
HETATM   37  C25 UNL     1      14.964  20.819   4.603  1.00  0.00     0.089 C 
HETATM   38  O8  UNL     1      18.034  19.744   6.059  1.00  0.00    -0.238 OA
BRANCH  36  39
HETATM   39  O9  UNL     1      17.322  19.682   3.924  1.00  0.00    -0.294 OA
BRANCH  39  40
HETATM   40  C21 UNL     1      17.259  18.414   3.364  1.00  0.00     0.061 C 
HETATM   41  C22 UNL     1      16.825  18.610   1.902  1.00  0.00     0.046 C 
HETATM   42  C23 UNL     1      16.225  17.498   3.968  1.00  0.00     0.046 C 
HETATM   43  C24 UNL     1      18.596  17.726   3.394  1.00  0.00     0.046 C 
ENDBRANCH  39  40
ENDBRANCH  36  39
ENDBRANCH  27  28
BRANCH  27  44
HETATM   44  C27 UNL     1      12.464  24.640   6.141  1.00  0.00     0.009 C 
HETATM   45  C28 UNL     1      12.151  25.589   7.258  1.00  0.00     0.012 C 
HETATM   46  C29 UNL     1      12.833  25.442   4.936  1.00  0.00     0.012 C 
ENDBRANCH  27  44
ENDBRANCH  25  27
ENDBRANCH   1  23
BRANCH   1  47
HETATM   47  C30 UNL     1       8.220  24.636   2.858  1.00  0.00    -0.022 C 
HETATM   48  C31 UNL     1       8.221  23.220   3.336  1.00  0.00     0.017 C 
HETATM   49  C32 UNL     1       9.350  24.775   1.858  1.00  0.00     0.017 C 
HETATM   50  C33 UNL     1       6.923  24.900   2.134  1.00  0.00     0.017 C 
ENDBRANCH   1  47
TORSDOF 17
ENDMDL
