MODEL 1
REMARK VINA RESULT: -7.390255915      0.000      0.000
REMARK  8 active torsions:
REMARK  status: ('A' for Active; 'I' for Inactive)
REMARK    1  A    between atoms: C3_3  and  N1_4 
REMARK       I    between atoms: N1_4  and  C4_6 
REMARK    2  A    between atoms: C4_6  and  C5_8 
REMARK    3  A    between atoms: C8_11  and  C9_12 
REMARK    4  A    between atoms: C9_12  and  O2_13 
REMARK    5  A    between atoms: N2_15  and  O3_17 
REMARK    6  A    between atoms: N3_20  and  S1_21 
REMARK    7  A    between atoms: S1_21  and  C11_24 
REMARK    8  A    between atoms: C11_24  and  C12_25 
ROOT
HETATM    1  C1  UNL     1      -3.155   5.522  26.023  1.00  0.00     0.015 C 
HETATM    2  C2  UNL     1      -2.591   4.604  25.459  1.00  0.00    -0.081 C 
HETATM    3  C3  UNL     1      -1.899   3.488  24.733  1.00  0.00     0.114 C 
HETATM    4  C14 UNL     1      -0.465   3.824  24.668  1.00  0.00     0.049 C 
HETATM    5  C15 UNL     1       0.542   2.815  25.049  1.00  0.00     0.004 C 
HETATM    6  C16 UNL     1       0.481   2.222  26.401  1.00  0.00     0.000 C 
HETATM    7  C17 UNL     1      -0.181   3.013  27.459  1.00  0.00     0.004 C 
HETATM    8  C18 UNL     1      -1.600   2.684  27.736  1.00  0.00     0.027 C 
HETATM    9  C19 UNL     1      -2.384   1.963  26.733  1.00  0.00    -0.027 C 
HETATM   10  C20 UNL     1      -2.257   2.176  25.302  1.00  0.00     0.013 C 
ENDROOT
BRANCH   3  11
HETATM   11  N1  UNL     1      -2.479   3.556  23.393  1.00  0.00    -0.336 N 
HETATM   12  C4  UNL     1      -2.084   4.408  22.359  1.00  0.00     0.243 C 
HETATM   13  O1  UNL     1      -1.154   5.238  22.469  1.00  0.00    -0.271 OA
ATOM     14  H1  UNL     1      -3.249   2.917  23.193  1.00  0.00     0.164 HD
BRANCH  12  15
HETATM   15  C5  UNL     1      -2.756   4.397  21.010  1.00  0.00     0.192 C 
HETATM   16  C6  UNL     1      -1.858   5.052  19.991  1.00  0.00     0.037 C 
HETATM   17  C7  UNL     1      -1.966   6.562  20.037  1.00  0.00     0.020 C 
HETATM   18  C8  UNL     1      -3.410   6.900  19.745  1.00  0.00     0.101 C 
HETATM   19  C10 UNL     1      -4.277   6.278  20.775  1.00  0.00     0.090 C 
HETATM   20  N3  UNL     1      -4.057   4.930  21.097  1.00  0.00    -0.276 N 
BRANCH  18  21
HETATM   21  C9  UNL     1      -3.588   8.372  19.754  1.00  0.00     0.144 C 
HETATM   22  N2  UNL     1      -2.819   9.107  19.033  1.00  0.00    -0.251 N 
ATOM     23  H2  UNL     1      -2.097   8.665  18.465  1.00  0.00     0.196 HD
BRANCH  21  24
HETATM   24  O2  UNL     1      -4.576   8.949  20.534  1.00  0.00    -0.348 OA
ATOM     25  H2  UNL     1      -4.855   9.841  20.368  1.00  0.00     0.219 HD
ENDBRANCH  21  24
BRANCH  22  26
HETATM   26  O3  UNL     1      -2.947  10.471  19.009  1.00  0.00    -0.288 OA
ATOM     27  H3  UNL     1      -3.766  10.890  18.771  1.00  0.00     0.244 HD
ENDBRANCH  22  26
ENDBRANCH  18  21
BRANCH  20  28
HETATM   28  S1  UNL     1      -5.343   3.858  20.851  1.00  0.00     0.232 S 
HETATM   29  O4  UNL     1      -4.841   2.462  20.911  1.00  0.00    -0.205 OA
HETATM   30  O5  UNL     1      -5.888   4.079  19.458  1.00  0.00    -0.205 OA
BRANCH  28  31
HETATM   31  C11 UNL     1      -6.693   4.122  21.975  1.00  0.00     0.163 C 
BRANCH  31  32
HETATM   32  C12 UNL     1      -6.116   4.459  23.343  1.00  0.00     0.012 C 
HETATM   33  C13 UNL     1      -5.950   3.256  24.216  1.00  0.00     0.006 C 
ENDBRANCH  31  32
ENDBRANCH  28  31
ENDBRANCH  20  28
ENDBRANCH  12  15
ENDBRANCH   3  11
TORSDOF 8
ENDMDL
MODEL 2
REMARK VINA RESULT: -7.355066639      0.693      1.753
REMARK  8 active torsions:
REMARK  status: ('A' for Active; 'I' for Inactive)
REMARK    1  A    between atoms: C3_3  and  N1_4 
REMARK       I    between atoms: N1_4  and  C4_6 
REMARK    2  A    between atoms: C4_6  and  C5_8 
REMARK    3  A    between atoms: C8_11  and  C9_12 
REMARK    4  A    between atoms: C9_12  and  O2_13 
REMARK    5  A    between atoms: N2_15  and  O3_17 
REMARK    6  A    between atoms: N3_20  and  S1_21 
REMARK    7  A    between atoms: S1_21  and  C11_24 
REMARK    8  A    between atoms: C11_24  and  C12_25 
ROOT
HETATM    1  C1  UNL     1      -3.187   1.049  25.597  1.00  0.00     0.015 C 
HETATM    2  C2  UNL     1      -2.874   2.184  25.296  1.00  0.00    -0.081 C 
HETATM    3  C3  UNL     1      -2.511   3.586  24.902  1.00  0.00     0.114 C 
HETATM    4  C14 UNL     1      -3.344   4.502  25.704  1.00  0.00     0.049 C 
HETATM    5  C15 UNL     1      -2.717   5.639  26.403  1.00  0.00     0.004 C 
HETATM    6  C16 UNL     1      -1.630   5.372  27.368  1.00  0.00     0.000 C 
HETATM    7  C17 UNL     1      -1.594   4.034  27.994  1.00  0.00     0.004 C 
HETATM    8  C18 UNL     1      -0.682   3.042  27.374  1.00  0.00     0.027 C 
HETATM    9  C19 UNL     1      -0.223   3.243  26.000  1.00  0.00    -0.027 C 
HETATM   10  C20 UNL     1      -1.052   3.794  24.943  1.00  0.00     0.013 C 
ENDROOT
BRANCH   3  11
HETATM   11  N1  UNL     1      -2.923   3.652  23.501  1.00  0.00    -0.336 N 
HETATM   12  C4  UNL     1      -2.309   4.391  22.488  1.00  0.00     0.243 C 
HETATM   13  O1  UNL     1      -1.300   5.106  22.673  1.00  0.00    -0.271 OA
ATOM     14  H1  UNL     1      -3.741   3.102  23.236  1.00  0.00     0.164 HD
BRANCH  12  15
HETATM   15  C5  UNL     1      -2.821   4.388  21.070  1.00  0.00     0.192 C 
HETATM   16  C6  UNL     1      -1.820   5.065  20.168  1.00  0.00     0.037 C 
HETATM   17  C7  UNL     1      -1.950   6.573  20.217  1.00  0.00     0.020 C 
HETATM   18  C8  UNL     1      -3.354   6.899  19.764  1.00  0.00     0.101 C 
HETATM   19  C10 UNL     1      -4.327   6.257  20.681  1.00  0.00     0.090 C 
HETATM   20  N3  UNL     1      -4.130   4.907  21.012  1.00  0.00    -0.276 N 
BRANCH  18  21
HETATM   21  C9  UNL     1      -3.549   8.370  19.768  1.00  0.00     0.144 C 
HETATM   22  N2  UNL     1      -2.801   9.109  19.028  1.00  0.00    -0.251 N 
ATOM     23  H2  UNL     1      -2.084   8.671  18.450  1.00  0.00     0.196 HD
BRANCH  21  24
HETATM   24  O2  UNL     1      -4.529   8.940  20.562  1.00  0.00    -0.348 OA
ATOM     25  H2  UNL     1      -4.373   9.774  20.987  1.00  0.00     0.219 HD
ENDBRANCH  21  24
BRANCH  22  26
HETATM   26  O3  UNL     1      -2.945  10.472  18.999  1.00  0.00    -0.288 OA
ATOM     27  H3  UNL     1      -2.278  11.050  19.351  1.00  0.00     0.244 HD
ENDBRANCH  22  26
ENDBRANCH  18  21
BRANCH  20  28
HETATM   28  S1  UNL     1      -5.367   3.826  20.609  1.00  0.00     0.232 S 
HETATM   29  O4  UNL     1      -4.861   2.434  20.715  1.00  0.00    -0.205 OA
HETATM   30  O5  UNL     1      -5.748   4.054  19.163  1.00  0.00    -0.205 OA
BRANCH  28  31
HETATM   31  C11 UNL     1      -6.841   4.065  21.570  1.00  0.00     0.163 C 
BRANCH  31  32
HETATM   32  C12 UNL     1      -6.433   4.331  23.012  1.00  0.00     0.012 C 
HETATM   33  C13 UNL     1      -6.476   3.103  23.864  1.00  0.00     0.006 C 
ENDBRANCH  31  32
ENDBRANCH  28  31
ENDBRANCH  20  28
ENDBRANCH  12  15
ENDBRANCH   3  11
TORSDOF 8
ENDMDL
MODEL 3
REMARK VINA RESULT: -7.294141484      1.441      2.330
REMARK  8 active torsions:
REMARK  status: ('A' for Active; 'I' for Inactive)
REMARK    1  A    between atoms: C3_3  and  N1_4 
REMARK       I    between atoms: N1_4  and  C4_6 
REMARK    2  A    between atoms: C4_6  and  C5_8 
REMARK    3  A    between atoms: C8_11  and  C9_12 
REMARK    4  A    between atoms: C9_12  and  O2_13 
REMARK    5  A    between atoms: N2_15  and  O3_17 
REMARK    6  A    between atoms: N3_20  and  S1_21 
REMARK    7  A    between atoms: S1_21  and  C11_24 
REMARK    8  A    between atoms: C11_24  and  C12_25 
ROOT
HETATM    1  C1  UNL     1      -2.645   0.623  25.709  1.00  0.00     0.015 C 
HETATM    2  C2  UNL     1      -2.436   1.787  25.425  1.00  0.00    -0.081 C 
HETATM    3  C3  UNL     1      -2.202   3.221  25.052  1.00  0.00     0.114 C 
HETATM    4  C14 UNL     1      -3.122   4.045  25.858  1.00  0.00     0.049 C 
HETATM    5  C15 UNL     1      -2.609   5.226  26.577  1.00  0.00     0.004 C 
HETATM    6  C16 UNL     1      -1.509   5.048  27.548  1.00  0.00     0.000 C 
HETATM    7  C17 UNL     1      -1.354   3.711  28.158  1.00  0.00     0.004 C 
HETATM    8  C18 UNL     1      -0.350   2.817  27.533  1.00  0.00     0.027 C 
HETATM    9  C19 UNL     1       0.099   3.077  26.165  1.00  0.00    -0.027 C 
HETATM   10  C20 UNL     1      -0.770   3.563  25.108  1.00  0.00     0.013 C 
ENDROOT
BRANCH   3  11
HETATM   11  N1  UNL     1      -2.608   3.267  23.648  1.00  0.00    -0.336 N 
HETATM   12  C4  UNL     1      -2.747   4.411  22.860  1.00  0.00     0.243 C 
HETATM   13  O1  UNL     1      -2.531   5.568  23.283  1.00  0.00    -0.271 OA
ATOM     14  H1  UNL     1      -2.809   2.373  23.199  1.00  0.00     0.164 HD
BRANCH  12  15
HETATM   15  C5  UNL     1      -3.176   4.344  21.417  1.00  0.00     0.192 C 
HETATM   16  C6  UNL     1      -2.028   4.751  20.527  1.00  0.00     0.037 C 
HETATM   17  C7  UNL     1      -1.906   6.257  20.425  1.00  0.00     0.020 C 
HETATM   18  C8  UNL     1      -3.209   6.757  19.846  1.00  0.00     0.101 C 
HETATM   19  C10 UNL     1      -4.323   6.380  20.749  1.00  0.00     0.090 C 
HETATM   20  N3  UNL     1      -4.374   5.058  21.218  1.00  0.00    -0.276 N 
BRANCH  18  21
HETATM   21  C9  UNL     1      -3.154   8.232  19.697  1.00  0.00     0.144 C 
HETATM   22  N2  UNL     1      -4.236   8.886  19.467  1.00  0.00    -0.251 N 
ATOM     23  H2  UNL     1      -5.117   8.379  19.389  1.00  0.00     0.196 HD
BRANCH  21  24
HETATM   24  O2  UNL     1      -1.945   8.897  19.807  1.00  0.00    -0.348 OA
ATOM     25  H2  UNL     1      -1.926   9.817  20.041  1.00  0.00     0.219 HD
ENDBRANCH  21  24
BRANCH  22  26
HETATM   26  O3  UNL     1      -4.233  10.249  19.322  1.00  0.00    -0.288 OA
ATOM     27  H3  UNL     1      -4.784  10.682  18.681  1.00  0.00     0.244 HD
ENDBRANCH  22  26
ENDBRANCH  18  21
BRANCH  20  28
HETATM   28  S1  UNL     1      -5.752   4.155  20.834  1.00  0.00     0.232 S 
HETATM   29  O4  UNL     1      -5.881   4.055  19.358  1.00  0.00    -0.205 OA
HETATM   30  O5  UNL     1      -6.967   4.900  21.340  1.00  0.00    -0.205 OA
BRANCH  28  31
HETATM   31  C11 UNL     1      -5.774   2.556  21.607  1.00  0.00     0.163 C 
BRANCH  31  32
HETATM   32  C12 UNL     1      -5.434   1.511  20.553  1.00  0.00     0.012 C 
HETATM   33  C13 UNL     1      -4.158   0.788  20.843  1.00  0.00     0.006 C 
ENDBRANCH  31  32
ENDBRANCH  28  31
ENDBRANCH  20  28
ENDBRANCH  12  15
ENDBRANCH   3  11
TORSDOF 8
ENDMDL
MODEL 4
REMARK VINA RESULT: -7.234782271      0.881      1.018
REMARK  8 active torsions:
REMARK  status: ('A' for Active; 'I' for Inactive)
REMARK    1  A    between atoms: C3_3  and  N1_4 
REMARK       I    between atoms: N1_4  and  C4_6 
REMARK    2  A    between atoms: C4_6  and  C5_8 
REMARK    3  A    between atoms: C8_11  and  C9_12 
REMARK    4  A    between atoms: C9_12  and  O2_13 
REMARK    5  A    between atoms: N2_15  and  O3_17 
REMARK    6  A    between atoms: N3_20  and  S1_21 
REMARK    7  A    between atoms: S1_21  and  C11_24 
REMARK    8  A    between atoms: C11_24  and  C12_25 
ROOT
HETATM    1  C1  UNL     1      -2.854   5.197  26.210  1.00  0.00     0.015 C 
HETATM    2  C2  UNL     1      -2.328   4.286  25.599  1.00  0.00    -0.081 C 
HETATM    3  C3  UNL     1      -1.684   3.179  24.818  1.00  0.00     0.114 C 
HETATM    4  C14 UNL     1      -0.254   3.512  24.674  1.00  0.00     0.049 C 
HETATM    5  C15 UNL     1       0.769   2.494  24.981  1.00  0.00     0.004 C 
HETATM    6  C16 UNL     1       0.784   1.880  26.325  1.00  0.00     0.000 C 
HETATM    7  C17 UNL     1       0.188   2.657  27.431  1.00  0.00     0.004 C 
HETATM    8  C18 UNL     1      -1.213   2.328  27.786  1.00  0.00     0.027 C 
HETATM    9  C19 UNL     1      -2.057   1.625  26.819  1.00  0.00    -0.027 C 
HETATM   10  C20 UNL     1      -2.013   1.860  25.387  1.00  0.00     0.013 C 
ENDROOT
BRANCH   3  11
HETATM   11  N1  UNL     1      -2.340   3.270  23.515  1.00  0.00    -0.336 N 
HETATM   12  C4  UNL     1      -2.162   4.277  22.563  1.00  0.00     0.243 C 
HETATM   13  O1  UNL     1      -1.392   5.249  22.726  1.00  0.00    -0.271 OA
ATOM     14  H1  UNL     1      -2.993   2.523  23.277  1.00  0.00     0.164 HD
BRANCH  12  15
HETATM   15  C5  UNL     1      -2.896   4.273  21.247  1.00  0.00     0.192 C 
HETATM   16  C6  UNL     1      -1.957   4.691  20.142  1.00  0.00     0.037 C 
HETATM   17  C7  UNL     1      -1.816   6.196  20.065  1.00  0.00     0.020 C 
HETATM   18  C8  UNL     1      -3.199   6.746  19.801  1.00  0.00     0.101 C 
HETATM   19  C10 UNL     1      -4.101   6.357  20.912  1.00  0.00     0.090 C 
HETATM   20  N3  UNL     1      -4.087   5.020  21.337  1.00  0.00    -0.276 N 
BRANCH  18  21
HETATM   21  C9  UNL     1      -3.134   8.223  19.692  1.00  0.00     0.144 C 
HETATM   22  N2  UNL     1      -4.202   8.886  19.421  1.00  0.00    -0.251 N 
ATOM     23  H2  UNL     1      -5.079   8.383  19.284  1.00  0.00     0.196 HD
BRANCH  21  24
HETATM   24  O2  UNL     1      -1.932   8.883  19.882  1.00  0.00    -0.348 OA
ATOM     25  H2  UNL     1      -1.851   9.542  20.561  1.00  0.00     0.219 HD
ENDBRANCH  21  24
BRANCH  22  26
HETATM   26  O3  UNL     1      -4.191  10.252  19.311  1.00  0.00    -0.288 OA
ATOM     27  H3  UNL     1      -3.412  10.760  19.505  1.00  0.00     0.244 HD
ENDBRANCH  22  26
ENDBRANCH  18  21
BRANCH  20  28
HETATM   28  S1  UNL     1      -5.541   4.162  21.232  1.00  0.00     0.232 S 
HETATM   29  O4  UNL     1      -5.750   3.712  19.833  1.00  0.00    -0.205 OA
HETATM   30  O5  UNL     1      -6.676   5.101  21.575  1.00  0.00    -0.205 OA
BRANCH  28  31
HETATM   31  C11 UNL     1      -5.634   2.809  22.379  1.00  0.00     0.163 C 
BRANCH  31  32
HETATM   32  C12 UNL     1      -5.889   3.378  23.769  1.00  0.00     0.012 C 
HETATM   33  C13 UNL     1      -5.640   2.385  24.858  1.00  0.00     0.006 C 
ENDBRANCH  31  32
ENDBRANCH  28  31
ENDBRANCH  20  28
ENDBRANCH  12  15
ENDBRANCH   3  11
TORSDOF 8
ENDMDL
MODEL 5
REMARK VINA RESULT: -7.151491204      2.809      4.502
REMARK  8 active torsions:
REMARK  status: ('A' for Active; 'I' for Inactive)
REMARK    1  A    between atoms: C3_3  and  N1_4 
REMARK       I    between atoms: N1_4  and  C4_6 
REMARK    2  A    between atoms: C4_6  and  C5_8 
REMARK    3  A    between atoms: C8_11  and  C9_12 
REMARK    4  A    between atoms: C9_12  and  O2_13 
REMARK    5  A    between atoms: N2_15  and  O3_17 
REMARK    6  A    between atoms: N3_20  and  S1_21 
REMARK    7  A    between atoms: S1_21  and  C11_24 
REMARK    8  A    between atoms: C11_24  and  C12_25 
ROOT
HETATM    1  C1  UNL     1      -0.245   3.074  28.913  1.00  0.00     0.015 C 
HETATM    2  C2  UNL     1      -1.174   3.769  28.548  1.00  0.00    -0.081 C 
HETATM    3  C3  UNL     1      -2.332   4.599  28.080  1.00  0.00     0.114 C 
HETATM    4  C14 UNL     1      -3.421   4.433  29.061  1.00  0.00     0.049 C 
HETATM    5  C15 UNL     1      -4.118   5.620  29.591  1.00  0.00     0.004 C 
HETATM    6  C16 UNL     1      -3.326   6.670  30.265  1.00  0.00     0.000 C 
HETATM    7  C17 UNL     1      -2.036   6.267  30.862  1.00  0.00     0.004 C 
HETATM    8  C18 UNL     1      -0.826   6.510  30.039  1.00  0.00     0.027 C 
HETATM    9  C19 UNL     1      -0.961   6.700  28.595  1.00  0.00    -0.027 C 
HETATM   10  C20 UNL     1      -1.913   5.978  27.770  1.00  0.00     0.013 C 
ENDROOT
BRANCH   3  11
HETATM   11  N1  UNL     1      -2.708   3.962  26.820  1.00  0.00    -0.336 N 
HETATM   12  C4  UNL     1      -3.666   4.417  25.911  1.00  0.00     0.243 C 
HETATM   13  O1  UNL     1      -4.332   5.462  26.081  1.00  0.00    -0.271 OA
ATOM     14  H1  UNL     1      -2.222   3.097  26.580  1.00  0.00     0.164 HD
BRANCH  12  15
HETATM   15  C5  UNL     1      -3.977   3.676  24.636  1.00  0.00     0.192 C 
HETATM   16  C6  UNL     1      -2.852   2.724  24.315  1.00  0.00     0.037 C 
HETATM   17  C7  UNL     1      -1.701   3.428  23.630  1.00  0.00     0.020 C 
HETATM   18  C8  UNL     1      -2.255   4.020  22.354  1.00  0.00     0.101 C 
HETATM   19  C10 UNL     1      -3.335   4.980  22.688  1.00  0.00     0.090 C 
HETATM   20  N3  UNL     1      -4.316   4.576  23.606  1.00  0.00    -0.276 N 
BRANCH  18  21
HETATM   21  C9  UNL     1      -1.172   4.713  21.615  1.00  0.00     0.144 C 
HETATM   22  N2  UNL     1      -1.453   5.734  20.888  1.00  0.00    -0.251 N 
ATOM     23  H2  UNL     1      -2.421   6.053  20.830  1.00  0.00     0.196 HD
BRANCH  21  24
HETATM   24  O2  UNL     1       0.133   4.261  21.709  1.00  0.00    -0.348 OA
ATOM     25  H2  UNL     1       0.362   3.592  22.343  1.00  0.00     0.219 HD
ENDBRANCH  21  24
BRANCH  22  26
HETATM   26  O3  UNL     1      -0.485   6.406  20.188  1.00  0.00    -0.288 OA
ATOM     27  H3  UNL     1       0.127   6.989  20.621  1.00  0.00     0.244 HD
ENDBRANCH  22  26
ENDBRANCH  18  21
BRANCH  20  28
HETATM   28  S1  UNL     1      -5.919   4.553  23.064  1.00  0.00     0.232 S 
HETATM   29  O4  UNL     1      -6.103   5.593  22.020  1.00  0.00    -0.205 OA
HETATM   30  O5  UNL     1      -6.819   4.919  24.223  1.00  0.00    -0.205 OA
BRANCH  28  31
HETATM   31  C11 UNL     1      -6.439   2.952  22.499  1.00  0.00     0.163 C 
BRANCH  31  32
HETATM   32  C12 UNL     1      -5.883   2.737  21.097  1.00  0.00     0.012 C 
HETATM   33  C13 UNL     1      -4.823   1.684  21.049  1.00  0.00     0.006 C 
ENDBRANCH  31  32
ENDBRANCH  28  31
ENDBRANCH  20  28
ENDBRANCH  12  15
ENDBRANCH   3  11
TORSDOF 8
ENDMDL
