MODEL 1
REMARK VINA RESULT: -6.601654002      0.000      0.000
REMARK  7 active torsions:
REMARK  status: ('A' for Active; 'I' for Inactive)
REMARK    1  A    between atoms: O1_2  and  C2_3 
REMARK    2  A    between atoms: C2_3  and  C3_4 
REMARK    3  A    between atoms: C3_4  and  N1_5 
REMARK    4  A    between atoms: N2_8  and  C6_10 
REMARK    5  A    between atoms: C16_20  and  O2_21 
REMARK    6  A    between atoms: C20_27  and  C21_28 
REMARK    7  A    between atoms: C21_28  and  O4_29 
ROOT
HETATM    1  N1  UNL     1      -2.624   5.078  20.907  1.00  0.00    -0.364 N 
HETATM    2  C4  UNL     1      -2.246   3.729  20.588  1.00  0.00     0.211 C 
HETATM    3  C5  UNL     1      -1.020   3.374  21.370  1.00  0.00     0.133 C 
HETATM    4  N2  UNL     1      -0.128   2.610  20.678  1.00  0.00    -0.364 N 
ATOM      5  H2  UNL     1       0.761   3.068  20.474  1.00  0.00     0.162 HD
HETATM    6  O3  UNL     1      -1.300   3.021  22.679  1.00  0.00    -0.330 OA
HETATM    7  C20 UNL     1      -2.564   3.091  23.125  1.00  0.00     0.162 C 
HETATM    8  C22 UNL     1      -3.211   4.418  23.197  1.00  0.00     0.052 C 
HETATM    9  C23 UNL     1      -4.686   4.276  22.886  1.00  0.00     0.018 C 
HETATM   10  C24 UNL     1      -2.662   5.453  22.260  1.00  0.00     0.070 C 
ENDROOT
BRANCH   4  11
HETATM   11  C6  UNL     1      -0.238   1.288  20.199  1.00  0.00     0.035 C 
HETATM   12  C7  UNL     1      -1.637   0.843  20.125  1.00  0.00     0.035 C 
HETATM   13  C8  UNL     1      -1.967  -0.397  19.330  1.00  0.00    -0.012 C 
HETATM   14  C9  UNL     1      -1.700  -1.684  20.042  1.00  0.00     0.009 C 
HETATM   15  C13 UNL     1      -1.548  -0.380  17.903  1.00  0.00     0.010 C 
HETATM   16  C10 UNL     1      -0.400  -2.339  19.682  1.00  0.00    -0.011 C 
HETATM   17  C11 UNL     1       0.009  -2.203  18.259  1.00  0.00     0.010 C 
HETATM   18  C17 UNL     1       0.694  -2.031  20.664  1.00  0.00     0.042 C 
HETATM   19  C12 UNL     1      -0.119  -0.815  17.686  1.00  0.00    -0.010 C 
HETATM   20  C14 UNL     1       0.873   0.166  18.191  1.00  0.00    -0.005 C 
HETATM   21  C15 UNL     1       1.899  -0.433  19.124  1.00  0.00     0.043 C 
HETATM   22  C19 UNL     1       0.373   1.410  18.783  1.00  0.00     0.036 C 
HETATM   23  C16 UNL     1       1.350  -0.701  20.490  1.00  0.00     0.061 C 
HETATM   24  C18 UNL     1       0.634   0.446  21.102  1.00  0.00     0.068 C 
BRANCH  23  25
HETATM   25  O2  UNL     1       2.547  -0.855  21.267  1.00  0.00    -0.390 OA
ATOM     26  H2  UNL     1       2.279  -1.494  21.917  1.00  0.00     0.210 HD
ENDBRANCH  23  25
ENDBRANCH   4  11
BRANCH   1  27
HETATM   27  C3  UNL     1      -2.462   6.068  19.941  1.00  0.00     0.089 C 
BRANCH  27  28
HETATM   28  C2  UNL     1      -1.147   6.783  19.890  1.00  0.00     0.211 C 
BRANCH  28  29
HETATM   29  O1  UNL     1      -1.274   8.163  19.798  1.00  0.00    -0.391 OA
HETATM   30  C1  UNL     1      -2.503   8.597  19.340  1.00  0.00     0.201 C 
ENDBRANCH  28  29
ENDBRANCH  27  28
ENDBRANCH   1  27
BRANCH   7  31
HETATM   31  C21 UNL     1      -2.550   2.517  24.557  1.00  0.00     0.197 C 
BRANCH  31  32
HETATM   32  O4  UNL     1      -2.139   3.482  25.466  1.00  0.00    -0.398 OA
ATOM     33  H4  UNL     1      -2.886   3.851  25.923  1.00  0.00     0.209 HD
ENDBRANCH  31  32
ENDBRANCH   7  31
TORSDOF 7
ENDMDL
MODEL 2
REMARK VINA RESULT: -6.518891058      3.724      5.008
REMARK  7 active torsions:
REMARK  status: ('A' for Active; 'I' for Inactive)
REMARK    1  A    between atoms: O1_2  and  C2_3 
REMARK    2  A    between atoms: C2_3  and  C3_4 
REMARK    3  A    between atoms: C3_4  and  N1_5 
REMARK    4  A    between atoms: N2_8  and  C6_10 
REMARK    5  A    between atoms: C16_20  and  O2_21 
REMARK    6  A    between atoms: C20_27  and  C21_28 
REMARK    7  A    between atoms: C21_28  and  O4_29 
ROOT
HETATM    1  N1  UNL     1      -2.714   5.268  20.504  1.00  0.00    -0.364 N 
HETATM    2  C4  UNL     1      -2.315   4.270  21.458  1.00  0.00     0.211 C 
HETATM    3  C5  UNL     1      -2.496   4.822  22.837  1.00  0.00     0.133 C 
HETATM    4  N2  UNL     1      -1.513   4.457  23.710  1.00  0.00    -0.364 N 
ATOM      5  H2  UNL     1      -0.924   5.223  24.037  1.00  0.00     0.162 HD
HETATM    6  O3  UNL     1      -3.808   4.761  23.274  1.00  0.00    -0.330 OA
HETATM    7  C20 UNL     1      -4.757   4.302  22.444  1.00  0.00     0.162 C 
HETATM    8  C22 UNL     1      -5.054   5.077  21.220  1.00  0.00     0.052 C 
HETATM    9  C23 UNL     1      -5.424   4.126  20.101  1.00  0.00     0.018 C 
HETATM   10  C24 UNL     1      -3.932   5.935  20.714  1.00  0.00     0.070 C 
ENDROOT
BRANCH   4  11
HETATM   11  C6  UNL     1      -1.182   3.189  24.231  1.00  0.00     0.035 C 
HETATM   12  C7  UNL     1      -1.624   2.098  23.350  1.00  0.00     0.035 C 
HETATM   13  C8  UNL     1      -1.068   0.712  23.572  1.00  0.00    -0.012 C 
HETATM   14  C9  UNL     1      -1.719  -0.052  24.679  1.00  0.00     0.009 C 
HETATM   15  C13 UNL     1       0.414   0.596  23.526  1.00  0.00     0.010 C 
HETATM   16  C10 UNL     1      -0.971  -0.028  25.978  1.00  0.00    -0.011 C 
HETATM   17  C11 UNL     1       0.511  -0.050  25.861  1.00  0.00     0.010 C 
HETATM   18  C17 UNL     1      -1.493   1.013  26.927  1.00  0.00     0.042 C 
HETATM   19  C12 UNL     1       1.086   0.902  24.842  1.00  0.00    -0.010 C 
HETATM   20  C14 UNL     1       1.016   2.336  25.215  1.00  0.00    -0.005 C 
HETATM   21  C15 UNL     1       0.462   2.578  26.599  1.00  0.00     0.043 C 
HETATM   22  C19 UNL     1       0.363   3.259  24.283  1.00  0.00     0.036 C 
HETATM   23  C16 UNL     1      -1.023   2.405  26.665  1.00  0.00     0.061 C 
HETATM   24  C18 UNL     1      -1.776   3.144  25.621  1.00  0.00     0.068 C 
BRANCH  23  25
HETATM   25  O2  UNL     1      -1.346   3.066  27.898  1.00  0.00    -0.390 OA
ATOM     26  H2  UNL     1      -1.137   3.970  27.697  1.00  0.00     0.210 HD
ENDBRANCH  23  25
ENDBRANCH   4  11
BRANCH   1  27
HETATM   27  C3  UNL     1      -1.737   5.885  19.727  1.00  0.00     0.089 C 
BRANCH  27  28
HETATM   28  C2  UNL     1      -1.466   7.338  19.972  1.00  0.00     0.211 C 
BRANCH  28  29
HETATM   29  O1  UNL     1      -1.945   8.164  18.964  1.00  0.00    -0.391 OA
HETATM   30  C1  UNL     1      -2.790   9.168  19.397  1.00  0.00     0.201 C 
ENDBRANCH  28  29
ENDBRANCH  27  28
ENDBRANCH   1  27
BRANCH   7  31
HETATM   31  C21 UNL     1      -6.061   4.245  23.268  1.00  0.00     0.197 C 
BRANCH  31  32
HETATM   32  O4  UNL     1      -6.548   5.523  23.502  1.00  0.00    -0.398 OA
ATOM     33  H4  UNL     1      -5.862   6.086  23.839  1.00  0.00     0.209 HD
ENDBRANCH  31  32
ENDBRANCH   7  31
TORSDOF 7
ENDMDL
MODEL 3
REMARK VINA RESULT: -6.498779665      1.493      2.307
REMARK  7 active torsions:
REMARK  status: ('A' for Active; 'I' for Inactive)
REMARK    1  A    between atoms: O1_2  and  C2_3 
REMARK    2  A    between atoms: C2_3  and  C3_4 
REMARK    3  A    between atoms: C3_4  and  N1_5 
REMARK    4  A    between atoms: N2_8  and  C6_10 
REMARK    5  A    between atoms: C16_20  and  O2_21 
REMARK    6  A    between atoms: C20_27  and  C21_28 
REMARK    7  A    between atoms: C21_28  and  O4_29 
ROOT
HETATM    1  N1  UNL     1      -2.954   4.727  21.226  1.00  0.00    -0.364 N 
HETATM    2  C4  UNL     1      -2.406   3.418  21.001  1.00  0.00     0.211 C 
HETATM    3  C5  UNL     1      -0.912   3.509  21.037  1.00  0.00     0.133 C 
HETATM    4  N2  UNL     1      -0.290   2.713  20.120  1.00  0.00    -0.364 N 
ATOM      5  H2  UNL     1       0.211   3.215  19.387  1.00  0.00     0.162 HD
HETATM    6  O3  UNL     1      -0.405   3.535  22.325  1.00  0.00    -0.330 OA
HETATM    7  C20 UNL     1      -1.252   3.547  23.366  1.00  0.00     0.162 C 
HETATM    8  C22 UNL     1      -2.135   4.719  23.540  1.00  0.00     0.052 C 
HETATM    9  C23 UNL     1      -3.462   4.268  24.114  1.00  0.00     0.018 C 
HETATM   10  C24 UNL     1      -2.438   5.489  22.287  1.00  0.00     0.070 C 
ENDROOT
BRANCH   4  11
HETATM   11  C6  UNL     1      -0.230   1.307  20.025  1.00  0.00     0.035 C 
HETATM   12  C7  UNL     1       0.261   0.691  21.266  1.00  0.00     0.035 C 
HETATM   13  C8  UNL     1       0.074  -0.794  21.466  1.00  0.00    -0.012 C 
HETATM   14  C9  UNL     1       1.076  -1.650  20.762  1.00  0.00     0.009 C 
HETATM   15  C13 UNL     1      -1.327  -1.285  21.385  1.00  0.00     0.010 C 
HETATM   16  C10 UNL     1       0.605  -2.218  19.457  1.00  0.00    -0.011 C 
HETATM   17  C11 UNL     1      -0.831  -2.601  19.410  1.00  0.00     0.010 C 
HETATM   18  C17 UNL     1       1.060  -1.409  18.276  1.00  0.00     0.042 C 
HETATM   19  C12 UNL     1      -1.784  -1.579  19.977  1.00  0.00    -0.010 C 
HETATM   20  C14 UNL     1      -1.958  -0.359  19.151  1.00  0.00    -0.005 C 
HETATM   21  C15 UNL     1      -1.215  -0.404  17.837  1.00  0.00     0.043 C 
HETATM   22  C19 UNL     1      -1.713   0.940  19.782  1.00  0.00     0.036 C 
HETATM   23  C16 UNL     1       0.256  -0.182  17.998  1.00  0.00     0.061 C 
HETATM   24  C18 UNL     1       0.615   1.009  18.807  1.00  0.00     0.068 C 
BRANCH  23  25
HETATM   25  O2  UNL     1       0.658   0.140  16.658  1.00  0.00    -0.390 OA
ATOM     26  H2  UNL     1       1.242  -0.578  16.449  1.00  0.00     0.210 HD
ENDBRANCH  23  25
ENDBRANCH   4  11
BRANCH   1  27
HETATM   27  C3  UNL     1      -3.576   5.387  20.168  1.00  0.00     0.089 C 
BRANCH  27  28
HETATM   28  C2  UNL     1      -3.967   6.818  20.372  1.00  0.00     0.211 C 
BRANCH  28  29
HETATM   29  O1  UNL     1      -3.466   7.670  19.397  1.00  0.00    -0.391 OA
HETATM   30  C1  UNL     1      -2.090   7.800  19.401  1.00  0.00     0.201 C 
ENDBRANCH  28  29
ENDBRANCH  27  28
ENDBRANCH   1  27
BRANCH   7  31
HETATM   31  C21 UNL     1      -0.379   3.448  24.634  1.00  0.00     0.197 C 
BRANCH  31  32
HETATM   32  O4  UNL     1       0.968   3.437  24.302  1.00  0.00    -0.398 OA
ATOM     33  H4  UNL     1       1.388   4.242  24.582  1.00  0.00     0.209 HD
ENDBRANCH  31  32
ENDBRANCH   7  31
TORSDOF 7
ENDMDL
MODEL 4
REMARK VINA RESULT: -6.497118392      1.658      2.488
REMARK  7 active torsions:
REMARK  status: ('A' for Active; 'I' for Inactive)
REMARK    1  A    between atoms: O1_2  and  C2_3 
REMARK    2  A    between atoms: C2_3  and  C3_4 
REMARK    3  A    between atoms: C3_4  and  N1_5 
REMARK    4  A    between atoms: N2_8  and  C6_10 
REMARK    5  A    between atoms: C16_20  and  O2_21 
REMARK    6  A    between atoms: C20_27  and  C21_28 
REMARK    7  A    between atoms: C21_28  and  O4_29 
ROOT
HETATM    1  N1  UNL     1      -2.013   5.851  20.165  1.00  0.00    -0.364 N 
HETATM    2  C4  UNL     1      -1.874   4.441  19.921  1.00  0.00     0.211 C 
HETATM    3  C5  UNL     1      -1.250   3.804  21.123  1.00  0.00     0.133 C 
HETATM    4  N2  UNL     1      -0.359   2.816  20.822  1.00  0.00    -0.364 N 
ATOM      5  H2  UNL     1       0.610   3.023  21.068  1.00  0.00     0.162 HD
HETATM    6  O3  UNL     1      -2.158   3.571  22.142  1.00  0.00    -0.330 OA
HETATM    7  C20 UNL     1      -3.428   3.977  21.997  1.00  0.00     0.162 C 
HETATM    8  C22 UNL     1      -3.696   5.428  21.901  1.00  0.00     0.052 C 
HETATM    9  C23 UNL     1      -4.864   5.663  20.968  1.00  0.00     0.018 C 
HETATM   10  C24 UNL     1      -2.554   6.260  21.395  1.00  0.00     0.070 C 
ENDROOT
BRANCH   4  11
HETATM   11  C6  UNL     1      -0.564   1.555  20.225  1.00  0.00     0.035 C 
HETATM   12  C7  UNL     1      -0.133   1.533  18.820  1.00  0.00     0.035 C 
HETATM   13  C8  UNL     1       0.037   0.201  18.130  1.00  0.00    -0.012 C 
HETATM   14  C9  UNL     1      -1.233  -0.419  17.645  1.00  0.00     0.009 C 
HETATM   15  C13 UNL     1       0.981  -0.747  18.781  1.00  0.00     0.010 C 
HETATM   16  C10 UNL     1      -1.804  -1.466  18.555  1.00  0.00    -0.011 C 
HETATM   17  C11 UNL     1      -0.805  -2.319  19.250  1.00  0.00     0.010 C 
HETATM   18  C17 UNL     1      -2.878  -0.926  19.456  1.00  0.00     0.042 C 
HETATM   19  C12 UNL     1       0.349  -1.574  19.873  1.00  0.00    -0.010 C 
HETATM   20  C14 UNL     1       0.005  -0.784  21.081  1.00  0.00    -0.005 C 
HETATM   21  C15 UNL     1      -1.429  -0.944  21.525  1.00  0.00     0.043 C 
HETATM   22  C19 UNL     1       0.340   0.643  21.088  1.00  0.00     0.036 C 
HETATM   23  C16 UNL     1      -2.389  -0.190  20.659  1.00  0.00     0.061 C 
HETATM   24  C18 UNL     1      -2.027   1.231  20.430  1.00  0.00     0.068 C 
BRANCH  23  25
HETATM   25  O2  UNL     1      -3.565  -0.149  21.482  1.00  0.00    -0.390 OA
ATOM     26  H2  UNL     1      -3.839   0.755  21.389  1.00  0.00     0.210 HD
ENDBRANCH  23  25
ENDBRANCH   4  11
BRANCH   1  27
HETATM   27  C3  UNL     1      -1.203   6.738  19.460  1.00  0.00     0.089 C 
BRANCH  27  28
HETATM   28  C2  UNL     1      -1.358   8.200  19.744  1.00  0.00     0.211 C 
BRANCH  28  29
HETATM   29  O1  UNL     1      -2.287   8.825  18.923  1.00  0.00    -0.391 OA
HETATM   30  C1  UNL     1      -3.289   9.497  19.597  1.00  0.00     0.201 C 
ENDBRANCH  28  29
ENDBRANCH  27  28
ENDBRANCH   1  27
BRANCH   7  31
HETATM   31  C21 UNL     1      -4.192   3.460  23.235  1.00  0.00     0.197 C 
BRANCH  31  32
HETATM   32  O4  UNL     1      -4.033   2.088  23.370  1.00  0.00    -0.398 OA
ATOM     33  H4  UNL     1      -4.878   1.656  23.417  1.00  0.00     0.209 HD
ENDBRANCH  31  32
ENDBRANCH   7  31
TORSDOF 7
ENDMDL
MODEL 5
REMARK VINA RESULT: -6.397378331      3.196      7.309
REMARK  7 active torsions:
REMARK  status: ('A' for Active; 'I' for Inactive)
REMARK    1  A    between atoms: O1_2  and  C2_3 
REMARK    2  A    between atoms: C2_3  and  C3_4 
REMARK    3  A    between atoms: C3_4  and  N1_5 
REMARK    4  A    between atoms: N2_8  and  C6_10 
REMARK    5  A    between atoms: C16_20  and  O2_21 
REMARK    6  A    between atoms: C20_27  and  C21_28 
REMARK    7  A    between atoms: C21_28  and  O4_29 
ROOT
HETATM    1  N1  UNL     1      -2.744   5.326  21.340  1.00  0.00    -0.364 N 
HETATM    2  C4  UNL     1      -2.559   5.092  22.745  1.00  0.00     0.211 C 
HETATM    3  C5  UNL     1      -3.771   4.396  23.282  1.00  0.00     0.133 C 
HETATM    4  N2  UNL     1      -4.135   4.810  24.530  1.00  0.00    -0.364 N 
ATOM      5  H2  UNL     1      -5.029   5.299  24.575  1.00  0.00     0.162 HD
HETATM    6  O3  UNL     1      -3.771   3.037  23.021  1.00  0.00    -0.330 OA
HETATM    7  C20 UNL     1      -2.777   2.505  22.294  1.00  0.00     0.162 C 
HETATM    8  C22 UNL     1      -2.644   2.917  20.880  1.00  0.00     0.052 C 
HETATM    9  C23 UNL     1      -1.178   2.949  20.502  1.00  0.00     0.018 C 
HETATM   10  C24 UNL     1      -3.212   4.266  20.547  1.00  0.00     0.070 C 
ENDROOT
BRANCH   4  11
HETATM   11  C6  UNL     1      -3.472   4.667  25.766  1.00  0.00     0.035 C 
HETATM   12  C7  UNL     1      -3.247   5.963  26.424  1.00  0.00     0.035 C 
HETATM   13  C8  UNL     1      -2.863   5.982  27.884  1.00  0.00    -0.012 C 
HETATM   14  C9  UNL     1      -1.419   5.708  28.154  1.00  0.00     0.009 C 
HETATM   15  C13 UNL     1      -3.808   5.300  28.809  1.00  0.00     0.010 C 
HETATM   16  C10 UNL     1      -1.116   4.294  28.553  1.00  0.00    -0.011 C 
HETATM   17  C11 UNL     1      -2.146   3.636  29.399  1.00  0.00     0.010 C 
HETATM   18  C17 UNL     1      -0.648   3.455  27.397  1.00  0.00     0.042 C 
HETATM   19  C12 UNL     1      -3.569   3.815  28.931  1.00  0.00    -0.010 C 
HETATM   20  C14 UNL     1      -3.923   3.063  27.702  1.00  0.00    -0.005 C 
HETATM   21  C15 UNL     1      -2.815   2.173  27.192  1.00  0.00     0.043 C 
HETATM   22  C19 UNL     1      -4.478   3.812  26.572  1.00  0.00     0.036 C 
HETATM   23  C16 UNL     1      -1.729   2.941  26.505  1.00  0.00     0.061 C 
HETATM   24  C18 UNL     1      -2.206   3.893  25.472  1.00  0.00     0.068 C 
BRANCH  23  25
HETATM   25  O2  UNL     1      -1.048   1.908  25.778  1.00  0.00    -0.390 OA
ATOM     26  H2  UNL     1      -0.174   1.951  26.146  1.00  0.00     0.210 HD
ENDBRANCH  23  25
ENDBRANCH   4  11
BRANCH   1  27
HETATM   27  C3  UNL     1      -2.941   6.632  20.897  1.00  0.00     0.089 C 
BRANCH  27  28
HETATM   28  C2  UNL     1      -2.065   7.132  19.790  1.00  0.00     0.211 C 
BRANCH  28  29
HETATM   29  O1  UNL     1      -2.546   8.285  19.184  1.00  0.00    -0.391 OA
HETATM   30  C1  UNL     1      -3.702   8.790  19.748  1.00  0.00     0.201 C 
ENDBRANCH  28  29
ENDBRANCH  27  28
ENDBRANCH   1  27
BRANCH   7  31
HETATM   31  C21 UNL     1      -3.006   0.979  22.298  1.00  0.00     0.197 C 
BRANCH  31  32
HETATM   32  O4  UNL     1      -2.525   0.415  23.470  1.00  0.00    -0.398 OA
ATOM     33  H4  UNL     1      -2.282  -0.492  23.330  1.00  0.00     0.209 HD
ENDBRANCH  31  32
ENDBRANCH   7  31
TORSDOF 7
ENDMDL
