MODEL 1
REMARK VINA RESULT: -7.335442369      0.000      0.000
REMARK  7 active torsions:
REMARK  status: ('A' for Active; 'I' for Inactive)
REMARK    1  A    between atoms: C2_2  and  C3_3 
REMARK       I    between atoms: C3_3  and  N1_5 
REMARK    2  A    between atoms: N1_5  and  C4_7 
REMARK    3  A    between atoms: C4_7  and  C5_8 
REMARK       I    between atoms: C5_8  and  N2_10 
REMARK    4  A    between atoms: N2_10  and  C6_12 
REMARK    5  A    between atoms: C6_12  and  C7_13 
REMARK    6  A    between atoms: C7_13  and  O3_14 
REMARK    7  A    between atoms: C17_25  and  C18_26 
ROOT
HETATM    1  C4  UNL     1      -2.462   2.557  21.367  1.00  0.00     0.114 C 
HETATM    2  C15 UNL     1      -3.952   2.431  21.511  1.00  0.00     0.041 C 
HETATM    3  C16 UNL     1      -4.491   3.840  21.558  1.00  0.00     0.010 C 
HETATM    4  C17 UNL     1      -3.579   4.582  20.631  1.00  0.00     0.020 C 
HETATM    5  C23 UNL     1      -2.260   3.848  20.605  1.00  0.00     0.048 C 
ENDROOT
BRANCH   1   6
HETATM    6  N1  UNL     1      -1.797   2.710  22.638  1.00  0.00    -0.343 N 
HETATM    7  C3  UNL     1      -0.555   3.334  22.787  1.00  0.00     0.218 C 
HETATM    8  O1  UNL     1       0.129   3.835  21.868  1.00  0.00    -0.274 OA
ATOM      9  H1  UNL     1      -2.256   2.343  23.471  1.00  0.00     0.163 HD
BRANCH   7  10
HETATM   10  C2  UNL     1       0.055   3.438  24.162  1.00  0.00     0.098 C 
HETATM   11  C1  UNL     1      -0.896   3.954  25.186  1.00  0.00     0.014 C 
ENDBRANCH   7  10
ENDBRANCH   1   6
BRANCH   1  12
HETATM   12  C5  UNL     1      -1.907   1.391  20.636  1.00  0.00     0.246 C 
HETATM   13  O2  UNL     1      -2.506   0.287  20.615  1.00  0.00    -0.271 OA
HETATM   14  N2  UNL     1      -0.679   1.497  19.938  1.00  0.00    -0.348 N 
ATOM     15  H2  UNL     1      -0.202   2.398  19.966  1.00  0.00     0.163 HD
BRANCH  14  16
HETATM   16  C6  UNL     1      -0.045   0.434  19.191  1.00  0.00     0.054 C 
HETATM   17  C8  UNL     1       0.212  -0.696  20.121  1.00  0.00     0.033 C 
HETATM   18  C9  UNL     1       0.147  -2.064  19.551  1.00  0.00     0.003 C 
HETATM   19  C10 UNL     1      -1.217  -2.212  18.908  1.00  0.00     0.009 C 
HETATM   20  C11 UNL     1      -1.263  -1.278  17.749  1.00  0.00    -0.045 C 
HETATM   21  C12 UNL     1      -0.472  -1.935  16.609  1.00  0.00     0.015 C 
HETATM   22  C13 UNL     1      -2.723  -1.299  17.257  1.00  0.00     0.015 C 
HETATM   23  C14 UNL     1      -0.853   0.117  17.984  1.00  0.00     0.042 C 
BRANCH  16  24
HETATM   24  C7  UNL     1       1.343   0.905  18.727  1.00  0.00     0.195 C 
BRANCH  24  25
HETATM   25  O3  UNL     1       1.306   1.096  17.326  1.00  0.00    -0.398 OA
ATOM     26  H3  UNL     1       0.870   1.921  17.146  1.00  0.00     0.209 HD
ENDBRANCH  24  25
ENDBRANCH  16  24
ENDBRANCH  14  16
ENDBRANCH   1  12
BRANCH   4  27
HETATM   27  C18 UNL     1      -3.419   5.992  21.174  1.00  0.00     0.149 C 
HETATM   28  C19 UNL     1      -4.429   6.935  20.589  1.00  0.00     0.200 C 
HETATM   29  O4  UNL     1      -3.889   8.226  20.627  1.00  0.00    -0.386 OA
HETATM   30  C20 UNL     1      -2.871   8.355  19.691  1.00  0.00     0.199 C 
HETATM   31  C21 UNL     1      -2.185   7.016  19.570  1.00  0.00     0.141 C 
HETATM   32  C22 UNL     1      -0.755   7.141  19.101  1.00  0.00     0.042 C 
HETATM   33  O5  UNL     1      -2.155   6.438  20.838  1.00  0.00    -0.376 OA
ENDBRANCH   4  27
TORSDOF 7
ENDMDL
MODEL 2
REMARK VINA RESULT: -6.812853623      1.451      2.542
REMARK  7 active torsions:
REMARK  status: ('A' for Active; 'I' for Inactive)
REMARK    1  A    between atoms: C2_2  and  C3_3 
REMARK       I    between atoms: C3_3  and  N1_5 
REMARK    2  A    between atoms: N1_5  and  C4_7 
REMARK    3  A    between atoms: C4_7  and  C5_8 
REMARK       I    between atoms: C5_8  and  N2_10 
REMARK    4  A    between atoms: N2_10  and  C6_12 
REMARK    5  A    between atoms: C6_12  and  C7_13 
REMARK    6  A    between atoms: C7_13  and  O3_14 
REMARK    7  A    between atoms: C17_25  and  C18_26 
ROOT
HETATM    1  C4  UNL     1      -1.419   2.954  21.446  1.00  0.00     0.114 C 
HETATM    2  C15 UNL     1      -2.790   2.535  21.893  1.00  0.00     0.041 C 
HETATM    3  C16 UNL     1      -3.604   3.802  21.998  1.00  0.00     0.010 C 
HETATM    4  C17 UNL     1      -3.068   4.642  20.880  1.00  0.00     0.020 C 
HETATM    5  C23 UNL     1      -1.651   4.196  20.613  1.00  0.00     0.048 C 
ENDROOT
BRANCH   1   6
HETATM    6  N1  UNL     1      -0.573   3.340  22.550  1.00  0.00    -0.343 N 
HETATM    7  C3  UNL     1      -0.199   2.468  23.576  1.00  0.00     0.218 C 
HETATM    8  O1  UNL     1      -0.533   1.267  23.675  1.00  0.00    -0.274 OA
ATOM      9  H1  UNL     1      -0.230   4.300  22.583  1.00  0.00     0.163 HD
BRANCH   7  10
HETATM   10  C2  UNL     1       0.686   2.976  24.685  1.00  0.00     0.098 C 
HETATM   11  C1  UNL     1       1.350   1.885  25.451  1.00  0.00     0.014 C 
ENDBRANCH   7  10
ENDBRANCH   1   6
BRANCH   1  12
HETATM   12  C5  UNL     1      -0.773   1.874  20.660  1.00  0.00     0.246 C 
HETATM   13  O2  UNL     1       0.353   2.037  20.127  1.00  0.00    -0.271 OA
HETATM   14  N2  UNL     1      -1.416   0.624  20.489  1.00  0.00    -0.348 N 
ATOM     15  H2  UNL     1      -2.332   0.506  20.924  1.00  0.00     0.163 HD
BRANCH  14  16
HETATM   16  C6  UNL     1      -0.884  -0.499  19.750  1.00  0.00     0.054 C 
HETATM   17  C8  UNL     1      -0.733  -0.088  18.330  1.00  0.00     0.033 C 
HETATM   18  C9  UNL     1       0.389  -0.695  17.571  1.00  0.00     0.003 C 
HETATM   19  C10 UNL     1       1.659  -0.399  18.343  1.00  0.00     0.009 C 
HETATM   20  C11 UNL     1       1.578  -1.145  19.629  1.00  0.00    -0.045 C 
HETATM   21  C12 UNL     1       1.911  -2.612  19.321  1.00  0.00     0.015 C 
HETATM   22  C13 UNL     1       2.773  -0.655  20.468  1.00  0.00     0.015 C 
HETATM   23  C14 UNL     1       0.343  -1.005  20.420  1.00  0.00     0.042 C 
BRANCH  16  24
HETATM   24  C7  UNL     1      -1.924  -1.631  19.739  1.00  0.00     0.195 C 
BRANCH  24  25
HETATM   25  O3  UNL     1      -1.532  -2.609  20.682  1.00  0.00    -0.398 OA
ATOM     26  H3  UNL     1      -1.800  -3.463  20.361  1.00  0.00     0.209 HD
ENDBRANCH  24  25
ENDBRANCH  16  24
ENDBRANCH  14  16
ENDBRANCH   1  12
BRANCH   4  27
HETATM   27  C18 UNL     1      -3.119   6.092  21.328  1.00  0.00     0.149 C 
HETATM   28  C19 UNL     1      -4.343   6.794  20.816  1.00  0.00     0.200 C 
HETATM   29  O4  UNL     1      -4.052   8.160  20.725  1.00  0.00    -0.386 OA
HETATM   30  C20 UNL     1      -3.178   8.404  19.673  1.00  0.00     0.199 C 
HETATM   31  C21 UNL     1      -2.271   7.204  19.542  1.00  0.00     0.141 C 
HETATM   32  C22 UNL     1      -0.946   7.551  18.907  1.00  0.00     0.042 C 
HETATM   33  O5  UNL     1      -2.002   6.733  20.827  1.00  0.00    -0.376 OA
ENDBRANCH   4  27
TORSDOF 7
ENDMDL
MODEL 3
REMARK VINA RESULT: -6.694732336      1.884      3.506
REMARK  7 active torsions:
REMARK  status: ('A' for Active; 'I' for Inactive)
REMARK    1  A    between atoms: C2_2  and  C3_3 
REMARK       I    between atoms: C3_3  and  N1_5 
REMARK    2  A    between atoms: N1_5  and  C4_7 
REMARK    3  A    between atoms: C4_7  and  C5_8 
REMARK       I    between atoms: C5_8  and  N2_10 
REMARK    4  A    between atoms: N2_10  and  C6_12 
REMARK    5  A    between atoms: C6_12  and  C7_13 
REMARK    6  A    between atoms: C7_13  and  O3_14 
REMARK    7  A    between atoms: C17_25  and  C18_26 
ROOT
HETATM    1  C4  UNL     1      -1.144   3.488  21.238  1.00  0.00     0.114 C 
HETATM    2  C15 UNL     1      -0.608   3.043  22.569  1.00  0.00     0.041 C 
HETATM    3  C16 UNL     1      -1.619   3.483  23.599  1.00  0.00     0.010 C 
HETATM    4  C17 UNL     1      -2.924   3.327  22.880  1.00  0.00     0.020 C 
HETATM    5  C23 UNL     1      -2.648   3.455  21.402  1.00  0.00     0.048 C 
ENDROOT
BRANCH   1   6
HETATM    6  N1  UNL     1      -0.785   4.851  20.927  1.00  0.00    -0.343 N 
HETATM    7  C3  UNL     1      -1.605   5.715  20.196  1.00  0.00     0.218 C 
HETATM    8  O1  UNL     1      -2.730   5.437  19.726  1.00  0.00    -0.274 OA
ATOM      9  H1  UNL     1       0.114   5.202  21.258  1.00  0.00     0.163 HD
BRANCH   7  10
HETATM   10  C2  UNL     1      -1.132   7.121  19.923  1.00  0.00     0.098 C 
HETATM   11  C1  UNL     1      -2.203   8.004  19.384  1.00  0.00     0.014 C 
ENDBRANCH   7  10
ENDBRANCH   1   6
BRANCH   1  12
HETATM   12  C5  UNL     1      -0.684   2.579  20.160  1.00  0.00     0.246 C 
HETATM   13  O2  UNL     1      -0.605   2.967  18.967  1.00  0.00    -0.271 OA
HETATM   14  N2  UNL     1      -0.323   1.241  20.451  1.00  0.00    -0.348 N 
ATOM     15  H2  UNL     1      -0.395   0.938  21.422  1.00  0.00     0.163 HD
BRANCH  14  16
HETATM   16  C6  UNL     1       0.141   0.268  19.485  1.00  0.00     0.054 C 
HETATM   17  C8  UNL     1       0.486  -0.979  20.215  1.00  0.00     0.033 C 
HETATM   18  C9  UNL     1       0.272  -2.259  19.496  1.00  0.00     0.003 C 
HETATM   19  C10 UNL     1      -1.180  -2.287  19.062  1.00  0.00     0.009 C 
HETATM   20  C11 UNL     1      -1.360  -1.209  18.051  1.00  0.00    -0.045 C 
HETATM   21  C12 UNL     1      -0.783  -1.731  16.728  1.00  0.00     0.015 C 
HETATM   22  C13 UNL     1      -2.877  -1.129  17.796  1.00  0.00     0.015 C 
HETATM   23  C14 UNL     1      -0.856   0.133  18.392  1.00  0.00     0.042 C 
BRANCH  16  24
HETATM   24  C7  UNL     1       1.461   0.761  18.871  1.00  0.00     0.195 C 
BRANCH  24  25
HETATM   25  O3  UNL     1       1.221   1.127  17.526  1.00  0.00    -0.398 OA
ATOM     26  H3  UNL     1       1.768   1.875  17.315  1.00  0.00     0.209 HD
ENDBRANCH  24  25
ENDBRANCH  16  24
ENDBRANCH  14  16
ENDBRANCH   1  12
BRANCH   4  27
HETATM   27  C18 UNL     1      -3.853   4.425  23.368  1.00  0.00     0.149 C 
HETATM   28  C19 UNL     1      -4.720   3.962  24.502  1.00  0.00     0.200 C 
HETATM   29  O4  UNL     1      -5.890   4.731  24.493  1.00  0.00    -0.386 OA
HETATM   30  C20 UNL     1      -6.695   4.380  23.416  1.00  0.00     0.199 C 
HETATM   31  C21 UNL     1      -5.790   3.971  22.280  1.00  0.00     0.141 C 
HETATM   32  C22 UNL     1      -6.439   4.159  20.929  1.00  0.00     0.042 C 
HETATM   33  O5  UNL     1      -4.666   4.796  22.315  1.00  0.00    -0.376 OA
ENDBRANCH   4  27
TORSDOF 7
ENDMDL
MODEL 4
REMARK VINA RESULT: -6.665784590      2.205      7.538
REMARK  7 active torsions:
REMARK  status: ('A' for Active; 'I' for Inactive)
REMARK    1  A    between atoms: C2_2  and  C3_3 
REMARK       I    between atoms: C3_3  and  N1_5 
REMARK    2  A    between atoms: N1_5  and  C4_7 
REMARK    3  A    between atoms: C4_7  and  C5_8 
REMARK       I    between atoms: C5_8  and  N2_10 
REMARK    4  A    between atoms: N2_10  and  C6_12 
REMARK    5  A    between atoms: C6_12  and  C7_13 
REMARK    6  A    between atoms: C7_13  and  O3_14 
REMARK    7  A    between atoms: C17_25  and  C18_26 
ROOT
HETATM    1  C4  UNL     1      -1.459   3.497  21.980  1.00  0.00     0.114 C 
HETATM    2  C15 UNL     1      -2.601   2.555  21.731  1.00  0.00     0.041 C 
HETATM    3  C16 UNL     1      -2.189   1.691  20.564  1.00  0.00     0.010 C 
HETATM    4  C17 UNL     1      -0.713   1.532  20.765  1.00  0.00     0.020 C 
HETATM    5  C23 UNL     1      -0.228   2.729  21.547  1.00  0.00     0.048 C 
ENDROOT
BRANCH   1   6
HETATM    6  N1  UNL     1      -1.528   4.678  21.152  1.00  0.00    -0.343 N 
HETATM    7  C3  UNL     1      -2.414   5.733  21.389  1.00  0.00     0.218 C 
HETATM    8  O1  UNL     1      -3.243   5.799  22.323  1.00  0.00    -0.274 OA
ATOM      9  H1  UNL     1      -0.898   4.746  20.353  1.00  0.00     0.163 HD
BRANCH   7  10
HETATM   10  C2  UNL     1      -2.408   6.920  20.459  1.00  0.00     0.098 C 
HETATM   11  C1  UNL     1      -1.103   7.115  19.769  1.00  0.00     0.014 C 
ENDBRANCH   7  10
ENDBRANCH   1   6
BRANCH   1  12
HETATM   12  C5  UNL     1      -1.397   3.879  23.412  1.00  0.00     0.246 C 
HETATM   13  O2  UNL     1      -0.437   4.547  23.870  1.00  0.00    -0.271 OA
HETATM   14  N2  UNL     1      -2.428   3.495  24.304  1.00  0.00    -0.348 N 
ATOM     15  H2  UNL     1      -3.200   2.950  23.920  1.00  0.00     0.163 HD
BRANCH  14  16
HETATM   16  C6  UNL     1      -2.478   3.811  25.714  1.00  0.00     0.054 C 
HETATM   17  C8  UNL     1      -3.483   2.923  26.352  1.00  0.00     0.033 C 
HETATM   18  C9  UNL     1      -3.226   2.518  27.757  1.00  0.00     0.003 C 
HETATM   19  C10 UNL     1      -1.856   1.871  27.789  1.00  0.00     0.009 C 
HETATM   20  C11 UNL     1      -0.859   2.931  27.475  1.00  0.00    -0.045 C 
HETATM   21  C12 UNL     1      -0.675   3.768  28.749  1.00  0.00     0.015 C 
HETATM   22  C13 UNL     1       0.486   2.200  27.307  1.00  0.00     0.015 C 
HETATM   23  C14 UNL     1      -1.107   3.766  26.287  1.00  0.00     0.042 C 
BRANCH  16  24
HETATM   24  C7  UNL     1      -3.023   5.238  25.890  1.00  0.00     0.195 C 
BRANCH  24  25
HETATM   25  O3  UNL     1      -4.187   5.373  25.098  1.00  0.00    -0.398 OA
ATOM     26  H3  UNL     1      -3.942   5.755  24.264  1.00  0.00     0.209 HD
ENDBRANCH  24  25
ENDBRANCH  16  24
ENDBRANCH  14  16
ENDBRANCH   1  12
BRANCH   4  27
HETATM   27  C18 UNL     1      -0.065   1.467  19.393  1.00  0.00     0.149 C 
HETATM   28  C19 UNL     1      -0.690   0.410  18.529  1.00  0.00     0.200 C 
HETATM   29  O4  UNL     1       0.267  -0.008  17.597  1.00  0.00    -0.386 OA
HETATM   30  C20 UNL     1       1.255  -0.761  18.218  1.00  0.00     0.199 C 
HETATM   31  C21 UNL     1       1.429  -0.225  19.619  1.00  0.00     0.141 C 
HETATM   32  C22 UNL     1       2.808  -0.496  20.173  1.00  0.00     0.042 C 
HETATM   33  O5  UNL     1       1.271   1.160  19.566  1.00  0.00    -0.376 OA
ENDBRANCH   4  27
TORSDOF 7
ENDMDL
MODEL 5
REMARK VINA RESULT: -6.565395318      2.042      4.739
REMARK  7 active torsions:
REMARK  status: ('A' for Active; 'I' for Inactive)
REMARK    1  A    between atoms: C2_2  and  C3_3 
REMARK       I    between atoms: C3_3  and  N1_5 
REMARK    2  A    between atoms: N1_5  and  C4_7 
REMARK    3  A    between atoms: C4_7  and  C5_8 
REMARK       I    between atoms: C5_8  and  N2_10 
REMARK    4  A    between atoms: N2_10  and  C6_12 
REMARK    5  A    between atoms: C6_12  and  C7_13 
REMARK    6  A    between atoms: C7_13  and  O3_14 
REMARK    7  A    between atoms: C17_25  and  C18_26 
ROOT
HETATM    1  C4  UNL     1      -1.211   2.650  21.601  1.00  0.00     0.114 C 
HETATM    2  C15 UNL     1      -0.598   3.991  21.883  1.00  0.00     0.041 C 
HETATM    3  C16 UNL     1      -0.651   4.172  23.381  1.00  0.00     0.010 C 
HETATM    4  C17 UNL     1      -0.436   2.783  23.897  1.00  0.00     0.020 C 
HETATM    5  C23 UNL     1      -0.904   1.823  22.830  1.00  0.00     0.048 C 
ENDROOT
BRANCH   1   6
HETATM    6  N1  UNL     1      -2.648   2.714  21.486  1.00  0.00    -0.343 N 
HETATM    7  C3  UNL     1      -3.324   3.755  20.843  1.00  0.00     0.218 C 
HETATM    8  O1  UNL     1      -2.793   4.744  20.292  1.00  0.00    -0.274 OA
ATOM      9  H1  UNL     1      -3.200   1.961  21.897  1.00  0.00     0.163 HD
BRANCH   7  10
HETATM   10  C2  UNL     1      -4.831   3.727  20.784  1.00  0.00     0.098 C 
HETATM   11  C1  UNL     1      -5.389   2.347  20.758  1.00  0.00     0.014 C 
ENDBRANCH   7  10
ENDBRANCH   1   6
BRANCH   1  12
HETATM   12  C5  UNL     1      -0.626   2.055  20.374  1.00  0.00     0.246 C 
HETATM   13  O2  UNL     1      -0.412   2.750  19.349  1.00  0.00    -0.271 OA
HETATM   14  N2  UNL     1      -0.294   0.679  20.328  1.00  0.00    -0.348 N 
ATOM     15  H2  UNL     1      -0.476   0.126  21.166  1.00  0.00     0.163 HD
BRANCH  14  16
HETATM   16  C6  UNL     1       0.283  -0.008  19.194  1.00  0.00     0.054 C 
HETATM   17  C8  UNL     1       0.722  -1.354  19.642  1.00  0.00     0.033 C 
HETATM   18  C9  UNL     1       0.646  -2.451  18.647  1.00  0.00     0.003 C 
HETATM   19  C10 UNL     1      -0.785  -2.503  18.151  1.00  0.00     0.009 C 
HETATM   20  C11 UNL     1      -1.037  -1.243  17.398  1.00  0.00    -0.045 C 
HETATM   21  C12 UNL     1      -0.380  -1.403  16.020  1.00  0.00     0.015 C 
HETATM   22  C13 UNL     1      -2.548  -1.235  17.097  1.00  0.00     0.015 C 
HETATM   23  C14 UNL     1      -0.669   0.025  18.052  1.00  0.00     0.042 C 
BRANCH  16  24
HETATM   24  C7  UNL     1       1.568   0.720  18.767  1.00  0.00     0.195 C 
BRANCH  24  25
HETATM   25  O3  UNL     1       1.358   1.286  17.487  1.00  0.00    -0.398 OA
ATOM     26  H3  UNL     1       1.969   0.887  16.878  1.00  0.00     0.209 HD
ENDBRANCH  24  25
ENDBRANCH  16  24
ENDBRANCH  14  16
ENDBRANCH   1  12
BRANCH   4  27
HETATM   27  C18 UNL     1      -1.249   2.634  25.172  1.00  0.00     0.149 C 
HETATM   28  C19 UNL     1      -1.399   3.941  25.894  1.00  0.00     0.200 C 
HETATM   29  O4  UNL     1      -1.587   3.664  27.254  1.00  0.00    -0.386 OA
HETATM   30  C20 UNL     1      -0.405   3.209  27.826  1.00  0.00     0.199 C 
HETATM   31  C21 UNL     1       0.349   2.438  26.770  1.00  0.00     0.141 C 
HETATM   32  C22 UNL     1       1.283   1.411  27.364  1.00  0.00     0.042 C 
HETATM   33  O5  UNL     1      -0.586   1.748  25.999  1.00  0.00    -0.376 OA
ENDBRANCH   4  27
TORSDOF 7
ENDMDL
