MODEL 1
REMARK VINA RESULT: -5.131839315      0.000      0.000
REMARK  7 active torsions:
REMARK  status: ('A' for Active; 'I' for Inactive)
REMARK    1  A    between atoms: N1_2  and  C4_5 
REMARK    2  A    between atoms: C4_5  and  C5_6 
REMARK    3  A    between atoms: C5_6  and  N2_7 
REMARK    4  A    between atoms: N2_7  and  C6_9 
REMARK    5  A    between atoms: C6_9  and  N3_11 
REMARK    6  A    between atoms: N3_11  and  N4_13 
REMARK    7  A    between atoms: N4_13  and  C7_15 
ROOT
HETATM    1  N3  UNL     1      42.187  -5.304  28.679  1.00  0.00    -0.274 N 
ATOM      2  H3  UNL     1      41.797  -6.017  28.062  1.00  0.00     0.189 HD
ENDROOT
BRANCH   1   3
HETATM    3  C6  UNL     1      42.762  -5.672  29.926  1.00  0.00     0.186 C 
HETATM    4  S1  UNL     1      43.001  -4.503  31.074  1.00  0.00    -0.040 SA
BRANCH   3   5
HETATM    5  N2  UNL     1      43.103  -7.023  30.193  1.00  0.00    -0.364 N 
ATOM      6  H2  UNL     1      42.713  -7.752  29.596  1.00  0.00     0.162 HD
BRANCH   5   7
HETATM    7  C5  UNL     1      43.976  -7.410  31.269  1.00  0.00     0.150 C 
BRANCH   7   8
HETATM    8  C4  UNL     1      44.600  -8.721  30.969  1.00  0.00     0.255 C 
BRANCH   8   9
HETATM    9  N1  UNL     1      45.870  -8.978  31.600  1.00  0.00    -0.077 N 
HETATM   10  C1  UNL     1      45.799  -9.886  32.723  1.00  0.00     0.271 C 
HETATM   11  C2  UNL     1      46.326  -7.689  32.149  1.00  0.00     0.271 C 
HETATM   12  C3  UNL     1      46.889  -9.430  30.697  1.00  0.00     0.271 C 
ENDBRANCH   8   9
ENDBRANCH   7   8
ENDBRANCH   5   7
ENDBRANCH   3   5
ENDBRANCH   1   3
BRANCH   1  13
HETATM   13  N4  UNL     1      42.162  -3.971  28.307  1.00  0.00    -0.269 N 
ATOM     14  H4  UNL     1      41.473  -3.343  28.722  1.00  0.00     0.190 HD
BRANCH  13  15
HETATM   15  C7  UNL     1      43.097  -3.465  27.342  1.00  0.00     0.190 C 
HETATM   16  N5  UNL     1      43.683  -2.347  27.333  1.00  0.00    -0.360 N 
HETATM   17  C8  UNL     1      44.567  -2.137  26.224  1.00  0.00     0.142 C 
ATOM     18  H5  UNL     1      43.537  -1.646  28.060  1.00  0.00     0.162 HD
HETATM   19  C9  UNL     1      44.158  -3.257  25.275  1.00  0.00     0.142 C 
HETATM   20  N6  UNL     1      43.522  -4.199  26.187  1.00  0.00    -0.360 N 
ATOM     21  H6  UNL     1      43.401  -5.200  26.031  1.00  0.00     0.162 HD
ENDBRANCH  13  15
ENDBRANCH   1  13
TORSDOF 7
ENDMDL
MODEL 2
REMARK VINA RESULT: -5.105034687      0.089      1.027
REMARK  7 active torsions:
REMARK  status: ('A' for Active; 'I' for Inactive)
REMARK    1  A    between atoms: N1_2  and  C4_5 
REMARK    2  A    between atoms: C4_5  and  C5_6 
REMARK    3  A    between atoms: C5_6  and  N2_7 
REMARK    4  A    between atoms: N2_7  and  C6_9 
REMARK    5  A    between atoms: C6_9  and  N3_11 
REMARK    6  A    between atoms: N3_11  and  N4_13 
REMARK    7  A    between atoms: N4_13  and  C7_15 
ROOT
HETATM    1  N3  UNL     1      42.150  -5.262  28.663  1.00  0.00    -0.274 N 
ATOM      2  H3  UNL     1      41.748  -5.968  28.047  1.00  0.00     0.189 HD
ENDROOT
BRANCH   1   3
HETATM    3  C6  UNL     1      42.721  -5.639  29.909  1.00  0.00     0.186 C 
HETATM    4  S1  UNL     1      42.985  -4.474  31.056  1.00  0.00    -0.040 SA
BRANCH   3   5
HETATM    5  N2  UNL     1      43.038  -6.996  30.176  1.00  0.00    -0.364 N 
ATOM      6  H2  UNL     1      42.631  -7.718  29.582  1.00  0.00     0.162 HD
BRANCH   5   7
HETATM    7  C5  UNL     1      43.908  -7.398  31.249  1.00  0.00     0.150 C 
BRANCH   7   8
HETATM    8  C4  UNL     1      44.594  -8.665  30.897  1.00  0.00     0.255 C 
BRANCH   8   9
HETATM    9  N1  UNL     1      45.858  -8.902  31.546  1.00  0.00    -0.077 N 
HETATM   10  C1  UNL     1      46.884  -9.423  30.669  1.00  0.00     0.271 C 
HETATM   11  C2  UNL     1      45.616  -9.950  32.553  1.00  0.00     0.271 C 
HETATM   12  C3  UNL     1      46.377  -7.763  32.247  1.00  0.00     0.271 C 
ENDBRANCH   8   9
ENDBRANCH   7   8
ENDBRANCH   5   7
ENDBRANCH   3   5
ENDBRANCH   1   3
BRANCH   1  13
HETATM   13  N4  UNL     1      42.143  -3.928  28.293  1.00  0.00    -0.269 N 
ATOM     14  H4  UNL     1      41.458  -3.292  28.704  1.00  0.00     0.190 HD
BRANCH  13  15
HETATM   15  C7  UNL     1      43.092  -3.432  27.336  1.00  0.00     0.190 C 
HETATM   16  N5  UNL     1      43.685  -2.318  27.330  1.00  0.00    -0.360 N 
HETATM   17  C8  UNL     1      44.582  -2.118  26.230  1.00  0.00     0.142 C 
ATOM     18  H5  UNL     1      43.538  -1.614  28.054  1.00  0.00     0.162 HD
HETATM   19  C9  UNL     1      44.175  -3.237  25.280  1.00  0.00     0.142 C 
HETATM   20  N6  UNL     1      43.522  -4.172  26.188  1.00  0.00    -0.360 N 
ATOM     21  H6  UNL     1      43.395  -5.173  26.034  1.00  0.00     0.162 HD
ENDBRANCH  13  15
ENDBRANCH   1  13
TORSDOF 7
ENDMDL
MODEL 3
REMARK VINA RESULT: -5.086416621      0.088      1.012
REMARK  7 active torsions:
REMARK  status: ('A' for Active; 'I' for Inactive)
REMARK    1  A    between atoms: N1_2  and  C4_5 
REMARK    2  A    between atoms: C4_5  and  C5_6 
REMARK    3  A    between atoms: C5_6  and  N2_7 
REMARK    4  A    between atoms: N2_7  and  C6_9 
REMARK    5  A    between atoms: C6_9  and  N3_11 
REMARK    6  A    between atoms: N3_11  and  N4_13 
REMARK    7  A    between atoms: N4_13  and  C7_15 
ROOT
HETATM    1  N3  UNL     1      42.151  -5.279  28.685  1.00  0.00    -0.274 N 
ATOM      2  H3  UNL     1      41.737  -5.987  28.079  1.00  0.00     0.189 HD
ENDROOT
BRANCH   1   3
HETATM    3  C6  UNL     1      42.752  -5.654  29.918  1.00  0.00     0.186 C 
HETATM    4  S1  UNL     1      43.077  -4.482  31.041  1.00  0.00    -0.040 SA
BRANCH   3   5
HETATM    5  N2  UNL     1      43.047  -7.015  30.192  1.00  0.00    -0.364 N 
ATOM      6  H2  UNL     1      42.699  -7.728  29.552  1.00  0.00     0.162 HD
BRANCH   5   7
HETATM    7  C5  UNL     1      43.814  -7.432  31.335  1.00  0.00     0.150 C 
BRANCH   7   8
HETATM    8  C4  UNL     1      44.536  -8.691  31.028  1.00  0.00     0.255 C 
BRANCH   8   9
HETATM    9  N1  UNL     1      45.806  -8.869  31.685  1.00  0.00    -0.077 N 
HETATM   10  C1  UNL     1      46.381  -7.648  32.204  1.00  0.00     0.271 C 
HETATM   11  C2  UNL     1      46.741  -9.351  30.653  1.00  0.00     0.271 C 
HETATM   12  C3  UNL     1      45.791  -9.857  32.725  1.00  0.00     0.271 C 
ENDBRANCH   8   9
ENDBRANCH   7   8
ENDBRANCH   5   7
ENDBRANCH   3   5
ENDBRANCH   1   3
BRANCH   1  13
HETATM   13  N4  UNL     1      42.132  -3.945  28.315  1.00  0.00    -0.269 N 
ATOM     14  H4  UNL     1      41.440  -3.317  28.723  1.00  0.00     0.190 HD
BRANCH  13  15
HETATM   15  C7  UNL     1      43.079  -3.440  27.361  1.00  0.00     0.190 C 
HETATM   16  N5  UNL     1      43.666  -2.323  27.359  1.00  0.00    -0.360 N 
HETATM   17  C8  UNL     1      44.563  -2.113  26.261  1.00  0.00     0.142 C 
ATOM     18  H5  UNL     1      43.513  -1.622  28.085  1.00  0.00     0.162 HD
HETATM   19  C9  UNL     1      44.163  -3.232  25.306  1.00  0.00     0.142 C 
HETATM   20  N6  UNL     1      43.516  -4.174  26.211  1.00  0.00    -0.360 N 
ATOM     21  H6  UNL     1      43.395  -5.175  26.053  1.00  0.00     0.162 HD
ENDBRANCH  13  15
ENDBRANCH   1  13
TORSDOF 7
ENDMDL
MODEL 4
REMARK VINA RESULT: -5.071663441      0.768      1.355
REMARK  7 active torsions:
REMARK  status: ('A' for Active; 'I' for Inactive)
REMARK    1  A    between atoms: N1_2  and  C4_5 
REMARK    2  A    between atoms: C4_5  and  C5_6 
REMARK    3  A    between atoms: C5_6  and  N2_7 
REMARK    4  A    between atoms: N2_7  and  C6_9 
REMARK    5  A    between atoms: C6_9  and  N3_11 
REMARK    6  A    between atoms: N3_11  and  N4_13 
REMARK    7  A    between atoms: N4_13  and  C7_15 
ROOT
HETATM    1  N3  UNL     1      42.849  -5.405  28.985  1.00  0.00    -0.274 N 
ATOM      2  H3  UNL     1      42.920  -6.383  28.705  1.00  0.00     0.189 HD
ENDROOT
BRANCH   1   3
HETATM    3  C6  UNL     1      43.287  -4.994  30.273  1.00  0.00     0.186 C 
HETATM    4  S1  UNL     1      42.656  -3.612  30.932  1.00  0.00    -0.040 SA
BRANCH   3   5
HETATM    5  N2  UNL     1      44.232  -5.768  30.995  1.00  0.00    -0.364 N 
ATOM      6  H2  UNL     1      45.048  -5.300  31.388  1.00  0.00     0.162 HD
BRANCH   5   7
HETATM    7  C5  UNL     1      44.089  -7.186  31.197  1.00  0.00     0.150 C 
BRANCH   7   8
HETATM    8  C4  UNL     1      45.388  -7.772  31.608  1.00  0.00     0.255 C 
BRANCH   8   9
HETATM    9  N1  UNL     1      45.589  -9.160  31.278  1.00  0.00    -0.077 N 
HETATM   10  C1  UNL     1      46.906  -9.460  30.760  1.00  0.00     0.271 C 
HETATM   11  C2  UNL     1      44.646  -9.466  30.189  1.00  0.00     0.271 C 
HETATM   12  C3  UNL     1      45.293 -10.064  32.352  1.00  0.00     0.271 C 
ENDBRANCH   8   9
ENDBRANCH   7   8
ENDBRANCH   5   7
ENDBRANCH   3   5
ENDBRANCH   1   3
BRANCH   1  13
HETATM   13  N4  UNL     1      42.325  -4.466  28.112  1.00  0.00    -0.269 N 
ATOM     14  H4  UNL     1      41.321  -4.286  28.107  1.00  0.00     0.190 HD
BRANCH  13  15
HETATM   15  C7  UNL     1      43.184  -3.745  27.215  1.00  0.00     0.190 C 
HETATM   16  N5  UNL     1      43.666  -2.588  27.357  1.00  0.00    -0.360 N 
HETATM   17  C8  UNL     1      44.496  -2.143  26.275  1.00  0.00     0.142 C 
ATOM     18  H5  UNL     1      43.480  -2.013  28.179  1.00  0.00     0.162 HD
HETATM   19  C9  UNL     1      44.161  -3.151  25.183  1.00  0.00     0.142 C 
HETATM   20  N6  UNL     1      43.639  -4.267  25.961  1.00  0.00    -0.360 N 
ATOM     21  H6  UNL     1      43.603  -5.243  25.665  1.00  0.00     0.162 HD
ENDBRANCH  13  15
ENDBRANCH   1  13
TORSDOF 7
ENDMDL
MODEL 5
REMARK VINA RESULT: -5.065408502      3.505      5.093
REMARK  7 active torsions:
REMARK  status: ('A' for Active; 'I' for Inactive)
REMARK    1  A    between atoms: N1_2  and  C4_5 
REMARK    2  A    between atoms: C4_5  and  C5_6 
REMARK    3  A    between atoms: C5_6  and  N2_7 
REMARK    4  A    between atoms: N2_7  and  C6_9 
REMARK    5  A    between atoms: C6_9  and  N3_11 
REMARK    6  A    between atoms: N3_11  and  N4_13 
REMARK    7  A    between atoms: N4_13  and  C7_15 
ROOT
HETATM    1  N3  UNL     1      42.258  -5.143  28.276  1.00  0.00    -0.274 N 
ATOM      2  H3  UNL     1      41.694  -5.220  27.429  1.00  0.00     0.189 HD
ENDROOT
BRANCH   1   3
HETATM    3  C6  UNL     1      41.853  -5.804  29.468  1.00  0.00     0.186 C 
HETATM    4  S1  UNL     1      43.014  -6.374  30.502  1.00  0.00    -0.040 SA
BRANCH   3   5
HETATM    5  N2  UNL     1      40.477  -5.951  29.780  1.00  0.00    -0.364 N 
ATOM      6  H2  UNL     1      39.931  -6.639  29.262  1.00  0.00     0.162 HD
BRANCH   5   7
HETATM    7  C5  UNL     1      39.818  -5.172  30.795  1.00  0.00     0.150 C 
BRANCH   7   8
HETATM    8  C4  UNL     1      39.370  -3.877  30.228  1.00  0.00     0.255 C 
BRANCH   8   9
HETATM    9  N1  UNL     1      40.135  -2.719  30.612  1.00  0.00    -0.077 N 
HETATM   10  C1  UNL     1      41.034  -2.945  31.722  1.00  0.00     0.271 C 
HETATM   11  C2  UNL     1      39.161  -1.716  31.077  1.00  0.00     0.271 C 
HETATM   12  C3  UNL     1      40.867  -2.119  29.533  1.00  0.00     0.271 C 
ENDBRANCH   8   9
ENDBRANCH   7   8
ENDBRANCH   5   7
ENDBRANCH   3   5
ENDBRANCH   1   3
BRANCH   1  13
HETATM   13  N4  UNL     1      43.422  -4.395  28.273  1.00  0.00    -0.269 N 
ATOM     14  H4  UNL     1      44.019  -4.384  29.101  1.00  0.00     0.190 HD
BRANCH  13  15
HETATM   15  C7  UNL     1      43.798  -3.635  27.114  1.00  0.00     0.190 C 
HETATM   16  N5  UNL     1      43.859  -2.382  26.989  1.00  0.00    -0.360 N 
HETATM   17  C8  UNL     1      44.273  -1.924  25.694  1.00  0.00     0.142 C 
ATOM     18  H5  UNL     1      43.631  -1.742  27.750  1.00  0.00     0.162 HD
HETATM   19  C9  UNL     1      44.127  -3.183  24.850  1.00  0.00     0.142 C 
HETATM   20  N6  UNL     1      44.177  -4.227  25.866  1.00  0.00    -0.360 N 
ATOM     21  H6  UNL     1      44.436  -5.203  25.715  1.00  0.00     0.162 HD
ENDBRANCH  13  15
ENDBRANCH   1  13
TORSDOF 7
ENDMDL
