MODEL 1
REMARK VINA RESULT: -5.418231581      0.000      0.000
REMARK  4 active torsions:
REMARK  status: ('A' for Active; 'I' for Inactive)
REMARK    1  A    between atoms: C4_7  and  C5_8 
REMARK    2  A    between atoms: C5_8  and  N2_9 
REMARK    3  A    between atoms: N2_9  and  C6_12 
REMARK    4  A    between atoms: C6_12  and  C7_13 
ROOT
HETATM    1  N2  UNL     1      42.688  -2.506  28.689  1.00  0.00    -0.074 N 
ATOM      2  H21 UNL     1      43.025  -1.575  28.444  1.00  0.00     0.277 HD
ATOM      3  H22 UNL     1      43.293  -2.699  29.487  1.00  0.00     0.277 HD
ENDROOT
BRANCH   1   4
HETATM    4  C5  UNL     1      42.934  -3.427  27.634  1.00  0.00     0.246 C 
BRANCH   4   5
HETATM    5  C4  UNL     1      44.136  -3.019  26.841  1.00  0.00     0.105 C 
HETATM    6  C1  UNL     1      44.049  -1.739  26.147  1.00  0.00     0.223 C 
HETATM    7  O1  UNL     1      43.867  -0.601  26.623  1.00  0.00    -0.273 OA
HETATM    8  N1  UNL     1      44.213  -1.994  24.765  1.00  0.00    -0.361 N 
HETATM    9  C2  UNL     1      43.876  -3.370  24.538  1.00  0.00     0.123 C 
ATOM     10  H1  UNL     1      44.515  -1.322  24.059  1.00  0.00     0.162 HD
HETATM   11  C3  UNL     1      44.460  -4.053  25.764  1.00  0.00     0.035 C 
ENDBRANCH   4   5
ENDBRANCH   1   4
BRANCH   1  12
HETATM   12  C6  UNL     1      41.294  -2.458  29.097  1.00  0.00     0.240 C 
BRANCH  12  13
HETATM   13  C7  UNL     1      41.042  -3.033  30.455  1.00  0.00     0.047 C 
HETATM   14  C8  UNL     1      42.317  -3.241  31.197  1.00  0.00     0.130 C 
HETATM   15  N3  UNL     1      42.646  -4.625  31.456  1.00  0.00    -0.367 N 
HETATM   16  C9  UNL     1      42.185  -5.699  30.633  1.00  0.00     0.167 C 
ATOM     17  H3  UNL     1      43.232  -4.845  32.262  1.00  0.00     0.161 HD
HETATM   18  S1  UNL     1      42.919  -7.139  30.575  1.00  0.00    -0.041 SA
HETATM   19  N4  UNL     1      41.007  -5.392  29.856  1.00  0.00    -0.367 N 
HETATM   20  C10 UNL     1      40.219  -4.304  30.379  1.00  0.00     0.130 C 
ATOM     21  H4  UNL     1      40.754  -5.902  29.010  1.00  0.00     0.161 HD
ENDBRANCH  12  13
ENDBRANCH   1  12
TORSDOF 4
ENDMDL
MODEL 2
REMARK VINA RESULT: -5.315215456      1.741      2.096
REMARK  4 active torsions:
REMARK  status: ('A' for Active; 'I' for Inactive)
REMARK    1  A    between atoms: C4_7  and  C5_8 
REMARK    2  A    between atoms: C5_8  and  N2_9 
REMARK    3  A    between atoms: N2_9  and  C6_12 
REMARK    4  A    between atoms: C6_12  and  C7_13 
ROOT
HETATM    1  N2  UNL     1      42.715  -4.648  27.922  1.00  0.00    -0.074 N 
ATOM      2  H21 UNL     1      43.586  -5.117  27.671  1.00  0.00     0.277 HD
ATOM      3  H22 UNL     1      42.092  -5.070  27.232  1.00  0.00     0.277 HD
ENDROOT
BRANCH   1   4
HETATM    4  C5  UNL     1      42.819  -3.245  27.717  1.00  0.00     0.246 C 
BRANCH   4   5
HETATM    5  C4  UNL     1      44.065  -2.910  26.957  1.00  0.00     0.105 C 
HETATM    6  C1  UNL     1      44.044  -1.662  26.200  1.00  0.00     0.223 C 
HETATM    7  O1  UNL     1      43.878  -0.498  26.614  1.00  0.00    -0.273 OA
HETATM    8  N1  UNL     1      44.257  -1.989  24.840  1.00  0.00    -0.361 N 
HETATM    9  C2  UNL     1      43.889  -3.365  24.664  1.00  0.00     0.123 C 
ATOM     10  H1  UNL     1      44.608  -1.361  24.116  1.00  0.00     0.162 HD
HETATM   11  C3  UNL     1      44.401  -4.003  25.945  1.00  0.00     0.035 C 
ENDBRANCH   4   5
ENDBRANCH   1   4
BRANCH   1  12
HETATM   12  C6  UNL     1      42.308  -5.004  29.271  1.00  0.00     0.240 C 
BRANCH  12  13
HETATM   13  C7  UNL     1      43.302  -4.625  30.322  1.00  0.00     0.047 C 
HETATM   14  C8  UNL     1      43.865  -5.832  30.990  1.00  0.00     0.130 C 
HETATM   15  N3  UNL     1      43.512  -5.969  32.387  1.00  0.00    -0.367 N 
HETATM   16  C9  UNL     1      42.323  -5.405  32.945  1.00  0.00     0.167 C 
ATOM     17  H3  UNL     1      44.140  -6.489  33.000  1.00  0.00     0.161 HD
HETATM   18  S1  UNL     1      41.652  -5.947  34.312  1.00  0.00    -0.041 SA
HETATM   19  N4  UNL     1      41.770  -4.308  32.186  1.00  0.00    -0.367 N 
HETATM   20  C10 UNL     1      42.716  -3.648  31.321  1.00  0.00     0.130 C 
ATOM     21  H4  UNL     1      40.792  -4.025  32.255  1.00  0.00     0.161 HD
ENDBRANCH  12  13
ENDBRANCH   1  12
TORSDOF 4
ENDMDL
MODEL 3
REMARK VINA RESULT: -5.300814618      1.905      2.473
REMARK  4 active torsions:
REMARK  status: ('A' for Active; 'I' for Inactive)
REMARK    1  A    between atoms: C4_7  and  C5_8 
REMARK    2  A    between atoms: C5_8  and  N2_9 
REMARK    3  A    between atoms: N2_9  and  C6_12 
REMARK    4  A    between atoms: C6_12  and  C7_13 
ROOT
HETATM    1  N2  UNL     1      42.793  -4.610  28.149  1.00  0.00    -0.074 N 
ATOM      2  H21 UNL     1      43.315  -5.212  27.512  1.00  0.00     0.277 HD
ATOM      3  H22 UNL     1      41.871  -5.042  28.072  1.00  0.00     0.277 HD
ENDROOT
BRANCH   1   4
HETATM    4  C5  UNL     1      42.765  -3.271  27.671  1.00  0.00     0.246 C 
BRANCH   4   5
HETATM    5  C4  UNL     1      44.029  -2.940  26.941  1.00  0.00     0.105 C 
HETATM    6  C1  UNL     1      44.037  -1.684  26.198  1.00  0.00     0.223 C 
HETATM    7  O1  UNL     1      43.874  -0.523  26.622  1.00  0.00    -0.273 OA
HETATM    8  N1  UNL     1      44.274  -1.998  24.839  1.00  0.00    -0.361 N 
HETATM    9  C2  UNL     1      43.895  -3.368  24.640  1.00  0.00     0.123 C 
ATOM     10  H1  UNL     1      44.646  -1.365  24.130  1.00  0.00     0.162 HD
HETATM   11  C3  UNL     1      44.374  -4.026  25.923  1.00  0.00     0.035 C 
ENDBRANCH   4   5
ENDBRANCH   1   4
BRANCH   1  12
HETATM   12  C6  UNL     1      43.304  -4.727  29.504  1.00  0.00     0.240 C 
BRANCH  12  13
HETATM   13  C7  UNL     1      42.306  -5.256  30.484  1.00  0.00     0.047 C 
HETATM   14  C8  UNL     1      41.163  -5.910  29.788  1.00  0.00     0.130 C 
HETATM   15  N3  UNL     1      39.893  -5.235  29.946  1.00  0.00    -0.367 N 
HETATM   16  C9  UNL     1      39.787  -3.833  30.203  1.00  0.00     0.167 C 
ATOM     17  H3  UNL     1      39.036  -5.783  29.870  1.00  0.00     0.161 HD
HETATM   18  S1  UNL     1      38.452  -2.979  29.881  1.00  0.00    -0.041 SA
HETATM   19  N4  UNL     1      40.972  -3.241  30.778  1.00  0.00    -0.367 N 
HETATM   20  C10 UNL     1      41.840  -4.179  31.445  1.00  0.00     0.130 C 
ATOM     21  H4  UNL     1      41.177  -2.244  30.717  1.00  0.00     0.161 HD
ENDBRANCH  12  13
ENDBRANCH   1  12
TORSDOF 4
ENDMDL
MODEL 4
REMARK VINA RESULT: -5.284999647      2.441      3.109
REMARK  4 active torsions:
REMARK  status: ('A' for Active; 'I' for Inactive)
REMARK    1  A    between atoms: C4_7  and  C5_8 
REMARK    2  A    between atoms: C5_8  and  N2_9 
REMARK    3  A    between atoms: N2_9  and  C6_12 
REMARK    4  A    between atoms: C6_12  and  C7_13 
ROOT
HETATM    1  N2  UNL     1      42.364  -4.643  28.419  1.00  0.00    -0.074 N 
ATOM      2  H21 UNL     1      42.581  -5.146  27.559  1.00  0.00     0.277 HD
ATOM      3  H22 UNL     1      41.411  -4.972  28.572  1.00  0.00     0.277 HD
ENDROOT
BRANCH   1   4
HETATM    4  C5  UNL     1      42.384  -3.237  28.202  1.00  0.00     0.246 C 
BRANCH   4   5
HETATM    5  C4  UNL     1      43.786  -2.714  28.230  1.00  0.00     0.105 C 
HETATM    6  C1  UNL     1      44.006  -1.497  29.004  1.00  0.00     0.223 C 
HETATM    7  O1  UNL     1      43.812  -1.296  30.219  1.00  0.00    -0.273 OA
HETATM    8  N1  UNL     1      44.506  -0.515  28.116  1.00  0.00    -0.361 N 
HETATM    9  C2  UNL     1      44.113  -0.895  26.789  1.00  0.00     0.123 C 
ATOM     10  H1  UNL     1      45.046   0.312  28.373  1.00  0.00     0.162 HD
HETATM   11  C3  UNL     1      44.284  -2.404  26.820  1.00  0.00     0.035 C 
ENDBRANCH   4   5
ENDBRANCH   1   4
BRANCH   1  12
HETATM   12  C6  UNL     1      43.238  -5.069  29.499  1.00  0.00     0.240 C 
BRANCH  12  13
HETATM   13  C7  UNL     1      42.508  -5.494  30.734  1.00  0.00     0.047 C 
HETATM   14  C8  UNL     1      41.041  -5.578  30.491  1.00  0.00     0.130 C 
HETATM   15  N3  UNL     1      40.252  -4.610  31.221  1.00  0.00    -0.367 N 
HETATM   16  C9  UNL     1      40.773  -3.350  31.652  1.00  0.00     0.167 C 
ATOM     17  H3  UNL     1      39.281  -4.835  31.438  1.00  0.00     0.161 HD
HETATM   18  S1  UNL     1      39.834  -2.079  31.992  1.00  0.00    -0.041 SA
HETATM   19  N4  UNL     1      42.213  -3.307  31.761  1.00  0.00    -0.367 N 
HETATM   20  C10 UNL     1      42.836  -4.599  31.913  1.00  0.00     0.130 C 
ATOM     21  H4  UNL     1      42.744  -2.437  31.733  1.00  0.00     0.161 HD
ENDBRANCH  12  13
ENDBRANCH   1  12
TORSDOF 4
ENDMDL
MODEL 5
REMARK VINA RESULT: -5.280279569      3.605      6.073
REMARK  4 active torsions:
REMARK  status: ('A' for Active; 'I' for Inactive)
REMARK    1  A    between atoms: C4_7  and  C5_8 
REMARK    2  A    between atoms: C5_8  and  N2_9 
REMARK    3  A    between atoms: N2_9  and  C6_12 
REMARK    4  A    between atoms: C6_12  and  C7_13 
ROOT
HETATM    1  N2  UNL     1      40.822  -2.216  30.425  1.00  0.00    -0.074 N 
ATOM      2  H21 UNL     1      41.375  -2.653  31.163  1.00  0.00     0.277 HD
ATOM      3  H22 UNL     1      40.980  -1.235  30.655  1.00  0.00     0.277 HD
ENDROOT
BRANCH   1   4
HETATM    4  C5  UNL     1      39.445  -2.550  30.559  1.00  0.00     0.246 C 
BRANCH   4   5
HETATM    5  C4  UNL     1      38.581  -1.353  30.312  1.00  0.00     0.105 C 
HETATM    6  C1  UNL     1      39.059  -0.087  30.859  1.00  0.00     0.223 C 
HETATM    7  O1  UNL     1      40.121   0.520  30.616  1.00  0.00    -0.273 OA
HETATM    8  N1  UNL     1      38.075   0.383  31.761  1.00  0.00    -0.361 N 
HETATM    9  C2  UNL     1      37.298  -0.750  32.178  1.00  0.00     0.123 C 
ATOM     10  H1  UNL     1      37.943   1.349  32.060  1.00  0.00     0.162 HD
HETATM   11  C3  UNL     1      37.184  -1.555  30.895  1.00  0.00     0.035 C 
ENDBRANCH   4   5
ENDBRANCH   1   4
BRANCH   1  12
HETATM   12  C6  UNL     1      41.365  -2.534  29.116  1.00  0.00     0.240 C 
BRANCH  12  13
HETATM   13  C7  UNL     1      42.859  -2.603  29.082  1.00  0.00     0.047 C 
HETATM   14  C8  UNL     1      43.431  -1.497  28.264  1.00  0.00     0.130 C 
HETATM   15  N3  UNL     1      44.098  -1.925  27.053  1.00  0.00    -0.367 N 
HETATM   16  C9  UNL     1      43.770  -3.140  26.375  1.00  0.00     0.167 C 
ATOM     17  H3  UNL     1      44.834  -1.334  26.666  1.00  0.00     0.161 HD
HETATM   18  S1  UNL     1      44.101  -3.392  24.812  1.00  0.00    -0.041 SA
HETATM   19  N4  UNL     1      43.118  -4.128  27.203  1.00  0.00    -0.367 N 
HETATM   20  C10 UNL     1      43.346  -3.962  28.616  1.00  0.00     0.130 C 
ATOM     21  H4  UNL     1      42.544  -4.879  26.819  1.00  0.00     0.161 HD
ENDBRANCH  12  13
ENDBRANCH   1  12
TORSDOF 4
ENDMDL
