MODEL 1
REMARK VINA RESULT: -7.231236598      0.000      0.000
REMARK  7 active torsions:
REMARK  status: ('A' for Active; 'I' for Inactive)
REMARK    1  A    between atoms: N1_1  and  N2_4 
REMARK    2  A    between atoms: N2_4  and  C1_5 
REMARK    3  A    between atoms: C3_9  and  N4_10 
REMARK    4  A    between atoms: N4_10  and  C4_12 
REMARK    5  A    between atoms: C4_12  and  C5_13 
REMARK    6  A    between atoms: C5_13  and  O1_14 
REMARK    7  A    between atoms: C5_13  and  C6_16 
ROOT
HETATM    1  C4  UNL     1      43.714  -1.340  27.762  1.00  0.00     0.146 C 
ENDROOT
BRANCH   1   2
HETATM    2  N4  UNL     1      43.519  -2.602  27.085  1.00  0.00    -0.406 N 
ATOM      3  H4  UNL     1      42.783  -3.254  27.357  1.00  0.00     0.154 HD
BRANCH   2   4
HETATM    4  C3  UNL     1      44.412  -2.878  26.021  1.00  0.00     0.179 C 
HETATM    5  C1  UNL     1      44.274  -2.191  24.746  1.00  0.00     0.199 C 
HETATM    6  N3  UNL     1      44.557  -3.443  24.088  1.00  0.00    -0.363 N 
HETATM    7  C2  UNL     1      43.930  -4.084  25.225  1.00  0.00     0.156 C 
ATOM      8  H3  UNL     1      44.998  -3.741  23.217  1.00  0.00     0.162 HD
BRANCH   5   9
HETATM    9  N2  UNL     1      44.034  -1.073  24.249  1.00  0.00    -0.317 NA
BRANCH   9  10
HETATM   10  N1  UNL     1      43.769   0.013  23.725  1.00  0.00    -0.279 N 
ATOM     11  H12 UNL     1      44.112  -0.728  23.114  1.00  0.00     0.191 HD
ATOM     12  H11 UNL     1      43.540   0.924  23.326  1.00  0.00     0.191 HD
ENDBRANCH   9  10
ENDBRANCH   5   9
ENDBRANCH   2   4
ENDBRANCH   1   2
BRANCH   1  13
HETATM   13  C5  UNL     1      42.987  -1.305  29.088  1.00  0.00     0.141 C 
BRANCH  13  14
HETATM   14  O1  UNL     1      43.935  -1.083  30.119  1.00  0.00    -0.394 OA
ATOM     15  H1  UNL     1      44.363  -1.907  30.321  1.00  0.00     0.210 HD
ENDBRANCH  13  14
BRANCH  13  16
HETATM   16  C6  UNL     1      42.355  -2.635  29.440  1.00  0.00     0.042 C 
HETATM   17  C7  UNL     1      43.064  -3.091  30.713  1.00  0.00     0.009 C 
HETATM   18  C8  UNL     1      43.043  -4.566  30.909  1.00  0.00     0.002 C 
HETATM   19  C9  UNL     1      42.127  -5.323  30.004  1.00  0.00     0.027 C 
HETATM   20  C10 UNL     1      40.715  -4.927  30.289  1.00  0.00     0.232 C 
HETATM   21  N5  UNL     1      40.223  -3.841  29.501  1.00  0.00    -0.075 N 
HETATM   22  C11 UNL     1      40.901  -2.584  29.738  1.00  0.00     0.239 C 
ATOM     23  H52 UNL     1      40.248  -4.079  28.510  1.00  0.00     0.277 HD
ATOM     24  H51 UNL     1      39.217  -3.735  29.628  1.00  0.00     0.277 HD
ENDBRANCH  13  16
ENDBRANCH   1  13
TORSDOF 7
ENDMDL
MODEL 2
REMARK VINA RESULT: -7.020738805      1.051      1.136
REMARK  7 active torsions:
REMARK  status: ('A' for Active; 'I' for Inactive)
REMARK    1  A    between atoms: N1_1  and  N2_4 
REMARK    2  A    between atoms: N2_4  and  C1_5 
REMARK    3  A    between atoms: C3_9  and  N4_10 
REMARK    4  A    between atoms: N4_10  and  C4_12 
REMARK    5  A    between atoms: C4_12  and  C5_13 
REMARK    6  A    between atoms: C5_13  and  O1_14 
REMARK    7  A    between atoms: C5_13  and  C6_16 
ROOT
HETATM    1  C4  UNL     1      43.991  -1.696  28.260  1.00  0.00     0.146 C 
ENDROOT
BRANCH   1   2
HETATM    2  N4  UNL     1      43.472  -2.435  27.132  1.00  0.00    -0.406 N 
ATOM      3  H4  UNL     1      42.495  -2.724  27.077  1.00  0.00     0.154 HD
BRANCH   2   4
HETATM    4  C3  UNL     1      44.402  -2.733  26.106  1.00  0.00     0.179 C 
HETATM    5  C1  UNL     1      44.284  -2.107  24.799  1.00  0.00     0.199 C 
HETATM    6  N3  UNL     1      44.619  -3.378  24.205  1.00  0.00    -0.363 N 
HETATM    7  C2  UNL     1      43.976  -3.985  25.352  1.00  0.00     0.156 C 
ATOM      8  H3  UNL     1      45.093  -3.701  23.362  1.00  0.00     0.162 HD
BRANCH   5   9
HETATM    9  N2  UNL     1      44.029  -1.019  24.245  1.00  0.00    -0.317 NA
BRANCH   9  10
HETATM   10  N1  UNL     1      43.802   0.046  23.662  1.00  0.00    -0.279 N 
ATOM     11  H12 UNL     1      43.024  -0.606  23.762  1.00  0.00     0.191 HD
ATOM     12  H11 UNL     1      43.650   0.935  23.186  1.00  0.00     0.191 HD
ENDBRANCH   9  10
ENDBRANCH   5   9
ENDBRANCH   2   4
ENDBRANCH   1   2
BRANCH   1  13
HETATM   13  C5  UNL     1      43.204  -1.985  29.519  1.00  0.00     0.141 C 
BRANCH  13  14
HETATM   14  O1  UNL     1      43.941  -1.508  30.633  1.00  0.00    -0.394 OA
ATOM     15  H1  UNL     1      43.958  -2.186  31.300  1.00  0.00     0.210 HD
ENDBRANCH  13  14
BRANCH  13  16
HETATM   16  C6  UNL     1      43.048  -3.467  29.780  1.00  0.00     0.042 C 
HETATM   17  C7  UNL     1      42.872  -3.591  31.293  1.00  0.00     0.009 C 
HETATM   18  C8  UNL     1      43.280  -4.918  31.830  1.00  0.00     0.002 C 
HETATM   19  C9  UNL     1      43.530  -5.979  30.809  1.00  0.00     0.027 C 
HETATM   20  C10 UNL     1      42.253  -6.284  30.094  1.00  0.00     0.232 C 
HETATM   21  N5  UNL     1      42.027  -5.518  28.910  1.00  0.00    -0.075 N 
HETATM   22  C11 UNL     1      41.863  -4.098  29.145  1.00  0.00     0.239 C 
ATOM     23  H52 UNL     1      42.770  -5.683  28.230  1.00  0.00     0.277 HD
ATOM     24  H51 UNL     1      41.232  -5.889  28.390  1.00  0.00     0.277 HD
ENDBRANCH  13  16
ENDBRANCH   1  13
TORSDOF 7
ENDMDL
MODEL 3
REMARK VINA RESULT: -6.774071639      1.940      2.476
REMARK  7 active torsions:
REMARK  status: ('A' for Active; 'I' for Inactive)
REMARK    1  A    between atoms: N1_1  and  N2_4 
REMARK    2  A    between atoms: N2_4  and  C1_5 
REMARK    3  A    between atoms: C3_9  and  N4_10 
REMARK    4  A    between atoms: N4_10  and  C4_12 
REMARK    5  A    between atoms: C4_12  and  C5_13 
REMARK    6  A    between atoms: C5_13  and  O1_14 
REMARK    7  A    between atoms: C5_13  and  C6_16 
ROOT
HETATM    1  C4  UNL     1      43.662  -2.952  28.635  1.00  0.00     0.146 C 
ENDROOT
BRANCH   1   2
HETATM    2  N4  UNL     1      43.472  -2.322  27.349  1.00  0.00    -0.406 N 
ATOM      3  H4  UNL     1      42.723  -1.650  27.179  1.00  0.00     0.154 HD
BRANCH   2   4
HETATM    4  C3  UNL     1      44.392  -2.693  26.337  1.00  0.00     0.179 C 
HETATM    5  C1  UNL     1      44.280  -2.133  24.999  1.00  0.00     0.199 C 
HETATM    6  N3  UNL     1      44.585  -3.441  24.471  1.00  0.00    -0.363 N 
HETATM    7  C2  UNL     1      43.936  -3.974  25.652  1.00  0.00     0.156 C 
ATOM      8  H3  UNL     1      45.048  -3.818  23.645  1.00  0.00     0.162 HD
BRANCH   5   9
HETATM    9  N2  UNL     1      44.044  -1.072  24.390  1.00  0.00    -0.317 NA
BRANCH   9  10
HETATM   10  N1  UNL     1      43.773  -0.039  23.769  1.00  0.00    -0.279 N 
ATOM     11  H12 UNL     1      44.668  -0.484  23.565  1.00  0.00     0.191 HD
ATOM     12  H11 UNL     1      43.517   0.816  23.274  1.00  0.00     0.191 HD
ENDBRANCH   9  10
ENDBRANCH   5   9
ENDBRANCH   2   4
ENDBRANCH   1   2
BRANCH   1  13
HETATM   13  C5  UNL     1      42.430  -3.720  29.061  1.00  0.00     0.141 C 
BRANCH  13  14
HETATM   14  O1  UNL     1      41.321  -3.249  28.314  1.00  0.00    -0.394 OA
ATOM     15  H1  UNL     1      40.965  -3.971  27.809  1.00  0.00     0.210 HD
ENDBRANCH  13  14
BRANCH  13  16
HETATM   16  C6  UNL     1      42.051  -3.459  30.502  1.00  0.00     0.042 C 
HETATM   17  C7  UNL     1      40.607  -3.941  30.630  1.00  0.00     0.009 C 
HETATM   18  C8  UNL     1      39.854  -3.276  31.729  1.00  0.00     0.002 C 
HETATM   19  C9  UNL     1      40.678  -2.468  32.678  1.00  0.00     0.027 C 
HETATM   20  C10 UNL     1      41.612  -3.375  33.412  1.00  0.00     0.232 C 
HETATM   21  N5  UNL     1      42.893  -3.542  32.802  1.00  0.00    -0.075 N 
HETATM   22  C11 UNL     1      42.853  -4.197  31.511  1.00  0.00     0.239 C 
ATOM     23  H52 UNL     1      43.375  -2.646  32.733  1.00  0.00     0.277 HD
ATOM     24  H51 UNL     1      43.528  -4.032  33.432  1.00  0.00     0.277 HD
ENDBRANCH  13  16
ENDBRANCH   1  13
TORSDOF 7
ENDMDL
MODEL 4
REMARK VINA RESULT: -6.753882790      1.409      1.885
REMARK  7 active torsions:
REMARK  status: ('A' for Active; 'I' for Inactive)
REMARK    1  A    between atoms: N1_1  and  N2_4 
REMARK    2  A    between atoms: N2_4  and  C1_5 
REMARK    3  A    between atoms: C3_9  and  N4_10 
REMARK    4  A    between atoms: N4_10  and  C4_12 
REMARK    5  A    between atoms: C4_12  and  C5_13 
REMARK    6  A    between atoms: C5_13  and  O1_14 
REMARK    7  A    between atoms: C5_13  and  C6_16 
ROOT
HETATM    1  C4  UNL     1      42.715  -3.211  27.854  1.00  0.00     0.146 C 
ENDROOT
BRANCH   1   2
HETATM    2  N4  UNL     1      43.677  -2.235  27.395  1.00  0.00    -0.406 N 
ATOM      3  H4  UNL     1      43.752  -1.309  27.817  1.00  0.00     0.154 HD
BRANCH   2   4
HETATM    4  C3  UNL     1      44.508  -2.641  26.323  1.00  0.00     0.179 C 
HETATM    5  C1  UNL     1      44.305  -2.101  24.987  1.00  0.00     0.199 C 
HETATM    6  N3  UNL     1      44.543  -3.423  24.461  1.00  0.00    -0.363 N 
HETATM    7  C2  UNL     1      43.975  -3.923  25.697  1.00  0.00     0.156 C 
ATOM      8  H3  UNL     1      44.934  -3.823  23.608  1.00  0.00     0.162 HD
BRANCH   5   9
HETATM    9  N2  UNL     1      44.045  -1.044  24.380  1.00  0.00    -0.317 NA
BRANCH   9  10
HETATM   10  N1  UNL     1      43.773  -0.022  23.742  1.00  0.00    -0.279 N 
ATOM     11  H12 UNL     1      43.009  -0.476  24.243  1.00  0.00     0.191 HD
ATOM     12  H11 UNL     1      43.584   0.825  23.206  1.00  0.00     0.191 HD
ENDBRANCH   9  10
ENDBRANCH   5   9
ENDBRANCH   2   4
ENDBRANCH   1   2
BRANCH   1  13
HETATM   13  C5  UNL     1      42.112  -2.812  29.182  1.00  0.00     0.141 C 
BRANCH  13  14
HETATM   14  O1  UNL     1      42.886  -1.758  29.733  1.00  0.00    -0.394 OA
ATOM     15  H1  UNL     1      42.323  -1.221  30.279  1.00  0.00     0.210 HD
ENDBRANCH  13  14
BRANCH  13  16
HETATM   16  C6  UNL     1      42.195  -3.916  30.214  1.00  0.00     0.042 C 
HETATM   17  C7  UNL     1      42.730  -5.131  29.459  1.00  0.00     0.009 C 
HETATM   18  C8  UNL     1      42.352  -6.430  30.080  1.00  0.00     0.002 C 
HETATM   19  C9  UNL     1      41.761  -6.342  31.449  1.00  0.00     0.027 C 
HETATM   20  C10 UNL     1      42.786  -5.804  32.394  1.00  0.00     0.232 C 
HETATM   21  N5  UNL     1      42.777  -4.384  32.548  1.00  0.00    -0.075 N 
HETATM   22  C11 UNL     1      43.122  -3.655  31.345  1.00  0.00     0.239 C 
ATOM     23  H52 UNL     1      41.876  -4.069  32.910  1.00  0.00     0.277 HD
ATOM     24  H51 UNL     1      43.381  -4.104  33.321  1.00  0.00     0.277 HD
ENDBRANCH  13  16
ENDBRANCH   1  13
TORSDOF 7
ENDMDL
MODEL 5
REMARK VINA RESULT: -6.704117577      1.637      1.958
REMARK  7 active torsions:
REMARK  status: ('A' for Active; 'I' for Inactive)
REMARK    1  A    between atoms: N1_1  and  N2_4 
REMARK    2  A    between atoms: N2_4  and  C1_5 
REMARK    3  A    between atoms: C3_9  and  N4_10 
REMARK    4  A    between atoms: N4_10  and  C4_12 
REMARK    5  A    between atoms: C4_12  and  C5_13 
REMARK    6  A    between atoms: C5_13  and  O1_14 
REMARK    7  A    between atoms: C5_13  and  C6_16 
ROOT
HETATM    1  C4  UNL     1      43.654  -3.326  28.377  1.00  0.00     0.146 C 
ENDROOT
BRANCH   1   2
HETATM    2  N4  UNL     1      43.515  -2.514  27.189  1.00  0.00    -0.406 N 
ATOM      3  H4  UNL     1      42.813  -1.778  27.116  1.00  0.00     0.154 HD
BRANCH   2   4
HETATM    4  C3  UNL     1      44.414  -2.803  26.133  1.00  0.00     0.179 C 
HETATM    5  C1  UNL     1      44.266  -2.152  24.841  1.00  0.00     0.199 C 
HETATM    6  N3  UNL     1      44.572  -3.416  24.216  1.00  0.00    -0.363 N 
HETATM    7  C2  UNL     1      43.955  -4.037  25.370  1.00  0.00     0.156 C 
ATOM      8  H3  UNL     1      45.020  -3.729  23.355  1.00  0.00     0.162 HD
BRANCH   5   9
HETATM    9  N2  UNL     1      44.007  -1.053  24.314  1.00  0.00    -0.317 NA
BRANCH   9  10
HETATM   10  N1  UNL     1      43.767   0.021  23.752  1.00  0.00    -0.279 N 
ATOM     11  H12 UNL     1      44.664  -0.066  24.229  1.00  0.00     0.191 HD
ATOM     12  H11 UNL     1      43.536   0.894  23.278  1.00  0.00     0.191 HD
ENDBRANCH   9  10
ENDBRANCH   5   9
ENDBRANCH   2   4
ENDBRANCH   1   2
BRANCH   1  13
HETATM   13  C5  UNL     1      42.374  -4.067  28.693  1.00  0.00     0.141 C 
BRANCH  13  14
HETATM   14  O1  UNL     1      41.275  -3.221  28.396  1.00  0.00    -0.394 OA
ATOM     15  H1  UNL     1      41.263  -2.506  29.023  1.00  0.00     0.210 HD
ENDBRANCH  13  14
BRANCH  13  16
HETATM   16  C6  UNL     1      42.226  -4.369  30.169  1.00  0.00     0.042 C 
HETATM   17  C7  UNL     1      43.581  -4.928  30.601  1.00  0.00     0.009 C 
HETATM   18  C8  UNL     1      43.504  -5.809  31.798  1.00  0.00     0.002 C 
HETATM   19  C9  UNL     1      42.201  -5.792  32.529  1.00  0.00     0.027 C 
HETATM   20  C10 UNL     1      41.977  -4.430  33.101  1.00  0.00     0.232 C 
HETATM   21  N5  UNL     1      41.252  -3.534  32.256  1.00  0.00    -0.075 N 
HETATM   22  C11 UNL     1      41.939  -3.192  31.028  1.00  0.00     0.239 C 
ATOM     23  H52 UNL     1      40.324  -3.905  32.054  1.00  0.00     0.277 HD
ATOM     24  H51 UNL     1      40.994  -2.691  32.768  1.00  0.00     0.277 HD
ENDBRANCH  13  16
ENDBRANCH   1  13
TORSDOF 7
ENDMDL
