MODEL 1
REMARK VINA RESULT: -5.786468116      0.000      0.000
REMARK  4 active torsions:
REMARK  status: ('A' for Active; 'I' for Inactive)
REMARK    1  A    between atoms: N3_8  and  C4_10 
REMARK    2  A    between atoms: C4_10  and  C5_11 
REMARK    3  A    between atoms: C5_11  and  C6_12 
REMARK    4  A    between atoms: C6_12  and  N4_13 
ROOT
HETATM    1  C1  UNL     1      36.086  -2.479  28.682  1.00  0.00     0.065 C 
HETATM    2  C2  UNL     1      37.278  -2.526  29.247  1.00  0.00     0.112 A 
HETATM    3  N1  UNL     1      37.701  -1.874  30.429  1.00  0.00    -0.283 N 
ATOM      4  H1  UNL     1      37.116  -1.275  31.012  1.00  0.00     0.188 HD
HETATM    5  N2  UNL     1      39.043  -2.180  30.676  1.00  0.00    -0.270 N 
ATOM      6  H2  UNL     1      39.589  -1.837  31.466  1.00  0.00     0.190 HD
HETATM    7  C3  UNL     1      39.533  -3.048  29.651  1.00  0.00     0.196 A 
HETATM    8  N3  UNL     1      40.700  -3.555  29.490  1.00  0.00    -0.361 N 
ATOM      9  H3  UNL     1      40.881  -4.164  28.692  1.00  0.00     0.162 HD
HETATM   10  N6  UNL     1      38.414  -3.240  28.784  1.00  0.00    -0.313 N 
ATOM     11  H6  UNL     1      38.430  -3.816  27.943  1.00  0.00     0.170 HD
ENDROOT
BRANCH   8  12
HETATM   12  C4  UNL     1      41.750  -3.274  30.419  1.00  0.00     0.124 C 
BRANCH  12  13
HETATM   13  C5  UNL     1      43.105  -3.401  29.717  1.00  0.00     0.050 C 
BRANCH  13  14
HETATM   14  C6  UNL     1      43.457  -2.127  29.022  1.00  0.00     0.274 C 
BRANCH  14  15
HETATM   15  N4  UNL     1      43.534  -2.266  27.604  1.00  0.00     0.091 N 
HETATM   16  C7  UNL     1      44.609  -1.435  27.044  1.00  0.00     0.300 C 
HETATM   17  C8  UNL     1      44.268  -1.387  25.548  1.00  0.00     0.262 C 
HETATM   18  N5  UNL     1      44.575  -2.706  25.047  1.00  0.00    -0.072 N 
HETATM   19  C9  UNL     1      43.899  -3.773  25.717  1.00  0.00     0.262 C 
ATOM     20  H52 UNL     1      44.401  -2.752  24.043  1.00  0.00     0.277 HD
ATOM     21  H51 UNL     1      45.583  -2.862  25.058  1.00  0.00     0.277 HD
HETATM   22  C10 UNL     1      43.845  -3.635  27.221  1.00  0.00     0.300 C 
ENDBRANCH  14  15
ENDBRANCH  13  14
ENDBRANCH  12  13
ENDBRANCH   8  12
TORSDOF 4
ENDMDL
MODEL 2
REMARK VINA RESULT: -5.617779513      0.621      1.308
REMARK  4 active torsions:
REMARK  status: ('A' for Active; 'I' for Inactive)
REMARK    1  A    between atoms: N3_8  and  C4_10 
REMARK    2  A    between atoms: C4_10  and  C5_11 
REMARK    3  A    between atoms: C5_11  and  C6_12 
REMARK    4  A    between atoms: C6_12  and  N4_13 
ROOT
HETATM    1  C1  UNL     1      36.137  -2.475  28.688  1.00  0.00     0.065 C 
HETATM    2  C2  UNL     1      37.344  -2.524  29.219  1.00  0.00     0.112 A 
HETATM    3  N1  UNL     1      37.805  -1.863  30.381  1.00  0.00    -0.283 N 
ATOM      4  H1  UNL     1      37.242  -1.253  30.974  1.00  0.00     0.188 HD
HETATM    5  N2  UNL     1      39.153  -2.175  30.591  1.00  0.00    -0.270 N 
ATOM      6  H2  UNL     1      39.724  -1.828  31.362  1.00  0.00     0.190 HD
HETATM    7  C3  UNL     1      39.607  -3.057  29.561  1.00  0.00     0.196 A 
HETATM    8  N3  UNL     1      40.766  -3.573  29.371  1.00  0.00    -0.361 N 
ATOM      9  H3  UNL     1      40.919  -4.191  28.575  1.00  0.00     0.162 HD
HETATM   10  N6  UNL     1      38.462  -3.250  28.730  1.00  0.00    -0.313 N 
ATOM     11  H6  UNL     1      38.449  -3.834  27.894  1.00  0.00     0.170 HD
ENDROOT
BRANCH   8  12
HETATM   12  C4  UNL     1      41.844  -3.290  30.267  1.00  0.00     0.124 C 
BRANCH  12  13
HETATM   13  C5  UNL     1      42.951  -2.543  29.517  1.00  0.00     0.050 C 
BRANCH  13  14
HETATM   14  C6  UNL     1      43.821  -3.505  28.774  1.00  0.00     0.274 C 
BRANCH  14  15
HETATM   15  N4  UNL     1      44.197  -3.035  27.480  1.00  0.00     0.091 N 
HETATM   16  C7  UNL     1      43.483  -3.760  26.420  1.00  0.00     0.300 C 
HETATM   17  C8  UNL     1      44.301  -3.432  25.164  1.00  0.00     0.262 C 
HETATM   18  N5  UNL     1      44.008  -2.049  24.871  1.00  0.00    -0.072 N 
HETATM   19  C9  UNL     1      44.281  -1.140  25.941  1.00  0.00     0.262 C 
ATOM     20  H52 UNL     1      44.496  -1.755  24.025  1.00  0.00     0.277 HD
ATOM     21  H51 UNL     1      43.041  -1.950  24.561  1.00  0.00     0.277 HD
HETATM   22  C10 UNL     1      43.855  -1.631  27.305  1.00  0.00     0.300 C 
ENDBRANCH  14  15
ENDBRANCH  13  14
ENDBRANCH  12  13
ENDBRANCH   8  12
TORSDOF 4
ENDMDL
MODEL 3
REMARK VINA RESULT: -5.501797303      0.940      1.332
REMARK  4 active torsions:
REMARK  status: ('A' for Active; 'I' for Inactive)
REMARK    1  A    between atoms: N3_8  and  C4_10 
REMARK    2  A    between atoms: C4_10  and  C5_11 
REMARK    3  A    between atoms: C5_11  and  C6_12 
REMARK    4  A    between atoms: C6_12  and  N4_13 
ROOT
HETATM    1  C1  UNL     1      35.977  -2.458  28.716  1.00  0.00     0.065 C 
HETATM    2  C2  UNL     1      37.178  -2.859  29.088  1.00  0.00     0.112 A 
HETATM    3  N1  UNL     1      37.773  -4.124  28.873  1.00  0.00    -0.283 N 
ATOM      4  H1  UNL     1      37.336  -4.904  28.382  1.00  0.00     0.188 HD
HETATM    5  N2  UNL     1      39.054  -4.138  29.435  1.00  0.00    -0.270 N 
ATOM      6  H2  UNL     1      39.694  -4.932  29.419  1.00  0.00     0.190 HD
HETATM    7  C3  UNL     1      39.328  -2.871  30.036  1.00  0.00     0.196 A 
HETATM    8  N3  UNL     1      40.370  -2.465  30.665  1.00  0.00    -0.361 N 
ATOM      9  H3  UNL     1      40.401  -1.515  31.034  1.00  0.00     0.162 HD
HETATM   10  N6  UNL     1      38.146  -2.105  29.803  1.00  0.00    -0.313 N 
ATOM     11  H6  UNL     1      38.014  -1.141  30.109  1.00  0.00     0.170 HD
ENDROOT
BRANCH   8  12
HETATM   12  C4  UNL     1      41.491  -3.335  30.852  1.00  0.00     0.124 C 
BRANCH  12  13
HETATM   13  C5  UNL     1      42.638  -2.898  29.935  1.00  0.00     0.050 C 
BRANCH  13  14
HETATM   14  C6  UNL     1      42.632  -3.696  28.672  1.00  0.00     0.274 C 
BRANCH  14  15
HETATM   15  N4  UNL     1      43.071  -2.950  27.537  1.00  0.00     0.091 N 
HETATM   16  C7  UNL     1      44.094  -1.964  27.910  1.00  0.00     0.300 C 
HETATM   17  C8  UNL     1      44.120  -1.017  26.702  1.00  0.00     0.262 C 
HETATM   18  N5  UNL     1      44.756  -1.768  25.646  1.00  0.00    -0.072 N 
HETATM   19  C9  UNL     1      44.128  -3.015  25.336  1.00  0.00     0.262 C 
ATOM     20  H52 UNL     1      44.839  -1.196  24.806  1.00  0.00     0.277 HD
ATOM     21  H51 UNL     1      45.743  -1.912  25.859  1.00  0.00     0.277 HD
HETATM   22  C10 UNL     1      43.691  -3.813  26.543  1.00  0.00     0.300 C 
ENDBRANCH  14  15
ENDBRANCH  13  14
ENDBRANCH  12  13
ENDBRANCH   8  12
TORSDOF 4
ENDMDL
MODEL 4
REMARK VINA RESULT: -5.454584421      2.092      2.395
REMARK  4 active torsions:
REMARK  status: ('A' for Active; 'I' for Inactive)
REMARK    1  A    between atoms: N3_8  and  C4_10 
REMARK    2  A    between atoms: C4_10  and  C5_11 
REMARK    3  A    between atoms: C5_11  and  C6_12 
REMARK    4  A    between atoms: C6_12  and  N4_13 
ROOT
HETATM    1  C1  UNL     1      37.212   0.813  32.634  1.00  0.00     0.065 C 
HETATM    2  C2  UNL     1      38.088   0.286  31.798  1.00  0.00     0.112 A 
HETATM    3  N1  UNL     1      38.961   0.967  30.918  1.00  0.00    -0.283 N 
ATOM      4  H1  UNL     1      39.028   1.981  30.823  1.00  0.00     0.188 HD
HETATM    5  N2  UNL     1      39.718   0.037  30.200  1.00  0.00    -0.270 N 
ATOM      6  H2  UNL     1      40.423   0.267  29.499  1.00  0.00     0.190 HD
HETATM    7  C3  UNL     1      39.354  -1.287  30.598  1.00  0.00     0.196 A 
HETATM    8  N3  UNL     1      39.792  -2.421  30.186  1.00  0.00    -0.361 N 
ATOM      9  H3  UNL     1      39.418  -3.282  30.584  1.00  0.00     0.162 HD
HETATM   10  N6  UNL     1      38.343  -1.094  31.587  1.00  0.00    -0.313 N 
ATOM     11  H6  UNL     1      37.866  -1.850  32.079  1.00  0.00     0.170 HD
ENDROOT
BRANCH   8  12
HETATM   12  C4  UNL     1      40.799  -2.487  29.173  1.00  0.00     0.124 C 
BRANCH  12  13
HETATM   13  C5  UNL     1      42.075  -3.102  29.757  1.00  0.00     0.050 C 
BRANCH  13  14
HETATM   14  C6  UNL     1      42.829  -3.844  28.702  1.00  0.00     0.274 C 
BRANCH  14  15
HETATM   15  N4  UNL     1      43.173  -3.029  27.583  1.00  0.00     0.091 N 
HETATM   16  C7  UNL     1      44.137  -1.985  27.959  1.00  0.00     0.300 C 
HETATM   17  C8  UNL     1      44.053  -0.997  26.787  1.00  0.00     0.262 C 
HETATM   18  N5  UNL     1      44.702  -1.663  25.683  1.00  0.00    -0.072 N 
HETATM   19  C9  UNL     1      44.153  -2.940  25.347  1.00  0.00     0.262 C 
ATOM     20  H52 UNL     1      44.714  -1.057  24.862  1.00  0.00     0.277 HD
ATOM     21  H51 UNL     1      45.704  -1.743  25.858  1.00  0.00     0.277 HD
HETATM   22  C10 UNL     1      43.816  -3.810  26.536  1.00  0.00     0.300 C 
ENDBRANCH  14  15
ENDBRANCH  13  14
ENDBRANCH  12  13
ENDBRANCH   8  12
TORSDOF 4
ENDMDL
MODEL 5
REMARK VINA RESULT: -5.334441592      4.055      6.040
REMARK  4 active torsions:
REMARK  status: ('A' for Active; 'I' for Inactive)
REMARK    1  A    between atoms: N3_8  and  C4_10 
REMARK    2  A    between atoms: C4_10  and  C5_11 
REMARK    3  A    between atoms: C5_11  and  C6_12 
REMARK    4  A    between atoms: C6_12  and  N4_13 
ROOT
HETATM    1  C1  UNL     1      46.255  -9.934  31.378  1.00  0.00     0.065 C 
HETATM    2  C2  UNL     1      45.666  -8.754  31.423  1.00  0.00     0.112 A 
HETATM    3  N1  UNL     1      45.988  -7.658  32.256  1.00  0.00    -0.283 N 
ATOM      4  H1  UNL     1      46.743  -7.641  32.942  1.00  0.00     0.188 HD
HETATM    5  N2  UNL     1      45.112  -6.599  31.994  1.00  0.00    -0.270 N 
ATOM      6  H2  UNL     1      45.129  -5.692  32.460  1.00  0.00     0.190 HD
HETATM    7  C3  UNL     1      44.189  -6.983  30.972  1.00  0.00     0.196 A 
HETATM    8  N3  UNL     1      43.222  -6.324  30.445  1.00  0.00    -0.361 N 
ATOM      9  H3  UNL     1      42.655  -6.755  29.715  1.00  0.00     0.162 HD
HETATM   10  N6  UNL     1      44.561  -8.322  30.643  1.00  0.00    -0.313 N 
ATOM     11  H6  UNL     1      44.094  -8.893  29.939  1.00  0.00     0.170 HD
ENDROOT
BRANCH   8  12
HETATM   12  C4  UNL     1      42.934  -4.990  30.872  1.00  0.00     0.124 C 
BRANCH  12  13
HETATM   13  C5  UNL     1      43.446  -3.995  29.826  1.00  0.00     0.050 C 
BRANCH  13  14
HETATM   14  C6  UNL     1      42.718  -4.172  28.534  1.00  0.00     0.274 C 
BRANCH  14  15
HETATM   15  N4  UNL     1      43.109  -3.229  27.537  1.00  0.00     0.091 N 
HETATM   16  C7  UNL     1      44.054  -2.242  28.077  1.00  0.00     0.300 C 
HETATM   17  C8  UNL     1      44.019  -1.119  27.032  1.00  0.00     0.262 C 
HETATM   18  N5  UNL     1      44.716  -1.648  25.884  1.00  0.00    -0.072 N 
HETATM   19  C9  UNL     1      44.184  -2.873  25.373  1.00  0.00     0.262 C 
ATOM     20  H52 UNL     1      44.763  -0.948  25.144  1.00  0.00     0.277 HD
ATOM     21  H51 UNL     1      45.710  -1.753  26.091  1.00  0.00     0.277 HD
HETATM   22  C10 UNL     1      43.798  -3.880  26.432  1.00  0.00     0.300 C 
ENDBRANCH  14  15
ENDBRANCH  13  14
ENDBRANCH  12  13
ENDBRANCH   8  12
TORSDOF 4
ENDMDL
