MODEL 1
REMARK VINA RESULT: -5.569038806      0.000      0.000
REMARK  4 active torsions:
REMARK  status: ('A' for Active; 'I' for Inactive)
REMARK    1  A    between atoms: N1_2  and  C2_4 
REMARK    2  A    between atoms: C2_4  and  C3_5 
REMARK    3  A    between atoms: C3_5  and  C4_6 
REMARK    4  A    between atoms: C6_11  and  C7_12 
ROOT
HETATM    1  C4  UNL     1      43.798  -1.750  28.240  1.00  0.00     0.178 C 
HETATM    2  N2  UNL     1      42.435  -1.583  28.783  1.00  0.00    -0.346 N 
ATOM      3  H2  UNL     1      41.630  -1.723  28.172  1.00  0.00     0.163 HD
HETATM    4  C5  UNL     1      42.226  -1.229  30.145  1.00  0.00     0.241 C 
HETATM    5  O1  UNL     1      41.166  -0.630  30.455  1.00  0.00    -0.271 OA
HETATM    6  C6  UNL     1      43.301  -1.606  31.091  1.00  0.00     0.182 C 
HETATM    7  N4  UNL     1      44.550  -1.126  30.528  1.00  0.00    -0.346 N 
ATOM      8  H4  UNL     1      45.343  -0.919  31.136  1.00  0.00     0.163 HD
HETATM    9  C11 UNL     1      44.656  -0.947  29.121  1.00  0.00     0.241 C 
HETATM   10  O2  UNL     1      45.477  -0.112  28.670  1.00  0.00    -0.271 OA
ENDROOT
BRANCH   6  11
HETATM   11  C7  UNL     1      43.081  -1.134  32.492  1.00  0.00     0.045 C 
HETATM   12  C8  UNL     1      44.459  -0.759  33.044  1.00  0.00     0.036 C 
HETATM   13  C9  UNL     1      44.617  -1.584  34.324  1.00  0.00     0.232 C 
HETATM   14  N3  UNL     1      43.203  -1.710  34.708  1.00  0.00    -0.075 N 
HETATM   15  C10 UNL     1      42.658  -2.211  33.436  1.00  0.00     0.239 C 
ATOM     16  H32 UNL     1      43.009  -2.275  35.534  1.00  0.00     0.277 HD
ATOM     17  H31 UNL     1      42.763  -0.871  35.086  1.00  0.00     0.277 HD
ENDBRANCH   6  11
BRANCH   1  18
HETATM   18  C3  UNL     1      43.738  -1.326  26.823  1.00  0.00     0.054 C 
BRANCH  18  19
HETATM   19  C2  UNL     1      44.682  -1.997  25.888  1.00  0.00     0.115 C 
BRANCH  19  20
HETATM   20  N1  UNL     1      44.063  -2.521  24.698  1.00  0.00    -0.425 N 
HETATM   21  C1  UNL     1      43.737  -3.911  24.751  1.00  0.00     0.139 C 
ATOM     22  H1  UNL     1      43.872  -1.943  23.879  1.00  0.00     0.152 HD
ENDBRANCH  19  20
ENDBRANCH  18  19
ENDBRANCH   1  18
TORSDOF 4
ENDMDL
MODEL 2
REMARK VINA RESULT: -5.527520067      2.760      3.812
REMARK  4 active torsions:
REMARK  status: ('A' for Active; 'I' for Inactive)
REMARK    1  A    between atoms: N1_2  and  C2_4 
REMARK    2  A    between atoms: C2_4  and  C3_5 
REMARK    3  A    between atoms: C3_5  and  C4_6 
REMARK    4  A    between atoms: C6_11  and  C7_12 
ROOT
HETATM    1  C4  UNL     1      43.002  -1.363  28.755  1.00  0.00     0.178 C 
HETATM    2  N2  UNL     1      43.370  -0.909  30.111  1.00  0.00    -0.346 N 
ATOM      3  H2  UNL     1      44.355  -0.794  30.353  1.00  0.00     0.163 HD
HETATM    4  C5  UNL     1      42.373  -0.629  31.086  1.00  0.00     0.241 C 
HETATM    5  O1  UNL     1      42.675  -0.731  32.302  1.00  0.00    -0.271 OA
HETATM    6  C6  UNL     1      41.043  -0.237  30.568  1.00  0.00     0.182 C 
HETATM    7  N4  UNL     1      40.660  -1.233  29.583  1.00  0.00    -0.346 N 
ATOM      8  H4  UNL     1      39.676  -1.404  29.379  1.00  0.00     0.163 HD
HETATM    9  C11 UNL     1      41.673  -1.967  28.906  1.00  0.00     0.241 C 
HETATM   10  O2  UNL     1      41.406  -3.109  28.458  1.00  0.00    -0.271 OA
ENDROOT
BRANCH   6  11
HETATM   11  C7  UNL     1      40.004  -0.042  31.624  1.00  0.00     0.045 C 
HETATM   12  C8  UNL     1      39.108  -1.283  31.585  1.00  0.00     0.036 C 
HETATM   13  C9  UNL     1      37.688  -0.748  31.385  1.00  0.00     0.232 C 
HETATM   14  N3  UNL     1      37.831   0.567  32.031  1.00  0.00    -0.075 N 
HETATM   15  C10 UNL     1      39.027   1.047  31.322  1.00  0.00     0.239 C 
ATOM     16  H32 UNL     1      37.014   1.176  31.998  1.00  0.00     0.277 HD
ATOM     17  H31 UNL     1      37.882   0.564  33.049  1.00  0.00     0.277 HD
ENDBRANCH   6  11
BRANCH   1  18
HETATM   18  C3  UNL     1      44.086  -2.269  28.309  1.00  0.00     0.054 C 
BRANCH  18  19
HETATM   19  C2  UNL     1      44.526  -2.133  26.894  1.00  0.00     0.115 C 
BRANCH  19  20
HETATM   20  N1  UNL     1      44.564  -3.374  26.166  1.00  0.00    -0.425 N 
HETATM   21  C1  UNL     1      44.007  -3.318  24.851  1.00  0.00     0.139 C 
ATOM     22  H1  UNL     1      44.959  -4.229  26.558  1.00  0.00     0.152 HD
ENDBRANCH  19  20
ENDBRANCH  18  19
ENDBRANCH   1  18
TORSDOF 4
ENDMDL
MODEL 3
REMARK VINA RESULT: -5.416643159      4.710      7.217
REMARK  4 active torsions:
REMARK  status: ('A' for Active; 'I' for Inactive)
REMARK    1  A    between atoms: N1_2  and  C2_4 
REMARK    2  A    between atoms: C2_4  and  C3_5 
REMARK    3  A    between atoms: C3_5  and  C4_6 
REMARK    4  A    between atoms: C6_11  and  C7_12 
ROOT
HETATM    1  C4  UNL     1      44.535   0.246  34.993  1.00  0.00     0.178 C 
HETATM    2  N2  UNL     1      44.645   0.961  36.281  1.00  0.00    -0.346 N 
ATOM      3  H2  UNL     1      43.801   1.302  36.740  1.00  0.00     0.163 HD
HETATM    4  C5  UNL     1      45.911   1.182  36.890  1.00  0.00     0.241 C 
HETATM    5  O1  UNL     1      46.043   2.161  37.666  1.00  0.00    -0.271 OA
HETATM    6  C6  UNL     1      46.980   0.217  36.546  1.00  0.00     0.182 C 
HETATM    7  N4  UNL     1      47.017   0.123  35.098  1.00  0.00    -0.346 N 
ATOM      8  H4  UNL     1      47.875  -0.154  34.621  1.00  0.00     0.163 HD
HETATM    9  C11 UNL     1      45.844   0.420  34.351  1.00  0.00     0.241 C 
HETATM   10  O2  UNL     1      45.957   0.822  33.167  1.00  0.00    -0.271 OA
ENDROOT
BRANCH   6  11
HETATM   11  C7  UNL     1      48.315   0.540  37.136  1.00  0.00     0.045 C 
HETATM   12  C8  UNL     1      49.362  -0.015  36.168  1.00  0.00     0.036 C 
HETATM   13  C9  UNL     1      50.240  -0.943  37.013  1.00  0.00     0.232 C 
HETATM   14  N3  UNL     1      50.094  -0.288  38.322  1.00  0.00    -0.075 N 
HETATM   15  C10 UNL     1      48.626  -0.216  38.386  1.00  0.00     0.239 C 
ATOM     16  H32 UNL     1      50.556  -0.745  39.108  1.00  0.00     0.277 HD
ATOM     17  H31 UNL     1      50.593   0.593  38.443  1.00  0.00     0.277 HD
ENDBRANCH   6  11
BRANCH   1  18
HETATM   18  C3  UNL     1      43.376   0.838  34.285  1.00  0.00     0.054 C 
BRANCH  18  19
HETATM   19  C2  UNL     1      42.594  -0.078  33.410  1.00  0.00     0.115 C 
BRANCH  19  20
HETATM   20  N1  UNL     1      43.126  -0.224  32.081  1.00  0.00    -0.425 N 
HETATM   21  C1  UNL     1      43.545  -1.548  31.743  1.00  0.00     0.139 C 
ATOM     22  H1  UNL     1      43.199   0.558  31.430  1.00  0.00     0.152 HD
ENDBRANCH  19  20
ENDBRANCH  18  19
ENDBRANCH   1  18
TORSDOF 4
ENDMDL
MODEL 4
REMARK VINA RESULT: -5.339419946      1.876      2.606
REMARK  4 active torsions:
REMARK  status: ('A' for Active; 'I' for Inactive)
REMARK    1  A    between atoms: N1_2  and  C2_4 
REMARK    2  A    between atoms: C2_4  and  C3_5 
REMARK    3  A    between atoms: C3_5  and  C4_6 
REMARK    4  A    between atoms: C6_11  and  C7_12 
ROOT
HETATM    1  C4  UNL     1      43.400  -3.281  27.356  1.00  0.00     0.178 C 
HETATM    2  N2  UNL     1      43.664  -1.831  27.252  1.00  0.00    -0.346 N 
ATOM      3  H2  UNL     1      43.901  -1.428  26.346  1.00  0.00     0.163 HD
HETATM    4  C5  UNL     1      43.596  -0.990  28.396  1.00  0.00     0.241 C 
HETATM    5  O1  UNL     1      44.270   0.070  28.405  1.00  0.00    -0.271 OA
HETATM    6  C6  UNL     1      42.717  -1.451  29.495  1.00  0.00     0.182 C 
HETATM    7  N4  UNL     1      43.080  -2.827  29.781  1.00  0.00    -0.346 N 
ATOM      8  H4  UNL     1      42.908  -3.224  30.705  1.00  0.00     0.163 HD
HETATM    9  C11 UNL     1      43.676  -3.616  28.759  1.00  0.00     0.241 C 
HETATM   10  O2  UNL     1      44.421  -4.574  29.080  1.00  0.00    -0.271 OA
ENDROOT
BRANCH   6  11
HETATM   11  C7  UNL     1      42.745  -0.583  30.712  1.00  0.00     0.045 C 
HETATM   12  C8  UNL     1      43.410  -1.408  31.817  1.00  0.00     0.036 C 
HETATM   13  C9  UNL     1      42.406  -1.416  32.972  1.00  0.00     0.232 C 
HETATM   14  N3  UNL     1      41.736  -0.130  32.720  1.00  0.00    -0.075 N 
HETATM   15  C10 UNL     1      41.399  -0.316  31.300  1.00  0.00     0.239 C 
ATOM     16  H32 UNL     1      40.960   0.102  33.340  1.00  0.00     0.277 HD
ATOM     17  H31 UNL     1      42.270   0.708  32.950  1.00  0.00     0.277 HD
ENDBRANCH   6  11
BRANCH   1  18
HETATM   18  C3  UNL     1      44.261  -3.937  26.345  1.00  0.00     0.054 C 
BRANCH  18  19
HETATM   19  C2  UNL     1      43.790  -3.883  24.935  1.00  0.00     0.115 C 
BRANCH  19  20
HETATM   20  N1  UNL     1      44.613  -3.083  24.067  1.00  0.00    -0.425 N 
HETATM   21  C1  UNL     1      44.203  -1.721  23.934  1.00  0.00     0.139 C 
ATOM     22  H1  UNL     1      45.428  -3.460  23.582  1.00  0.00     0.152 HD
ENDBRANCH  19  20
ENDBRANCH  18  19
ENDBRANCH   1  18
TORSDOF 4
ENDMDL
MODEL 5
REMARK VINA RESULT: -5.327088216      2.463      6.068
REMARK  4 active torsions:
REMARK  status: ('A' for Active; 'I' for Inactive)
REMARK    1  A    between atoms: N1_2  and  C2_4 
REMARK    2  A    between atoms: C2_4  and  C3_5 
REMARK    3  A    between atoms: C3_5  and  C4_6 
REMARK    4  A    between atoms: C6_11  and  C7_12 
ROOT
HETATM    1  C4  UNL     1      42.120  -0.446  30.379  1.00  0.00     0.178 C 
HETATM    2  N2  UNL     1      41.503  -1.363  29.398  1.00  0.00    -0.346 N 
ATOM      3  H2  UNL     1      40.487  -1.432  29.344  1.00  0.00     0.163 HD
HETATM    4  C5  UNL     1      42.305  -2.150  28.526  1.00  0.00     0.241 C 
HETATM    5  O1  UNL     1      41.832  -3.226  28.081  1.00  0.00    -0.271 OA
HETATM    6  C6  UNL     1      43.652  -1.619  28.218  1.00  0.00     0.182 C 
HETATM    7  N4  UNL     1      44.281  -1.295  29.486  1.00  0.00    -0.346 N 
ATOM      8  H4  UNL     1      45.297  -1.286  29.569  1.00  0.00     0.163 HD
HETATM    9  C11 UNL     1      43.464  -0.989  30.609  1.00  0.00     0.241 C 
HETATM   10  O2  UNL     1      43.912  -1.190  31.765  1.00  0.00    -0.271 OA
ENDROOT
BRANCH   6  11
HETATM   11  C7  UNL     1      44.492  -2.522  27.373  1.00  0.00     0.045 C 
HETATM   12  C8  UNL     1      44.297  -2.066  25.926  1.00  0.00     0.036 C 
HETATM   13  C9  UNL     1      43.829  -3.313  25.171  1.00  0.00     0.232 C 
HETATM   14  N3  UNL     1      44.477  -4.349  25.989  1.00  0.00    -0.075 N 
HETATM   15  C10 UNL     1      44.002  -3.932  27.317  1.00  0.00     0.239 C 
ATOM     16  H32 UNL     1      44.285  -5.316  25.726  1.00  0.00     0.277 HD
ATOM     17  H31 UNL     1      45.487  -4.441  25.881  1.00  0.00     0.277 HD
ENDBRANCH   6  11
BRANCH   1  18
HETATM   18  C3  UNL     1      41.215  -0.420  31.551  1.00  0.00     0.054 C 
BRANCH  18  19
HETATM   19  C2  UNL     1      39.755  -0.397  31.264  1.00  0.00     0.115 C 
BRANCH  19  20
HETATM   20  N1  UNL     1      39.179   0.921  31.234  1.00  0.00    -0.425 N 
HETATM   21  C1  UNL     1      38.159   1.156  32.207  1.00  0.00     0.139 C 
ATOM     22  H1  UNL     1      39.477   1.635  30.568  1.00  0.00     0.152 HD
ENDBRANCH  19  20
ENDBRANCH  18  19
ENDBRANCH   1  18
TORSDOF 4
ENDMDL
