MODEL 1
REMARK VINA RESULT: -5.272112136      0.000      0.000
REMARK  4 active torsions:
REMARK  status: ('A' for Active; 'I' for Inactive)
REMARK    1  A    between atoms: O1_2  and  C2_3 
REMARK    2  A    between atoms: C2_3  and  C3_4 
REMARK    3  A    between atoms: C7_8  and  N1_9 
REMARK       I    between atoms: N1_9  and  C8_11 
REMARK       I    between atoms: C8_11  and  N3_15 
REMARK    4  A    between atoms: N3_15  and  N4_17 
ROOT
HETATM    1  N1  UNL     1      43.828  -1.135  31.248  1.00  0.00    -0.218 N 
ATOM      2  H1  UNL     1      44.757  -0.714  31.252  1.00  0.00     0.178 HD
HETATM    3  C8  UNL     1      43.300  -1.616  30.035  1.00  0.00     0.687 C 
HETATM    4  N2  UNL     1      43.753  -2.686  29.517  1.00  0.00    -0.234 N 
ATOM      5  H21 UNL     1      43.370  -3.035  28.638  1.00  0.00     0.174 HD
ATOM      6  H22 UNL     1      44.501  -3.201  29.979  1.00  0.00     0.174 HD
HETATM    7  N3  UNL     1      42.265  -0.904  29.395  1.00  0.00    -0.119 N 
ATOM      8  H3  UNL     1      42.486  -0.423  28.523  1.00  0.00     0.207 HD
ENDROOT
BRANCH   1   9
HETATM    9  C7  UNL     1      43.088  -1.222  32.487  1.00  0.00     0.128 C 
HETATM   10  C6  UNL     1      43.861  -1.963  33.502  1.00  0.00     0.028 C 
HETATM   11  C5  UNL     1      45.005  -1.171  34.095  1.00  0.00     0.005 C 
HETATM   12  C4  UNL     1      44.387  -0.271  35.150  1.00  0.00     0.034 C 
HETATM   13  C3  UNL     1      44.127   1.066  34.514  1.00  0.00     0.145 C 
HETATM   14  O2  UNL     1      43.547   1.028  33.295  1.00  0.00    -0.377 OA
HETATM   15  C9  UNL     1      42.622   0.157  32.911  1.00  0.00     0.141 C 
HETATM   16  C10 UNL     1      41.336   0.071  33.695  1.00  0.00     0.041 C 
BRANCH  13  17
HETATM   17  C2  UNL     1      43.392   1.992  35.461  1.00  0.00     0.199 C 
BRANCH  17  18
HETATM   18  O1  UNL     1      43.663   3.317  35.278  1.00  0.00    -0.393 OA
HETATM   19  C1  UNL     1      44.047   3.976  36.428  1.00  0.00     0.201 C 
ENDBRANCH  17  18
ENDBRANCH  13  17
ENDBRANCH   1   9
BRANCH   7  20
HETATM   20  N4  UNL     1      40.962  -0.813  29.873  1.00  0.00    -0.235 N 
HETATM   21  N5  UNL     1      40.379   0.257  30.184  1.00  0.00    -0.330 N 
ATOM     22  H52 UNL     1      40.917   1.116  30.070  1.00  0.00     0.178 HD
ATOM     23  H51 UNL     1      39.423   0.324  30.535  1.00  0.00     0.178 HD
ATOM     24  H4  UNL     1      40.439  -1.682  29.980  1.00  0.00     0.208 HD
ENDBRANCH   7  20
TORSDOF 4
ENDMDL
MODEL 2
REMARK VINA RESULT: -5.081027072      4.717      6.392
REMARK  4 active torsions:
REMARK  status: ('A' for Active; 'I' for Inactive)
REMARK    1  A    between atoms: O1_2  and  C2_3 
REMARK    2  A    between atoms: C2_3  and  C3_4 
REMARK    3  A    between atoms: C7_8  and  N1_9 
REMARK       I    between atoms: N1_9  and  C8_11 
REMARK       I    between atoms: C8_11  and  N3_15 
REMARK    4  A    between atoms: N3_15  and  N4_17 
ROOT
HETATM    1  N1  UNL     1      47.512   0.611  36.364  1.00  0.00    -0.218 N 
ATOM      2  H1  UNL     1      47.730   1.353  35.699  1.00  0.00     0.178 HD
HETATM    3  C8  UNL     1      48.559  -0.177  36.878  1.00  0.00     0.687 C 
HETATM    4  N2  UNL     1      49.368   0.307  37.732  1.00  0.00    -0.234 N 
ATOM      5  H21 UNL     1      50.127  -0.264  38.104  1.00  0.00     0.174 HD
ATOM      6  H22 UNL     1      49.261   1.271  38.048  1.00  0.00     0.174 HD
HETATM    7  N3  UNL     1      48.707  -1.509  36.440  1.00  0.00    -0.119 N 
ATOM      8  H3  UNL     1      49.509  -1.730  35.849  1.00  0.00     0.207 HD
ENDROOT
BRANCH   1   9
HETATM    9  C7  UNL     1      46.136   0.396  36.755  1.00  0.00     0.128 C 
HETATM   10  C6  UNL     1      45.540   1.647  37.263  1.00  0.00     0.028 C 
HETATM   11  C5  UNL     1      45.209   2.648  36.179  1.00  0.00     0.005 C 
HETATM   12  C4  UNL     1      43.884   2.199  35.587  1.00  0.00     0.034 C 
HETATM   13  C3  UNL     1      44.186   1.368  34.372  1.00  0.00     0.145 C 
HETATM   14  O2  UNL     1      45.158   0.443  34.526  1.00  0.00    -0.377 OA
HETATM   15  C9  UNL     1      45.375  -0.269  35.625  1.00  0.00     0.141 C 
HETATM   16  C10 UNL     1      44.258  -1.128  36.165  1.00  0.00     0.041 C 
BRANCH  13  17
HETATM   17  C2  UNL     1      42.924   0.770  33.787  1.00  0.00     0.199 C 
BRANCH  17  18
HETATM   18  O1  UNL     1      43.048   0.343  32.496  1.00  0.00    -0.393 OA
HETATM   19  C1  UNL     1      41.979  -0.406  32.047  1.00  0.00     0.201 C 
ENDBRANCH  17  18
ENDBRANCH  13  17
ENDBRANCH   1   9
BRANCH   7  20
HETATM   20  N4  UNL     1      47.833  -2.543  36.760  1.00  0.00    -0.235 N 
HETATM   21  N5  UNL     1      47.246  -3.278  35.925  1.00  0.00    -0.330 N 
ATOM     22  H52 UNL     1      47.436  -3.088  34.942  1.00  0.00     0.178 HD
ATOM     23  H51 UNL     1      46.604  -4.036  36.160  1.00  0.00     0.178 HD
ATOM     24  H4  UNL     1      47.655  -2.719  37.749  1.00  0.00     0.208 HD
ENDBRANCH   7  20
TORSDOF 4
ENDMDL
MODEL 3
REMARK VINA RESULT: -5.053314509      4.380      6.052
REMARK  4 active torsions:
REMARK  status: ('A' for Active; 'I' for Inactive)
REMARK    1  A    between atoms: O1_2  and  C2_3 
REMARK    2  A    between atoms: C2_3  and  C3_4 
REMARK    3  A    between atoms: C7_8  and  N1_9 
REMARK       I    between atoms: N1_9  and  C8_11 
REMARK       I    between atoms: C8_11  and  N3_15 
REMARK    4  A    between atoms: N3_15  and  N4_17 
ROOT
HETATM    1  N1  UNL     1      47.137   0.230  35.244  1.00  0.00    -0.218 N 
ATOM      2  H1  UNL     1      47.275   0.759  34.383  1.00  0.00     0.178 HD
HETATM    3  C8  UNL     1      48.261  -0.261  35.934  1.00  0.00     0.687 C 
HETATM    4  N2  UNL     1      49.014   0.534  36.581  1.00  0.00    -0.234 N 
ATOM      5  H21 UNL     1      49.829   0.178  37.082  1.00  0.00     0.174 HD
ATOM      6  H22 UNL     1      48.806   1.532  36.603  1.00  0.00     0.174 HD
HETATM    7  N3  UNL     1      48.548  -1.641  35.904  1.00  0.00    -0.119 N 
ATOM      8  H3  UNL     1      49.368  -1.945  35.379  1.00  0.00     0.207 HD
ENDROOT
BRANCH   1   9
HETATM    9  C7  UNL     1      45.791   0.004  35.723  1.00  0.00     0.128 C 
HETATM   10  C6  UNL     1      45.159   1.278  36.117  1.00  0.00     0.028 C 
HETATM   11  C5  UNL     1      44.733   2.135  34.945  1.00  0.00     0.005 C 
HETATM   12  C4  UNL     1      43.406   1.566  34.474  1.00  0.00     0.034 C 
HETATM   13  C3  UNL     1      43.694   0.615  33.345  1.00  0.00     0.145 C 
HETATM   14  O2  UNL     1      44.714  -0.245  33.554  1.00  0.00    -0.377 OA
HETATM   15  C9  UNL     1      45.013  -0.817  34.713  1.00  0.00     0.141 C 
HETATM   16  C10 UNL     1      43.963  -1.656  35.400  1.00  0.00     0.041 C 
BRANCH  13  17
HETATM   17  C2  UNL     1      42.437  -0.098  32.893  1.00  0.00     0.199 C 
BRANCH  17  18
HETATM   18  O1  UNL     1      42.222  -0.063  31.545  1.00  0.00    -0.393 OA
HETATM   19  C1  UNL     1      40.891  -0.121  31.187  1.00  0.00     0.201 C 
ENDBRANCH  17  18
ENDBRANCH  13  17
ENDBRANCH   1   9
BRANCH   7  20
HETATM   20  N4  UNL     1      47.788  -2.616  36.541  1.00  0.00    -0.235 N 
HETATM   21  N5  UNL     1      47.071  -3.470  35.959  1.00  0.00    -0.330 N 
ATOM     22  H52 UNL     1      47.058  -3.430  34.940  1.00  0.00     0.178 HD
ATOM     23  H51 UNL     1      46.513  -4.185  36.427  1.00  0.00     0.178 HD
ATOM     24  H4  UNL     1      47.814  -2.640  37.561  1.00  0.00     0.208 HD
ENDBRANCH   7  20
TORSDOF 4
ENDMDL
MODEL 4
REMARK VINA RESULT: -4.968081581      4.095      5.759
REMARK  4 active torsions:
REMARK  status: ('A' for Active; 'I' for Inactive)
REMARK    1  A    between atoms: O1_2  and  C2_3 
REMARK    2  A    between atoms: C2_3  and  C3_4 
REMARK    3  A    between atoms: C7_8  and  N1_9 
REMARK       I    between atoms: N1_9  and  C8_11 
REMARK       I    between atoms: C8_11  and  N3_15 
REMARK    4  A    between atoms: N3_15  and  N4_17 
ROOT
HETATM    1  N1  UNL     1      43.948  -4.096  26.796  1.00  0.00    -0.218 N 
ATOM      2  H1  UNL     1      44.608  -4.699  27.287  1.00  0.00     0.178 HD
HETATM    3  C8  UNL     1      44.096  -3.906  25.409  1.00  0.00     0.687 C 
HETATM    4  N2  UNL     1      43.797  -4.840  24.598  1.00  0.00    -0.234 N 
ATOM      5  H21 UNL     1      43.904  -4.703  23.593  1.00  0.00     0.174 HD
ATOM      6  H22 UNL     1      43.448  -5.731  24.950  1.00  0.00     0.174 HD
HETATM    7  N3  UNL     1      44.579  -2.674  24.922  1.00  0.00    -0.119 N 
ATOM      8  H3  UNL     1      45.513  -2.658  24.512  1.00  0.00     0.207 HD
ENDROOT
BRANCH   1   9
HETATM    9  C7  UNL     1      42.886  -3.456  27.542  1.00  0.00     0.128 C 
HETATM   10  C6  UNL     1      42.138  -4.451  28.334  1.00  0.00     0.028 C 
HETATM   11  C5  UNL     1      42.879  -4.936  29.560  1.00  0.00     0.005 C 
HETATM   12  C4  UNL     1      42.677  -3.867  30.619  1.00  0.00     0.034 C 
HETATM   13  C3  UNL     1      43.869  -2.951  30.576  1.00  0.00     0.145 C 
HETATM   14  O2  UNL     1      44.255  -2.557  29.343  1.00  0.00    -0.377 OA
HETATM   15  C9  UNL     1      43.440  -2.286  28.331  1.00  0.00     0.141 C 
HETATM   16  C10 UNL     1      42.391  -1.217  28.511  1.00  0.00     0.041 C 
BRANCH  13  17
HETATM   17  C2  UNL     1      43.694  -1.777  31.516  1.00  0.00     0.199 C 
BRANCH  17  18
HETATM   18  O1  UNL     1      42.444  -1.665  32.053  1.00  0.00    -0.393 OA
HETATM   19  C1  UNL     1      41.978  -0.368  32.124  1.00  0.00     0.201 C 
ENDBRANCH  17  18
ENDBRANCH  13  17
ENDBRANCH   1   9
BRANCH   7  20
HETATM   20  N4  UNL     1      43.868  -1.480  24.962  1.00  0.00    -0.235 N 
HETATM   21  N5  UNL     1      43.842  -0.622  24.044  1.00  0.00    -0.330 N 
ATOM     22  H52 UNL     1      44.391  -0.833  23.211  1.00  0.00     0.178 HD
ATOM     23  H51 UNL     1      43.320   0.255  24.074  1.00  0.00     0.178 HD
ATOM     24  H4  UNL     1      43.324  -1.286  25.803  1.00  0.00     0.208 HD
ENDBRANCH   7  20
TORSDOF 4
ENDMDL
MODEL 5
REMARK VINA RESULT: -4.952668927      5.160      6.204
REMARK  4 active torsions:
REMARK  status: ('A' for Active; 'I' for Inactive)
REMARK    1  A    between atoms: O1_2  and  C2_3 
REMARK    2  A    between atoms: C2_3  and  C3_4 
REMARK    3  A    between atoms: C7_8  and  N1_9 
REMARK       I    between atoms: N1_9  and  C8_11 
REMARK       I    between atoms: C8_11  and  N3_15 
REMARK    4  A    between atoms: N3_15  and  N4_17 
ROOT
HETATM    1  N1  UNL     1      47.480   0.655  35.878  1.00  0.00    -0.218 N 
ATOM      2  H1  UNL     1      47.646   1.492  35.319  1.00  0.00     0.178 HD
HETATM    3  C8  UNL     1      48.543  -0.240  36.104  1.00  0.00     0.687 C 
HETATM    4  N2  UNL     1      49.484   0.068  36.902  1.00  0.00    -0.234 N 
ATOM      5  H21 UNL     1      50.254  -0.580  37.065  1.00  0.00     0.174 HD
ATOM      6  H22 UNL     1      49.472   0.967  37.383  1.00  0.00     0.174 HD
HETATM    7  N3  UNL     1      48.559  -1.483  35.438  1.00  0.00    -0.119 N 
ATOM      8  H3  UNL     1      49.261  -1.625  34.712  1.00  0.00     0.207 HD
ENDROOT
BRANCH   1   9
HETATM    9  C7  UNL     1      46.159   0.419  36.419  1.00  0.00     0.128 C 
HETATM   10  C6  UNL     1      46.217   0.281  37.886  1.00  0.00     0.028 C 
HETATM   11  C5  UNL     1      46.420   1.591  38.615  1.00  0.00     0.005 C 
HETATM   12  C4  UNL     1      45.052   2.247  38.682  1.00  0.00     0.034 C 
HETATM   13  C3  UNL     1      44.947   3.201  37.524  1.00  0.00     0.145 C 
HETATM   14  O2  UNL     1      45.362   2.718  36.333  1.00  0.00    -0.377 OA
HETATM   15  C9  UNL     1      45.195   1.472  35.908  1.00  0.00     0.141 C 
HETATM   16  C10 UNL     1      43.795   0.917  35.818  1.00  0.00     0.041 C 
BRANCH  13  17
HETATM   17  C2  UNL     1      43.563   3.810  37.437  1.00  0.00     0.199 C 
BRANCH  17  18
HETATM   18  O1  UNL     1      43.508   5.134  37.762  1.00  0.00    -0.393 OA
HETATM   19  C1  UNL     1      43.022   5.382  39.028  1.00  0.00     0.201 C 
ENDBRANCH  17  18
ENDBRANCH  13  17
ENDBRANCH   1   9
BRANCH   7  20
HETATM   20  N4  UNL     1      47.682  -2.529  35.705  1.00  0.00    -0.235 N 
HETATM   21  N5  UNL     1      47.456  -3.010  36.844  1.00  0.00    -0.330 N 
ATOM     22  H52 UNL     1      47.964  -2.590  37.622  1.00  0.00     0.178 HD
ATOM     23  H51 UNL     1      46.813  -3.778  37.040  1.00  0.00     0.178 HD
ATOM     24  H4  UNL     1      47.183  -2.937  34.914  1.00  0.00     0.208 HD
ENDBRANCH   7  20
TORSDOF 4
ENDMDL
