MODEL 1
REMARK VINA RESULT: -10.289076583      0.000      0.000
REMARK  8 active torsions:
REMARK  status: ('A' for Active; 'I' for Inactive)
REMARK    1  A    between atoms: C2_2  and  N2_7 
REMARK    2  A    between atoms: N1_3  and  O1_5 
REMARK    3  A    between atoms: N2_7  and  S1_9 
REMARK    4  A    between atoms: S1_9  and  C3_12 
REMARK    5  A    between atoms: C6_15  and  N3_16 
REMARK    6  A    between atoms: N3_16  and  N4_18 
REMARK    7  A    between atoms: N6_24  and  N7_25 
REMARK       I    between atoms: N7_25  and  C9_27 
REMARK       I    between atoms: C9_27  and  N9_31 
REMARK    8  A    between atoms: N9_31  and  N10_33 
ROOT
HETATM    1  N4  UNL     1       4.043 -13.134  41.577  1.00  0.00    -0.281 N 
ATOM      2  H4  UNL     1       4.053 -12.176  41.930  1.00  0.00     0.188 HD
HETATM    3  C7  UNL     1       4.043 -13.364  40.304  1.00  0.00     0.188 C 
HETATM    4  N5  UNL     1       4.031 -14.639  39.667  1.00  0.00    -0.353 N 
ATOM      5  H5  UNL     1       4.346 -15.528  40.056  1.00  0.00     0.163 HD
HETATM    6  C8  UNL     1       3.473 -14.402  38.343  1.00  0.00     0.276 C 
HETATM    7  N6  UNL     1       4.046 -13.108  38.004  1.00  0.00    -0.222 N 
HETATM    8  C10 UNL     1       4.053 -12.379  39.228  1.00  0.00     0.309 C 
HETATM    9  O6  UNL     1       4.066 -11.117  39.325  1.00  0.00    -0.262 OA
ENDROOT
BRANCH   1  10
HETATM   10  N3  UNL     1       4.031 -14.202  42.452  1.00  0.00    -0.299 N 
ATOM     11  H3  UNL     1       3.226 -14.828  42.457  1.00  0.00     0.187 HD
BRANCH  10  12
HETATM   12  C6  UNL     1       5.099 -14.455  43.343  1.00  0.00     0.048 A 
HETATM   13  C5  UNL     1       6.209 -13.638  43.334  1.00  0.00     0.032 A 
HETATM   14  C4  UNL     1       7.280 -13.838  44.187  1.00  0.00     0.027 A 
HETATM   15  C3  UNL     1       7.256 -14.887  45.086  1.00  0.00     0.080 A 
HETATM   16  C12 UNL     1       6.135 -15.706  45.090  1.00  0.00     0.027 A 
HETATM   17  C11 UNL     1       5.077 -15.501  44.240  1.00  0.00     0.032 A 
BRANCH  15  18
HETATM   18  S1  UNL     1       8.592 -15.162  46.179  1.00  0.00     0.264 S 
HETATM   19  O2  UNL     1       9.140 -16.543  45.931  1.00  0.00    -0.200 OA
HETATM   20  O3  UNL     1       9.691 -14.182  45.913  1.00  0.00    -0.200 OA
BRANCH  18  21
HETATM   21  N2  UNL     1       8.110 -15.053  47.813  1.00  0.00    -0.268 N 
ATOM     22  H2  UNL     1       8.235 -14.154  48.278  1.00  0.00     0.180 HD
BRANCH  21  23
HETATM   23  C2  UNL     1       7.549 -16.106  48.579  1.00  0.00     0.107 C 
HETATM   24  C1  UNL     1       8.397 -16.997  49.400  1.00  0.00     0.091 C 
HETATM   25  N1  UNL     1       6.278 -16.277  48.547  1.00  0.00    -0.257 N 
ATOM     26  H1  UNL     1       5.692 -15.663  47.981  1.00  0.00     0.195 HD
BRANCH  25  27
HETATM   27  O1  UNL     1       5.710 -17.290  49.278  1.00  0.00    -0.288 OA
ATOM     28  H1  UNL     1       5.533 -18.126  48.865  1.00  0.00     0.244 HD
ENDBRANCH  25  27
ENDBRANCH  21  23
ENDBRANCH  18  21
ENDBRANCH  15  18
ENDBRANCH  10  12
ENDBRANCH   1  10
BRANCH   7  29
HETATM   29  N7  UNL     1       4.490 -12.688  36.742  1.00  0.00    -0.124 N 
HETATM   30  C9  UNL     1       3.723 -11.704  36.085  1.00  0.00     0.710 C 
HETATM   31  N8  UNL     1       2.748 -12.054  35.338  1.00  0.00    -0.232 N 
HETATM   32  N9  UNL     1       4.034 -10.343  36.256  1.00  0.00    -0.071 N 
ATOM     33  H82 UNL     1       2.522 -13.040  35.214  1.00  0.00     0.174 HD
ATOM     34  H81 UNL     1       2.193 -11.342  34.863  1.00  0.00     0.174 HD
ATOM     35  H9  UNL     1       3.289  -9.678  36.463  1.00  0.00     0.212 HD
ATOM     36  H7  UNL     1       5.331 -13.077  36.317  1.00  0.00     0.206 HD
BRANCH  32  37
HETATM   37  N10 UNL     1       5.349  -9.894  36.148  1.00  0.00    -0.024 N 
HETATM   38  O4  UNL     1       5.553  -8.666  36.209  1.00  0.00    -0.516 OA
HETATM   39  O5  UNL     1       6.370 -10.788  35.981  1.00  0.00    -0.516 OA
ENDBRANCH  32  37
ENDBRANCH   7  29
TORSDOF 8
ENDMDL
MODEL 2
REMARK VINA RESULT: -9.954712966      2.215      2.598
REMARK  8 active torsions:
REMARK  status: ('A' for Active; 'I' for Inactive)
REMARK    1  A    between atoms: C2_2  and  N2_7 
REMARK    2  A    between atoms: N1_3  and  O1_5 
REMARK    3  A    between atoms: N2_7  and  S1_9 
REMARK    4  A    between atoms: S1_9  and  C3_12 
REMARK    5  A    between atoms: C6_15  and  N3_16 
REMARK    6  A    between atoms: N3_16  and  N4_18 
REMARK    7  A    between atoms: N6_24  and  N7_25 
REMARK       I    between atoms: N7_25  and  C9_27 
REMARK       I    between atoms: C9_27  and  N9_31 
REMARK    8  A    between atoms: N9_31  and  N10_33 
ROOT
HETATM    1  N4  UNL     1       2.924 -13.206  41.463  1.00  0.00    -0.281 N 
ATOM      2  H4  UNL     1       2.593 -12.480  42.099  1.00  0.00     0.188 HD
HETATM    3  C7  UNL     1       2.931 -13.007  40.185  1.00  0.00     0.188 C 
HETATM    4  N5  UNL     1       3.362 -13.921  39.180  1.00  0.00    -0.353 N 
ATOM      5  H5  UNL     1       4.014 -14.698  39.290  1.00  0.00     0.163 HD
HETATM    6  C8  UNL     1       2.674 -13.510  37.965  1.00  0.00     0.276 C 
HETATM    7  N6  UNL     1       2.692 -12.059  38.087  1.00  0.00    -0.222 N 
HETATM    8  C10 UNL     1       2.499 -11.807  39.476  1.00  0.00     0.309 C 
HETATM    9  O6  UNL     1       2.040 -10.733  39.965  1.00  0.00    -0.262 OA
ENDROOT
BRANCH   1  10
HETATM   10  N3  UNL     1       3.373 -14.416  41.956  1.00  0.00    -0.299 N 
ATOM     11  H3  UNL     1       2.868 -15.268  41.710  1.00  0.00     0.187 HD
BRANCH  10  12
HETATM   12  C6  UNL     1       4.509 -14.512  42.792  1.00  0.00     0.048 A 
HETATM   13  C5  UNL     1       5.522 -13.585  42.682  1.00  0.00     0.032 A 
HETATM   14  C4  UNL     1       6.653 -13.629  43.477  1.00  0.00     0.027 A 
HETATM   15  C3  UNL     1       6.791 -14.629  44.421  1.00  0.00     0.080 A 
HETATM   16  C12 UNL     1       5.766 -15.560  44.526  1.00  0.00     0.027 A 
HETATM   17  C11 UNL     1       4.647 -15.508  43.733  1.00  0.00     0.032 A 
BRANCH  15  18
HETATM   18  S1  UNL     1       8.206 -14.708  45.444  1.00  0.00     0.264 S 
HETATM   19  O2  UNL     1       8.134 -15.968  46.266  1.00  0.00    -0.200 OA
HETATM   20  O3  UNL     1       9.446 -14.781  44.610  1.00  0.00    -0.200 OA
BRANCH  18  21
HETATM   21  N2  UNL     1       8.302 -13.372  46.501  1.00  0.00    -0.268 N 
ATOM     22  H2  UNL     1       7.718 -12.564  46.287  1.00  0.00     0.180 HD
BRANCH  21  23
HETATM   23  C2  UNL     1       9.124 -13.290  47.653  1.00  0.00     0.107 C 
HETATM   24  C1  UNL     1      10.589 -13.480  47.569  1.00  0.00     0.091 C 
HETATM   25  N1  UNL     1       8.571 -13.047  48.785  1.00  0.00    -0.257 N 
ATOM     26  H1  UNL     1       7.561 -12.916  48.844  1.00  0.00     0.195 HD
BRANCH  25  27
HETATM   27  O1  UNL     1       9.344 -12.963  49.915  1.00  0.00    -0.288 OA
ATOM     28  H1  UNL     1       9.797 -12.154  50.117  1.00  0.00     0.244 HD
ENDBRANCH  25  27
ENDBRANCH  21  23
ENDBRANCH  18  21
ENDBRANCH  15  18
ENDBRANCH  10  12
ENDBRANCH   1  10
BRANCH   7  29
HETATM   29  N7  UNL     1       2.863 -11.129  37.052  1.00  0.00    -0.124 N 
HETATM   30  C9  UNL     1       3.938 -11.344  36.165  1.00  0.00     0.710 C 
HETATM   31  N8  UNL     1       5.089 -10.863  36.437  1.00  0.00    -0.232 N 
HETATM   32  N9  UNL     1       3.738 -12.087  34.989  1.00  0.00    -0.071 N 
ATOM     33  H82 UNL     1       5.235 -10.324  37.291  1.00  0.00     0.174 HD
ATOM     34  H81 UNL     1       5.867 -11.018  35.796  1.00  0.00     0.174 HD
ATOM     35  H9  UNL     1       4.399 -12.822  34.738  1.00  0.00     0.212 HD
ATOM     36  H7  UNL     1       2.237 -10.332  36.945  1.00  0.00     0.206 HD
BRANCH  32  37
HETATM   37  N10 UNL     1       2.646 -11.830  34.161  1.00  0.00    -0.024 N 
HETATM   38  O4  UNL     1       2.865 -11.310  33.050  1.00  0.00    -0.516 OA
HETATM   39  O5  UNL     1       1.381 -12.146  34.573  1.00  0.00    -0.516 OA
ENDBRANCH  32  37
ENDBRANCH   7  29
TORSDOF 8
ENDMDL
MODEL 3
REMARK VINA RESULT: -9.889906550      1.207      1.415
REMARK  8 active torsions:
REMARK  status: ('A' for Active; 'I' for Inactive)
REMARK    1  A    between atoms: C2_2  and  N2_7 
REMARK    2  A    between atoms: N1_3  and  O1_5 
REMARK    3  A    between atoms: N2_7  and  S1_9 
REMARK    4  A    between atoms: S1_9  and  C3_12 
REMARK    5  A    between atoms: C6_15  and  N3_16 
REMARK    6  A    between atoms: N3_16  and  N4_18 
REMARK    7  A    between atoms: N6_24  and  N7_25 
REMARK       I    between atoms: N7_25  and  C9_27 
REMARK       I    between atoms: C9_27  and  N9_31 
REMARK    8  A    between atoms: N9_31  and  N10_33 
ROOT
HETATM    1  N4  UNL     1       4.059 -13.113  41.666  1.00  0.00    -0.281 N 
ATOM      2  H4  UNL     1       4.084 -12.150  42.002  1.00  0.00     0.188 HD
HETATM    3  C7  UNL     1       4.027 -13.364  40.397  1.00  0.00     0.188 C 
HETATM    4  N5  UNL     1       3.990 -14.649  39.781  1.00  0.00    -0.353 N 
ATOM      5  H5  UNL     1       4.308 -15.534  40.178  1.00  0.00     0.163 HD
HETATM    6  C8  UNL     1       3.403 -14.430  38.467  1.00  0.00     0.276 C 
HETATM    7  N6  UNL     1       3.978 -13.146  38.093  1.00  0.00    -0.222 N 
HETATM    8  C10 UNL     1       4.019 -12.397  39.305  1.00  0.00     0.309 C 
HETATM    9  O6  UNL     1       4.044 -11.133  39.380  1.00  0.00    -0.262 OA
ENDROOT
BRANCH   1  10
HETATM   10  N3  UNL     1       4.060 -14.166  42.559  1.00  0.00    -0.299 N 
ATOM     11  H3  UNL     1       3.240 -14.772  42.609  1.00  0.00     0.187 HD
BRANCH  10  12
HETATM   12  C6  UNL     1       5.159 -14.431  43.407  1.00  0.00     0.048 A 
HETATM   13  C5  UNL     1       6.288 -13.645  43.333  1.00  0.00     0.032 A 
HETATM   14  C4  UNL     1       7.391 -13.858  44.141  1.00  0.00     0.027 A 
HETATM   15  C3  UNL     1       7.379 -14.888  45.061  1.00  0.00     0.080 A 
HETATM   16  C12 UNL     1       6.239 -15.676  45.131  1.00  0.00     0.027 A 
HETATM   17  C11 UNL     1       5.149 -15.459  44.325  1.00  0.00     0.032 A 
BRANCH  15  18
HETATM   18  S1  UNL     1       8.755 -15.179  46.100  1.00  0.00     0.264 S 
HETATM   19  O2  UNL     1       9.412 -16.467  45.679  1.00  0.00    -0.200 OA
HETATM   20  O3  UNL     1       9.762 -14.084  45.945  1.00  0.00    -0.200 OA
BRANCH  18  21
HETATM   21  N2  UNL     1       8.298 -15.311  47.739  1.00  0.00    -0.268 N 
ATOM     22  H2  UNL     1       7.497 -15.906  47.954  1.00  0.00     0.180 HD
BRANCH  21  23
HETATM   23  C2  UNL     1       8.935 -14.666  48.828  1.00  0.00     0.107 C 
HETATM   24  C1  UNL     1       9.809 -15.411  49.761  1.00  0.00     0.091 C 
HETATM   25  N1  UNL     1       8.739 -13.410  48.996  1.00  0.00    -0.257 N 
ATOM     26  H1  UNL     1       8.137 -12.895  48.353  1.00  0.00     0.195 HD
BRANCH  25  27
HETATM   27  O1  UNL     1       9.343 -12.761  50.043  1.00  0.00    -0.288 OA
ATOM     28  H1  UNL     1       9.004 -11.924  50.337  1.00  0.00     0.244 HD
ENDBRANCH  25  27
ENDBRANCH  21  23
ENDBRANCH  18  21
ENDBRANCH  15  18
ENDBRANCH  10  12
ENDBRANCH   1  10
BRANCH   7  29
HETATM   29  N7  UNL     1       4.395 -12.750  36.814  1.00  0.00    -0.124 N 
HETATM   30  C9  UNL     1       3.643 -11.742  36.176  1.00  0.00     0.710 C 
HETATM   31  N8  UNL     1       2.632 -12.061  35.464  1.00  0.00    -0.232 N 
HETATM   32  N9  UNL     1       4.010 -10.393  36.327  1.00  0.00    -0.071 N 
ATOM     33  H82 UNL     1       2.366 -13.039  35.354  1.00  0.00     0.174 HD
ATOM     34  H81 UNL     1       2.089 -11.332  35.002  1.00  0.00     0.174 HD
ATOM     35  H9  UNL     1       3.297  -9.700  36.553  1.00  0.00     0.212 HD
ATOM     36  H7  UNL     1       5.207 -13.173  36.365  1.00  0.00     0.206 HD
BRANCH  32  37
HETATM   37  N10 UNL     1       5.336  -9.994  36.173  1.00  0.00    -0.024 N 
HETATM   38  O4  UNL     1       5.591  -8.777  36.249  1.00  0.00    -0.516 OA
HETATM   39  O5  UNL     1       6.313 -10.923  35.945  1.00  0.00    -0.516 OA
ENDBRANCH  32  37
ENDBRANCH   7  29
TORSDOF 8
ENDMDL
MODEL 4
REMARK VINA RESULT: -9.654522956      1.948      2.408
REMARK  8 active torsions:
REMARK  status: ('A' for Active; 'I' for Inactive)
REMARK    1  A    between atoms: C2_2  and  N2_7 
REMARK    2  A    between atoms: N1_3  and  O1_5 
REMARK    3  A    between atoms: N2_7  and  S1_9 
REMARK    4  A    between atoms: S1_9  and  C3_12 
REMARK    5  A    between atoms: C6_15  and  N3_16 
REMARK    6  A    between atoms: N3_16  and  N4_18 
REMARK    7  A    between atoms: N6_24  and  N7_25 
REMARK       I    between atoms: N7_25  and  C9_27 
REMARK       I    between atoms: C9_27  and  N9_31 
REMARK    8  A    between atoms: N9_31  and  N10_33 
ROOT
HETATM    1  N4  UNL     1       3.107 -13.177  41.504  1.00  0.00    -0.281 N 
ATOM      2  H4  UNL     1       2.755 -12.445  42.122  1.00  0.00     0.188 HD
HETATM    3  C7  UNL     1       3.120 -13.003  40.222  1.00  0.00     0.188 C 
HETATM    4  N5  UNL     1       3.578 -13.928  39.239  1.00  0.00    -0.353 N 
ATOM      5  H5  UNL     1       4.245 -14.689  39.369  1.00  0.00     0.163 HD
HETATM    6  C8  UNL     1       2.892 -13.555  38.010  1.00  0.00     0.276 C 
HETATM    7  N6  UNL     1       2.879 -12.103  38.103  1.00  0.00    -0.222 N 
HETATM    8  C10 UNL     1       2.670 -11.826  39.485  1.00  0.00     0.309 C 
HETATM    9  O6  UNL     1       2.185 -10.753  39.949  1.00  0.00    -0.262 OA
ENDROOT
BRANCH   1  10
HETATM   10  N3  UNL     1       3.575 -14.367  42.024  1.00  0.00    -0.299 N 
ATOM     11  H3  UNL     1       3.085 -15.233  41.797  1.00  0.00     0.187 HD
BRANCH  10  12
HETATM   12  C6  UNL     1       4.712 -14.424  42.863  1.00  0.00     0.048 A 
HETATM   13  C5  UNL     1       4.815 -15.418  43.812  1.00  0.00     0.032 A 
HETATM   14  C4  UNL     1       5.907 -15.523  44.656  1.00  0.00     0.027 A 
HETATM   15  C3  UNL     1       6.940 -14.610  44.559  1.00  0.00     0.080 A 
HETATM   16  C12 UNL     1       6.829 -13.612  43.601  1.00  0.00     0.027 A 
HETATM   17  C11 UNL     1       5.742 -13.515  42.768  1.00  0.00     0.032 A 
BRANCH  15  18
HETATM   18  S1  UNL     1       8.334 -14.720  45.607  1.00  0.00     0.264 S 
HETATM   19  O2  UNL     1       9.559 -14.934  44.756  1.00  0.00    -0.200 OA
HETATM   20  O3  UNL     1       8.522 -13.440  46.358  1.00  0.00    -0.200 OA
BRANCH  18  21
HETATM   21  N2  UNL     1       8.203 -16.018  46.708  1.00  0.00    -0.268 N 
ATOM     22  H2  UNL     1       7.926 -16.924  46.330  1.00  0.00     0.180 HD
BRANCH  21  23
HETATM   23  C2  UNL     1       8.445 -15.944  48.102  1.00  0.00     0.107 C 
HETATM   24  C1  UNL     1       7.419 -16.356  49.085  1.00  0.00     0.091 C 
HETATM   25  N1  UNL     1       9.582 -15.508  48.504  1.00  0.00    -0.257 N 
ATOM     26  H1  UNL     1      10.291 -15.224  47.827  1.00  0.00     0.195 HD
BRANCH  25  27
HETATM   27  O1  UNL     1       9.842 -15.425  49.849  1.00  0.00    -0.288 OA
ATOM     28  H1  UNL     1      10.733 -15.520  50.163  1.00  0.00     0.244 HD
ENDBRANCH  25  27
ENDBRANCH  21  23
ENDBRANCH  18  21
ENDBRANCH  15  18
ENDBRANCH  10  12
ENDBRANCH   1  10
BRANCH   7  29
HETATM   29  N7  UNL     1       3.040 -11.190  37.051  1.00  0.00    -0.124 N 
HETATM   30  C9  UNL     1       4.060 -11.461  36.115  1.00  0.00     0.710 C 
HETATM   31  N8  UNL     1       5.244 -11.031  36.324  1.00  0.00    -0.232 N 
HETATM   32  N9  UNL     1       3.768 -12.204  34.957  1.00  0.00    -0.071 N 
ATOM     33  H82 UNL     1       5.455 -10.492  37.164  1.00  0.00     0.174 HD
ATOM     34  H81 UNL     1       5.980 -11.226  35.647  1.00  0.00     0.174 HD
ATOM     35  H9  UNL     1       4.382 -12.971  34.682  1.00  0.00     0.212 HD
ATOM     36  H7  UNL     1       2.446 -10.366  36.966  1.00  0.00     0.206 HD
BRANCH  32  37
HETATM   37  N10 UNL     1       2.649 -11.905  34.182  1.00  0.00    -0.024 N 
HETATM   38  O4  UNL     1       1.526 -12.159  34.657  1.00  0.00    -0.516 OA
HETATM   39  O5  UNL     1       2.799 -11.352  32.940  1.00  0.00    -0.516 OA
ENDBRANCH  32  37
ENDBRANCH   7  29
TORSDOF 8
ENDMDL
MODEL 5
REMARK VINA RESULT: -9.549566927      2.786      3.597
REMARK  8 active torsions:
REMARK  status: ('A' for Active; 'I' for Inactive)
REMARK    1  A    between atoms: C2_2  and  N2_7 
REMARK    2  A    between atoms: N1_3  and  O1_5 
REMARK    3  A    between atoms: N2_7  and  S1_9 
REMARK    4  A    between atoms: S1_9  and  C3_12 
REMARK    5  A    between atoms: C6_15  and  N3_16 
REMARK    6  A    between atoms: N3_16  and  N4_18 
REMARK    7  A    between atoms: N6_24  and  N7_25 
REMARK       I    between atoms: N7_25  and  C9_27 
REMARK       I    between atoms: C9_27  and  N9_31 
REMARK    8  A    between atoms: N9_31  and  N10_33 
ROOT
HETATM    1  N4  UNL     1       4.248 -13.265  41.356  1.00  0.00    -0.281 N 
ATOM      2  H4  UNL     1       5.036 -12.633  41.210  1.00  0.00     0.188 HD
HETATM    3  C7  UNL     1       3.099 -13.017  40.816  1.00  0.00     0.188 C 
HETATM    4  N5  UNL     1       1.915 -13.803  40.929  1.00  0.00    -0.353 N 
ATOM      5  H5  UNL     1       1.852 -14.798  41.146  1.00  0.00     0.163 HD
HETATM    6  C8  UNL     1       0.816 -12.884  40.668  1.00  0.00     0.276 C 
HETATM    7  N6  UNL     1       1.374 -12.040  39.621  1.00  0.00    -0.222 N 
HETATM    8  C10 UNL     1       2.746 -11.881  39.972  1.00  0.00     0.309 C 
HETATM    9  O6  UNL     1       3.487 -10.924  39.601  1.00  0.00    -0.262 OA
ENDROOT
BRANCH   1  10
HETATM   10  N3  UNL     1       4.395 -14.399  42.131  1.00  0.00    -0.299 N 
ATOM     11  H3  UNL     1       3.763 -15.185  41.981  1.00  0.00     0.187 HD
BRANCH  10  12
HETATM   12  C6  UNL     1       5.392 -14.503  43.128  1.00  0.00     0.048 A 
HETATM   13  C5  UNL     1       5.260 -15.432  44.136  1.00  0.00     0.032 A 
HETATM   14  C4  UNL     1       6.208 -15.579  45.134  1.00  0.00     0.027 A 
HETATM   15  C3  UNL     1       7.333 -14.777  45.137  1.00  0.00     0.080 A 
HETATM   16  C12 UNL     1       7.459 -13.843  44.118  1.00  0.00     0.027 A 
HETATM   17  C11 UNL     1       6.514 -13.703  43.132  1.00  0.00     0.032 A 
BRANCH  15  18
HETATM   18  S1  UNL     1       8.550 -14.943  46.380  1.00  0.00     0.264 S 
HETATM   19  O2  UNL     1       9.237 -16.272  46.205  1.00  0.00    -0.200 OA
HETATM   20  O3  UNL     1       9.586 -13.873  46.238  1.00  0.00    -0.200 OA
BRANCH  18  21
HETATM   21  N2  UNL     1       7.872 -14.882  47.946  1.00  0.00    -0.268 N 
ATOM     22  H2  UNL     1       7.816 -13.968  48.394  1.00  0.00     0.180 HD
BRANCH  21  23
HETATM   23  C2  UNL     1       7.381 -15.993  48.676  1.00  0.00     0.107 C 
HETATM   24  C1  UNL     1       8.283 -16.842  49.485  1.00  0.00     0.091 C 
HETATM   25  N1  UNL     1       6.127 -16.256  48.621  1.00  0.00    -0.257 N 
ATOM     26  H1  UNL     1       5.505 -15.672  48.063  1.00  0.00     0.195 HD
BRANCH  25  27
HETATM   27  O1  UNL     1       5.626 -17.327  49.317  1.00  0.00    -0.288 OA
ATOM     28  H1  UNL     1       5.244 -18.058  48.845  1.00  0.00     0.244 HD
ENDBRANCH  25  27
ENDBRANCH  21  23
ENDBRANCH  18  21
ENDBRANCH  15  18
ENDBRANCH  10  12
ENDBRANCH   1  10
BRANCH   7  29
HETATM   29  N7  UNL     1       0.694 -11.510  38.516  1.00  0.00    -0.124 N 
HETATM   30  C9  UNL     1      -0.017 -12.416  37.702  1.00  0.00     0.710 C 
HETATM   31  N8  UNL     1       0.575 -12.996  36.732  1.00  0.00    -0.232 N 
HETATM   32  N9  UNL     1      -1.373 -12.677  37.966  1.00  0.00    -0.071 N 
ATOM     33  H82 UNL     1       1.559 -12.806  36.541  1.00  0.00     0.174 HD
ATOM     34  H81 UNL     1       0.061 -13.651  36.143  1.00  0.00     0.174 HD
ATOM     35  H9  UNL     1      -1.706 -13.641  37.989  1.00  0.00     0.212 HD
ATOM     36  H7  UNL     1       0.713 -10.512  38.309  1.00  0.00     0.206 HD
BRANCH  32  37
HETATM   37  N10 UNL     1      -2.269 -11.633  38.196  1.00  0.00    -0.024 N 
HETATM   38  O4  UNL     1      -2.109 -10.943  39.220  1.00  0.00    -0.516 OA
HETATM   39  O5  UNL     1      -3.284 -11.391  37.313  1.00  0.00    -0.516 OA
ENDBRANCH  32  37
ENDBRANCH   7  29
TORSDOF 8
ENDMDL
