MODEL 1
REMARK VINA RESULT: -7.542904640      0.000      0.000
REMARK  11 active torsions:
REMARK  status: ('A' for Active; 'I' for Inactive)
REMARK    1  A    between atoms: N1_2  and  N2_4 
REMARK    2  A    between atoms: C2_6  and  N3_7 
REMARK    3  A    between atoms: C2_6  and  C8_22 
REMARK    4  A    between atoms: N3_7  and  C3_9 
REMARK    5  A    between atoms: C3_9  and  C5_11 
REMARK    6  A    between atoms: C5_11  and  O1_12 
REMARK    7  A    between atoms: C5_11  and  C6_14 
REMARK       I    between atoms: C6_14  and  N4_16 
REMARK    8  A    between atoms: N4_16  and  N5_18 
REMARK    9  A    between atoms: N5_18  and  O3_20 
REMARK   10  A    between atoms: N8_27  and  C9_28 
REMARK   11  A    between atoms: C16_41  and  O4_42 
ROOT
HETATM    1  C9  UNL     1       3.215 -14.327  41.868  1.00  0.00     0.111 A 
HETATM    2  C10 UNL     1       4.392 -14.216  42.586  1.00  0.00    -0.007 A 
HETATM    3  C11 UNL     1       5.215 -13.008  42.475  1.00  0.00     0.052 C 
HETATM    4  C12 UNL     1       4.807 -15.241  43.416  1.00  0.00     0.068 A 
HETATM    5  C13 UNL     1       6.037 -15.087  44.145  1.00  0.00     0.101 C 
HETATM    6  N9  UNL     1       7.034 -14.972  44.752  1.00  0.00    -0.191 NA
HETATM    7  C14 UNL     1       4.047 -16.402  43.543  1.00  0.00     0.113 A 
HETATM    8  N10 UNL     1       2.911 -16.483  42.836  1.00  0.00    -0.349 N 
ATOM      9  H10 UNL     1       2.341 -17.326  42.916  1.00  0.00     0.167 HD
HETATM   10  C15 UNL     1       2.492 -15.492  42.022  1.00  0.00     0.128 A 
HETATM   11  N11 UNL     1       1.385 -15.663  41.383  1.00  0.00    -0.384 N 
ATOM     12 1H11 UNL     1       0.850 -16.524  41.497  1.00  0.00     0.157 HD
ATOM     13 2H11 UNL     1       1.068 -14.913  40.768  1.00  0.00     0.157 HD
ENDROOT
BRANCH   1  14
HETATM   14  N8  UNL     1       2.807 -13.269  41.024  1.00  0.00    -0.213 N 
HETATM   15  N7  UNL     1       2.321 -12.117  41.402  1.00  0.00    -0.233 N 
HETATM   16  N6  UNL     1       2.036 -11.346  40.381  1.00  0.00    -0.278 N 
ATOM     17  H7  UNL     1       2.180 -11.849  42.377  1.00  0.00     0.209 HD
HETATM   18  C8  UNL     1       2.347 -12.012  39.227  1.00  0.00     0.147 A 
ATOM     19  H6  UNL     1       1.647 -10.405  40.438  1.00  0.00     0.189 HD
HETATM   20  C16 UNL     1       2.838 -13.239  39.693  1.00  0.00     0.196 A 
BRANCH  18  21
HETATM   21  C2  UNL     1       2.217 -11.532  37.868  1.00  0.00     0.149 C 
HETATM   22  N2  UNL     1       1.213 -11.822  37.157  1.00  0.00    -0.288 N 
ATOM     23  H2  UNL     1       1.243 -11.449  36.208  1.00  0.00     0.188 HD
BRANCH  22  24
HETATM   24  N1  UNL     1       0.091 -12.555  37.450  1.00  0.00    -0.339 N 
HETATM   25  C1  UNL     1      -1.000 -11.923  38.160  1.00  0.00     0.167 C 
ATOM     26  H1  UNL     1       0.026 -13.534  37.170  1.00  0.00     0.179 HD
ENDBRANCH  22  24
BRANCH  21  27
HETATM   27  N3  UNL     1       3.252 -10.743  37.302  1.00  0.00    -0.366 N 
ATOM     28  H3  UNL     1       3.246  -9.757  37.563  1.00  0.00     0.161 HD
BRANCH  27  29
HETATM   29  C3  UNL     1       4.290 -11.136  36.429  1.00  0.00     0.117 C 
HETATM   30  C4  UNL     1       4.462 -12.637  36.258  1.00  0.00     0.035 C 
BRANCH  29  31
HETATM   31  C5  UNL     1       5.654 -10.555  36.704  1.00  0.00     0.234 C 
BRANCH  31  32
HETATM   32  O1  UNL     1       6.579 -11.182  35.871  1.00  0.00    -0.384 OA
ATOM     33  H1  UNL     1       7.336 -11.424  36.391  1.00  0.00     0.210 HD
ENDBRANCH  31  32
BRANCH  31  34
HETATM   34  C6  UNL     1       5.694  -9.100  36.415  1.00  0.00     0.270 C 
HETATM   35  O2  UNL     1       4.652  -8.574  35.902  1.00  0.00    -0.269 OA
HETATM   36  N4  UNL     1       6.806  -8.258  36.668  1.00  0.00    -0.244 N 
HETATM   37  C7  UNL     1       6.679  -6.847  36.338  1.00  0.00     0.183 C 
BRANCH  36  38
HETATM   38  N5  UNL     1       8.019  -8.669  37.204  1.00  0.00    -0.206 N 
ATOM     39  H5  UNL     1       8.714  -7.951  37.408  1.00  0.00     0.216 HD
BRANCH  38  40
HETATM   40  O3  UNL     1       8.316  -9.839  37.450  1.00  0.00    -0.274 OA
ATOM     41  H3  UNL     1       8.241 -10.247  38.305  1.00  0.00     0.246 HD
ENDBRANCH  38  40
ENDBRANCH  36  38
ENDBRANCH  31  34
ENDBRANCH  29  31
ENDBRANCH  27  29
ENDBRANCH  21  27
ENDBRANCH  18  21
BRANCH  20  42
HETATM   42  O4  UNL     1       3.297 -14.289  38.925  1.00  0.00    -0.343 OA
ATOM     43  H4  UNL     1       2.830 -15.090  38.722  1.00  0.00     0.219 HD
ENDBRANCH  20  42
ENDBRANCH   1  14
TORSDOF 11
ENDMDL
MODEL 2
REMARK VINA RESULT: -7.289682180      1.751      2.280
REMARK  11 active torsions:
REMARK  status: ('A' for Active; 'I' for Inactive)
REMARK    1  A    between atoms: N1_2  and  N2_4 
REMARK    2  A    between atoms: C2_6  and  N3_7 
REMARK    3  A    between atoms: C2_6  and  C8_22 
REMARK    4  A    between atoms: N3_7  and  C3_9 
REMARK    5  A    between atoms: C3_9  and  C5_11 
REMARK    6  A    between atoms: C5_11  and  O1_12 
REMARK    7  A    between atoms: C5_11  and  C6_14 
REMARK       I    between atoms: C6_14  and  N4_16 
REMARK    8  A    between atoms: N4_16  and  N5_18 
REMARK    9  A    between atoms: N5_18  and  O3_20 
REMARK   10  A    between atoms: N8_27  and  C9_28 
REMARK   11  A    between atoms: C16_41  and  O4_42 
ROOT
HETATM    1  C9  UNL     1       2.825 -14.774  41.822  1.00  0.00     0.111 A 
HETATM    2  C10 UNL     1       4.003 -14.192  42.257  1.00  0.00    -0.007 A 
HETATM    3  C11 UNL     1       4.377 -12.850  41.802  1.00  0.00     0.052 C 
HETATM    4  C12 UNL     1       4.840 -14.869  43.125  1.00  0.00     0.068 A 
HETATM    5  C13 UNL     1       6.055 -14.230  43.553  1.00  0.00     0.101 C 
HETATM    6  N9  UNL     1       7.046 -13.718  43.918  1.00  0.00    -0.191 NA
HETATM    7  C14 UNL     1       4.512 -16.146  43.576  1.00  0.00     0.113 A 
HETATM    8  N10 UNL     1       3.366 -16.685  43.138  1.00  0.00    -0.349 N 
ATOM      9  H10 UNL     1       3.109 -17.620  43.457  1.00  0.00     0.167 HD
HETATM   10  C15 UNL     1       2.537 -16.038  42.292  1.00  0.00     0.128 A 
HETATM   11  N11 UNL     1       1.457 -16.640  41.927  1.00  0.00    -0.384 N 
ATOM     12 1H11 UNL     1       1.244 -17.575  42.275  1.00  0.00     0.157 HD
ATOM     13 2H11 UNL     1       0.830 -16.151  41.288  1.00  0.00     0.157 HD
ENDROOT
BRANCH   1  14
HETATM   14  N8  UNL     1       1.981 -14.067  40.935  1.00  0.00    -0.213 N 
HETATM   15  N7  UNL     1       0.805 -13.570  41.212  1.00  0.00    -0.233 N 
HETATM   16  N6  UNL     1       0.271 -12.970  40.176  1.00  0.00    -0.278 N 
ATOM     17  H7  UNL     1       0.357 -13.639  42.126  1.00  0.00     0.209 HD
HETATM   18  C8  UNL     1       1.136 -13.063  39.120  1.00  0.00     0.147 A 
ATOM     19  H6  UNL     1      -0.639 -12.511  40.160  1.00  0.00     0.189 HD
HETATM   20  C16 UNL     1       2.217 -13.773  39.658  1.00  0.00     0.196 A 
BRANCH  18  21
HETATM   21  C2  UNL     1       0.964 -12.523  37.788  1.00  0.00     0.149 C 
HETATM   22  N2  UNL     1      -0.025 -11.794  37.491  1.00  0.00    -0.288 N 
ATOM     23  H2  UNL     1      -0.055 -11.494  36.517  1.00  0.00     0.188 HD
BRANCH  22  24
HETATM   24  N1  UNL     1      -1.065 -11.340  38.263  1.00  0.00    -0.339 N 
HETATM   25  C1  UNL     1      -2.329 -12.044  38.230  1.00  0.00     0.167 C 
ATOM     26  H1  UNL     1      -0.949 -10.516  38.853  1.00  0.00     0.179 HD
ENDBRANCH  22  24
BRANCH  21  27
HETATM   27  N3  UNL     1       1.906 -12.843  36.776  1.00  0.00    -0.366 N 
ATOM     28  H3  UNL     1       2.522 -13.630  36.982  1.00  0.00     0.161 HD
BRANCH  27  29
HETATM   29  C3  UNL     1       2.109 -12.222  35.524  1.00  0.00     0.117 C 
HETATM   30  C4  UNL     1       1.273 -12.775  34.382  1.00  0.00     0.035 C 
BRANCH  29  31
HETATM   31  C5  UNL     1       3.535 -12.140  35.040  1.00  0.00     0.234 C 
BRANCH  31  32
HETATM   32  O1  UNL     1       3.646 -11.056  34.171  1.00  0.00    -0.384 OA
ATOM     33  H1  UNL     1       4.150 -10.376  34.601  1.00  0.00     0.210 HD
ENDBRANCH  31  32
BRANCH  31  34
HETATM   34  C6  UNL     1       4.479 -11.923  36.163  1.00  0.00     0.270 C 
HETATM   35  O2  UNL     1       4.809 -12.939  36.860  1.00  0.00    -0.269 OA
HETATM   36  N4  UNL     1       5.038 -10.668  36.516  1.00  0.00    -0.244 N 
HETATM   37  C7  UNL     1       5.960 -10.626  37.640  1.00  0.00     0.183 C 
BRANCH  36  38
HETATM   38  N5  UNL     1       4.772  -9.463  35.877  1.00  0.00    -0.206 N 
ATOM     39  H5  UNL     1       4.124  -9.478  35.091  1.00  0.00     0.216 HD
BRANCH  38  40
HETATM   40  O3  UNL     1       5.263  -8.379  36.194  1.00  0.00    -0.274 OA
ATOM     41  H3  UNL     1       5.041  -7.547  35.792  1.00  0.00     0.246 HD
ENDBRANCH  38  40
ENDBRANCH  36  38
ENDBRANCH  31  34
ENDBRANCH  29  31
ENDBRANCH  27  29
ENDBRANCH  21  27
ENDBRANCH  18  21
BRANCH  20  42
HETATM   42  O4  UNL     1       3.374 -14.137  39.001  1.00  0.00    -0.343 OA
ATOM     43  H4  UNL     1       3.908 -13.584  38.444  1.00  0.00     0.219 HD
ENDBRANCH  20  42
ENDBRANCH   1  14
TORSDOF 11
ENDMDL
MODEL 3
REMARK VINA RESULT: -7.238095333      2.523      3.719
REMARK  11 active torsions:
REMARK  status: ('A' for Active; 'I' for Inactive)
REMARK    1  A    between atoms: N1_2  and  N2_4 
REMARK    2  A    between atoms: C2_6  and  N3_7 
REMARK    3  A    between atoms: C2_6  and  C8_22 
REMARK    4  A    between atoms: N3_7  and  C3_9 
REMARK    5  A    between atoms: C3_9  and  C5_11 
REMARK    6  A    between atoms: C5_11  and  O1_12 
REMARK    7  A    between atoms: C5_11  and  C6_14 
REMARK       I    between atoms: C6_14  and  N4_16 
REMARK    8  A    between atoms: N4_16  and  N5_18 
REMARK    9  A    between atoms: N5_18  and  O3_20 
REMARK   10  A    between atoms: N8_27  and  C9_28 
REMARK   11  A    between atoms: C16_41  and  O4_42 
ROOT
HETATM    1  C9  UNL     1       3.553 -14.559  42.154  1.00  0.00     0.111 A 
HETATM    2  C10 UNL     1       4.756 -14.164  42.712  1.00  0.00    -0.007 A 
HETATM    3  C11 UNL     1       5.364 -12.886  42.329  1.00  0.00     0.052 C 
HETATM    4  C12 UNL     1       5.398 -14.967  43.636  1.00  0.00     0.068 A 
HETATM    5  C13 UNL     1       6.647 -14.520  44.192  1.00  0.00     0.101 C 
HETATM    6  N9  UNL     1       7.662 -14.166  44.661  1.00  0.00    -0.191 NA
HETATM    7  C14 UNL     1       4.845 -16.187  44.021  1.00  0.00     0.113 A 
HETATM    8  N10 UNL     1       3.680 -16.545  43.464  1.00  0.00    -0.349 N 
ATOM      9  H10 UNL     1       3.260 -17.436  43.733  1.00  0.00     0.167 HD
HETATM   10  C15 UNL     1       3.040 -15.773  42.562  1.00  0.00     0.128 A 
HETATM   11  N11 UNL     1       1.923 -16.204  42.082  1.00  0.00    -0.384 N 
ATOM     12 1H11 UNL     1       1.543 -17.101  42.384  1.00  0.00     0.157 HD
ATOM     13 2H11 UNL     1       1.439 -15.620  41.400  1.00  0.00     0.157 HD
ENDROOT
BRANCH   1  14
HETATM   14  N8  UNL     1       2.911 -13.725  41.210  1.00  0.00    -0.213 N 
HETATM   15  N7  UNL     1       2.124 -12.716  41.474  1.00  0.00    -0.233 N 
HETATM   16  N6  UNL     1       1.684 -12.140  40.382  1.00  0.00    -0.278 N 
ATOM     17  H7  UNL     1       1.882 -12.413  42.418  1.00  0.00     0.209 HD
HETATM   18  C8  UNL     1       2.201 -12.796  39.299  1.00  0.00     0.147 A 
ATOM     19  H6  UNL     1       1.057 -11.336  40.346  1.00  0.00     0.189 HD
HETATM   20  C16 UNL     1       2.982 -13.802  39.883  1.00  0.00     0.196 A 
BRANCH  18  21
HETATM   21  C2  UNL     1       1.999 -12.487  37.900  1.00  0.00     0.149 C 
HETATM   22  N2  UNL     1       1.033 -11.770  37.513  1.00  0.00    -0.288 N 
ATOM     23  H2  UNL     1       0.976 -11.642  36.503  1.00  0.00     0.188 HD
BRANCH  22  24
HETATM   24  N1  UNL     1       0.047 -11.136  38.228  1.00  0.00    -0.339 N 
HETATM   25  C1  UNL     1      -1.237 -11.782  38.388  1.00  0.00     0.167 C 
ATOM     26  H1  UNL     1       0.218 -10.219  38.641  1.00  0.00     0.179 HD
ENDBRANCH  22  24
BRANCH  21  27
HETATM   27  N3  UNL     1       2.883 -13.025  36.929  1.00  0.00    -0.366 N 
ATOM     28  H3  UNL     1       3.049 -14.030  36.995  1.00  0.00     0.161 HD
BRANCH  27  29
HETATM   29  C3  UNL     1       3.564 -12.363  35.885  1.00  0.00     0.117 C 
HETATM   30  C4  UNL     1       4.686 -11.436  36.327  1.00  0.00     0.035 C 
BRANCH  29  31
HETATM   31  C5  UNL     1       2.709 -11.598  34.905  1.00  0.00     0.234 C 
BRANCH  31  32
HETATM   32  O1  UNL     1       3.534 -11.084  33.906  1.00  0.00    -0.384 OA
ATOM     33  H1  UNL     1       3.087 -10.354  33.494  1.00  0.00     0.210 HD
ENDBRANCH  31  32
BRANCH  31  34
HETATM   34  C6  UNL     1       1.705 -12.478  34.259  1.00  0.00     0.270 C 
HETATM   35  O2  UNL     1       0.835 -13.029  35.011  1.00  0.00    -0.269 OA
HETATM   36  N4  UNL     1       1.645 -12.749  32.868  1.00  0.00    -0.244 N 
HETATM   37  C7  UNL     1       0.588 -13.626  32.391  1.00  0.00     0.183 C 
BRANCH  36  38
HETATM   38  N5  UNL     1       2.522 -12.248  31.915  1.00  0.00    -0.206 N 
ATOM     39  H5  UNL     1       2.935 -11.332  32.087  1.00  0.00     0.216 HD
BRANCH  38  40
HETATM   40  O3  UNL     1       2.837 -12.831  30.877  1.00  0.00    -0.274 OA
ATOM     41  H3  UNL     1       3.716 -12.859  30.518  1.00  0.00     0.246 HD
ENDBRANCH  38  40
ENDBRANCH  36  38
ENDBRANCH  31  34
ENDBRANCH  29  31
ENDBRANCH  27  29
ENDBRANCH  21  27
ENDBRANCH  18  21
BRANCH  20  42
HETATM   42  O4  UNL     1       3.730 -14.754  39.222  1.00  0.00    -0.343 OA
ATOM     43  H4  UNL     1       4.588 -15.076  39.471  1.00  0.00     0.219 HD
ENDBRANCH  20  42
ENDBRANCH   1  14
TORSDOF 11
ENDMDL
MODEL 4
REMARK VINA RESULT: -7.197823998      2.939      5.818
REMARK  11 active torsions:
REMARK  status: ('A' for Active; 'I' for Inactive)
REMARK    1  A    between atoms: N1_2  and  N2_4 
REMARK    2  A    between atoms: C2_6  and  N3_7 
REMARK    3  A    between atoms: C2_6  and  C8_22 
REMARK    4  A    between atoms: N3_7  and  C3_9 
REMARK    5  A    between atoms: C3_9  and  C5_11 
REMARK    6  A    between atoms: C5_11  and  O1_12 
REMARK    7  A    between atoms: C5_11  and  C6_14 
REMARK       I    between atoms: C6_14  and  N4_16 
REMARK    8  A    between atoms: N4_16  and  N5_18 
REMARK    9  A    between atoms: N5_18  and  O3_20 
REMARK   10  A    between atoms: N8_27  and  C9_28 
REMARK   11  A    between atoms: C16_41  and  O4_42 
ROOT
HETATM    1  C9  UNL     1       3.658 -14.681  42.238  1.00  0.00     0.111 A 
HETATM    2  C10 UNL     1       4.851 -14.192  42.739  1.00  0.00    -0.007 A 
HETATM    3  C11 UNL     1       5.395 -12.923  42.247  1.00  0.00     0.052 C 
HETATM    4  C12 UNL     1       5.544 -14.894  43.708  1.00  0.00     0.068 A 
HETATM    5  C13 UNL     1       6.782 -14.352  44.202  1.00  0.00     0.101 C 
HETATM    6  N9  UNL     1       7.788 -13.919  44.621  1.00  0.00    -0.191 NA
HETATM    7  C14 UNL     1       5.053 -16.103  44.196  1.00  0.00     0.113 A 
HETATM    8  N10 UNL     1       3.895 -16.553  43.693  1.00  0.00    -0.349 N 
ATOM      9  H10 UNL     1       3.520 -17.437  44.038  1.00  0.00     0.167 HD
HETATM   10  C15 UNL     1       3.206 -15.880  42.748  1.00  0.00     0.128 A 
HETATM   11  N11 UNL     1       2.101 -16.394  42.326  1.00  0.00    -0.384 N 
ATOM     12 1H11 UNL     1       1.767 -17.281  42.704  1.00  0.00     0.157 HD
ATOM     13 2H11 UNL     1       1.580 -15.886  41.612  1.00  0.00     0.157 HD
ENDROOT
BRANCH   1  14
HETATM   14  N8  UNL     1       2.963 -13.950  41.247  1.00  0.00    -0.213 N 
HETATM   15  N7  UNL     1       2.183 -12.921  41.445  1.00  0.00    -0.233 N 
HETATM   16  N6  UNL     1       1.684 -12.463  40.323  1.00  0.00    -0.278 N 
ATOM     17  H7  UNL     1       1.986 -12.521  42.363  1.00  0.00     0.209 HD
HETATM   18  C8  UNL     1       2.150 -13.226  39.289  1.00  0.00     0.147 A 
ATOM     19  H6  UNL     1       1.051 -11.667  40.236  1.00  0.00     0.189 HD
HETATM   20  C16 UNL     1       2.967 -14.165  39.933  1.00  0.00     0.196 A 
BRANCH  18  21
HETATM   21  C2  UNL     1       1.875 -13.064  37.877  1.00  0.00     0.149 C 
HETATM   22  N2  UNL     1       2.799 -12.853  37.042  1.00  0.00    -0.288 N 
ATOM     23  H2  UNL     1       2.483 -12.730  36.080  1.00  0.00     0.188 HD
BRANCH  22  24
HETATM   24  N1  UNL     1       4.158 -12.763  37.216  1.00  0.00    -0.339 N 
HETATM   25  C1  UNL     1       4.847 -11.566  36.785  1.00  0.00     0.167 C 
ATOM     26  H1  UNL     1       4.676 -13.531  37.644  1.00  0.00     0.179 HD
ENDBRANCH  22  24
BRANCH  21  27
HETATM   27  N3  UNL     1       0.533 -13.110  37.416  1.00  0.00    -0.366 N 
ATOM     28  H3  UNL     1       0.282 -13.937  36.876  1.00  0.00     0.161 HD
BRANCH  27  29
HETATM   29  C3  UNL     1      -0.502 -12.167  37.603  1.00  0.00     0.117 C 
HETATM   30  C4  UNL     1      -0.063 -10.825  38.167  1.00  0.00     0.035 C 
BRANCH  29  31
HETATM   31  C5  UNL     1      -1.690 -12.627  38.410  1.00  0.00     0.234 C 
BRANCH  31  32
HETATM   32  O1  UNL     1      -1.277 -12.840  39.724  1.00  0.00    -0.384 OA
ATOM     33  H1  UNL     1      -0.634 -13.539  39.729  1.00  0.00     0.210 HD
ENDBRANCH  31  32
BRANCH  31  34
HETATM   34  C6  UNL     1      -2.763 -11.604  38.429  1.00  0.00     0.270 C 
HETATM   35  O2  UNL     1      -2.657 -10.655  39.274  1.00  0.00    -0.269 OA
HETATM   36  N4  UNL     1      -3.896 -11.607  37.576  1.00  0.00    -0.244 N 
HETATM   37  C7  UNL     1      -4.854 -10.521  37.713  1.00  0.00     0.183 C 
BRANCH  36  38
HETATM   38  N5  UNL     1      -4.175 -12.572  36.616  1.00  0.00    -0.206 N 
ATOM     39  H5  UNL     1      -4.006 -13.547  36.862  1.00  0.00     0.216 HD
BRANCH  38  40
HETATM   40  O3  UNL     1      -4.612 -12.334  35.490  1.00  0.00    -0.274 OA
ATOM     41  H3  UNL     1      -5.528 -12.387  35.242  1.00  0.00     0.246 HD
ENDBRANCH  38  40
ENDBRANCH  36  38
ENDBRANCH  31  34
ENDBRANCH  29  31
ENDBRANCH  27  29
ENDBRANCH  21  27
ENDBRANCH  18  21
BRANCH  20  42
HETATM   42  O4  UNL     1       3.687 -15.179  39.337  1.00  0.00    -0.343 OA
ATOM     43  H4  UNL     1       3.588 -16.111  39.488  1.00  0.00     0.219 HD
ENDBRANCH  20  42
ENDBRANCH   1  14
TORSDOF 11
ENDMDL
MODEL 5
REMARK VINA RESULT: -7.060144497      2.567      6.916
REMARK  11 active torsions:
REMARK  status: ('A' for Active; 'I' for Inactive)
REMARK    1  A    between atoms: N1_2  and  N2_4 
REMARK    2  A    between atoms: C2_6  and  N3_7 
REMARK    3  A    between atoms: C2_6  and  C8_22 
REMARK    4  A    between atoms: N3_7  and  C3_9 
REMARK    5  A    between atoms: C3_9  and  C5_11 
REMARK    6  A    between atoms: C5_11  and  O1_12 
REMARK    7  A    between atoms: C5_11  and  C6_14 
REMARK       I    between atoms: C6_14  and  N4_16 
REMARK    8  A    between atoms: N4_16  and  N5_18 
REMARK    9  A    between atoms: N5_18  and  O3_20 
REMARK   10  A    between atoms: N8_27  and  C9_28 
REMARK   11  A    between atoms: C16_41  and  O4_42 
ROOT
HETATM    1  C9  UNL     1       3.241 -12.039  36.559  1.00  0.00     0.111 A 
HETATM    2  C10 UNL     1       4.389 -11.467  37.076  1.00  0.00    -0.007 A 
HETATM    3  C11 UNL     1       4.758 -11.685  38.478  1.00  0.00     0.052 C 
HETATM    4  C12 UNL     1       5.203 -10.683  36.278  1.00  0.00     0.068 A 
HETATM    5  C13 UNL     1       6.387 -10.105  36.854  1.00  0.00     0.101 C 
HETATM    6  N9  UNL     1       7.361  -9.634  37.307  1.00  0.00    -0.191 NA
HETATM    7  C14 UNL     1       4.880 -10.456  34.942  1.00  0.00     0.113 A 
HETATM    8  N10 UNL     1       3.761 -11.023  34.467  1.00  0.00    -0.349 N 
ATOM      9  H10 UNL     1       3.508 -10.868  33.491  1.00  0.00     0.167 HD
HETATM   10  C15 UNL     1       2.957 -11.791  35.232  1.00  0.00     0.128 A 
HETATM   11  N11 UNL     1       1.903 -12.293  34.685  1.00  0.00    -0.384 N 
ATOM     12 1H11 UNL     1       1.693 -12.110  33.703  1.00  0.00     0.157 HD
ATOM     13 2H11 UNL     1       1.296 -12.874  35.263  1.00  0.00     0.157 HD
ENDROOT
BRANCH   1  14
HETATM   14  N8  UNL     1       2.422 -12.838  37.390  1.00  0.00    -0.213 N 
HETATM   15  N7  UNL     1       2.319 -14.140  37.359  1.00  0.00    -0.233 N 
HETATM   16  N6  UNL     1       1.475 -14.586  38.256  1.00  0.00    -0.278 N 
ATOM     17  H7  UNL     1       2.836 -14.738  36.713  1.00  0.00     0.209 HD
HETATM   18  C8  UNL     1       0.964 -13.522  38.947  1.00  0.00     0.147 A 
ATOM     19  H6  UNL     1       1.237 -15.566  38.413  1.00  0.00     0.189 HD
HETATM   20  C16 UNL     1       1.603 -12.425  38.355  1.00  0.00     0.196 A 
BRANCH  18  21
HETATM   21  C2  UNL     1       0.016 -13.552  40.041  1.00  0.00     0.149 C 
HETATM   22  N2  UNL     1      -1.197 -13.240  39.874  1.00  0.00    -0.288 N 
ATOM     23  H2  UNL     1      -1.765 -13.273  40.720  1.00  0.00     0.188 HD
BRANCH  22  24
HETATM   24  N1  UNL     1      -1.877 -12.865  38.742  1.00  0.00    -0.339 N 
HETATM   25  C1  UNL     1      -2.337 -11.500  38.614  1.00  0.00     0.167 C 
ATOM     26  H1  UNL     1      -2.056 -13.542  37.999  1.00  0.00     0.179 HD
ENDBRANCH  22  24
BRANCH  21  27
HETATM   27  N3  UNL     1       0.459 -13.906  41.341  1.00  0.00    -0.366 N 
ATOM     28  H3  UNL     1      -0.260 -14.272  41.966  1.00  0.00     0.161 HD
BRANCH  27  29
HETATM   29  C3  UNL     1       1.758 -13.822  41.890  1.00  0.00     0.117 C 
HETATM   30  C4  UNL     1       2.437 -12.470  41.747  1.00  0.00     0.035 C 
BRANCH  29  31
HETATM   31  C5  UNL     1       2.744 -14.871  41.440  1.00  0.00     0.234 C 
BRANCH  31  32
HETATM   32  O1  UNL     1       3.596 -14.300  40.496  1.00  0.00    -0.384 OA
ATOM     33  H1  UNL     1       4.251 -14.944  40.253  1.00  0.00     0.210 HD
ENDBRANCH  31  32
BRANCH  31  34
HETATM   34  C6  UNL     1       3.575 -15.356  42.569  1.00  0.00     0.270 C 
HETATM   35  O2  UNL     1       3.215 -16.436  43.143  1.00  0.00    -0.269 OA
HETATM   36  N4  UNL     1       4.737 -14.703  43.054  1.00  0.00    -0.244 N 
HETATM   37  C7  UNL     1       5.448 -15.317  44.165  1.00  0.00     0.183 C 
BRANCH  36  38
HETATM   38  N5  UNL     1       5.255 -13.513  42.559  1.00  0.00    -0.206 N 
ATOM     39  H5  UNL     1       4.761 -13.067  41.787  1.00  0.00     0.216 HD
BRANCH  38  40
HETATM   40  O3  UNL     1       6.268 -12.959  42.985  1.00  0.00    -0.274 OA
ATOM     41  H3  UNL     1       6.554 -12.088  42.735  1.00  0.00     0.246 HD
ENDBRANCH  38  40
ENDBRANCH  36  38
ENDBRANCH  31  34
ENDBRANCH  29  31
ENDBRANCH  27  29
ENDBRANCH  21  27
ENDBRANCH  18  21
BRANCH  20  42
HETATM   42  O4  UNL     1       1.441 -11.096  38.689  1.00  0.00    -0.343 OA
ATOM     43  H4  UNL     1       2.129 -10.456  38.823  1.00  0.00     0.219 HD
ENDBRANCH  20  42
ENDBRANCH   1  14
TORSDOF 11
ENDMDL
