MODEL 1
REMARK VINA RESULT: -7.270289198      0.000      0.000
REMARK  7 active torsions:
REMARK  status: ('A' for Active; 'I' for Inactive)
REMARK    1  A    between atoms: C2_2  and  C3_4 
REMARK    2  A    between atoms: C3_4  and  N1_5 
REMARK    3  A    between atoms: N1_5  and  C4_7 
REMARK    4  A    between atoms: C4_7  and  O2_8 
REMARK    5  A    between atoms: C4_7  and  C5_10 
REMARK    6  A    between atoms: C8_18  and  C9_19 
REMARK    7  A    between atoms: C15_27  and  C16_28 
ROOT
HETATM    1  C9  UNL     1       3.464 -12.725  39.394  1.00  0.00     0.010 C 
HETATM    2  C10 UNL     1       4.406 -11.910  38.797  1.00  0.00     0.042 C 
HETATM    3  C11 UNL     1       4.503 -11.539  37.448  1.00  0.00     0.098 C 
HETATM    4  C12 UNL     1       5.782 -11.111  36.989  1.00  0.00     0.103 C 
HETATM    5  N4  UNL     1       6.813 -10.745  36.625  1.00  0.00    -0.191 NA
HETATM    6  C13 UNL     1       3.514 -11.528  36.496  1.00  0.00     0.222 C 
HETATM    7  O3  UNL     1       3.620 -10.749  35.521  1.00  0.00    -0.284 OA
HETATM    8  C14 UNL     1       2.365 -12.313  36.500  1.00  0.00     0.122 A 
HETATM    9  C15 UNL     1       1.611 -12.628  35.403  1.00  0.00     0.057 A 
HETATM   10  C19 UNL     1       0.556 -13.404  35.876  1.00  0.00     0.125 A 
HETATM   11  N7  UNL     1       0.678 -13.547  37.205  1.00  0.00    -0.304 N 
ATOM     12  H7  UNL     1       0.049 -14.065  37.818  1.00  0.00     0.186 HD
HETATM   13  N8  UNL     1       1.766 -12.891  37.571  1.00  0.00    -0.262 N 
HETATM   14  C20 UNL     1       2.167 -12.858  38.880  1.00  0.00     0.130 C 
ENDROOT
BRANCH   1  15
HETATM   15  C8  UNL     1       3.808 -13.480  40.587  1.00  0.00     0.049 A 
HETATM   16  C7  UNL     1       2.969 -14.462  41.043  1.00  0.00     0.078 A 
HETATM   17  C6  UNL     1       3.261 -15.209  42.189  1.00  0.00     0.102 A 
HETATM   18  N2  UNL     1       4.401 -14.925  42.822  1.00  0.00    -0.329 N 
HETATM   19  N3  UNL     1       2.444 -16.137  42.600  1.00  0.00    -0.385 N 
HETATM   20  C5  UNL     1       5.239 -13.972  42.400  1.00  0.00     0.132 A 
ATOM     21  H2  UNL     1       4.641 -15.454  43.660  1.00  0.00     0.168 HD
HETATM   22  N9  UNL     1       4.929 -13.253  41.275  1.00  0.00    -0.341 N 
ATOM     23  H9  UNL     1       5.570 -12.527  40.956  1.00  0.00     0.167 HD
ATOM     24  H32 UNL     1       2.658 -16.681  43.436  1.00  0.00     0.157 HD
ATOM     25  H31 UNL     1       1.573 -16.354  42.116  1.00  0.00     0.157 HD
BRANCH  20  26
HETATM   26  C4  UNL     1       6.482 -13.707  43.149  1.00  0.00     0.283 C 
BRANCH  26  27
HETATM   27  N1  UNL     1       6.736 -14.558  44.248  1.00  0.00    -0.384 N 
ATOM     28  H1  UNL     1       6.131 -15.354  44.448  1.00  0.00     0.156 HD
BRANCH  27  29
HETATM   29  C3  UNL     1       7.858 -14.271  45.063  1.00  0.00     0.195 C 
BRANCH  29  30
HETATM   30  C2  UNL     1       8.175 -15.461  45.940  1.00  0.00     0.140 C 
HETATM   31  C1  UNL     1       7.535 -15.679  47.247  1.00  0.00     0.092 C 
HETATM   32  O1  UNL     1       8.994 -16.269  45.544  1.00  0.00    -0.297 OA
ENDBRANCH  29  30
ENDBRANCH  27  29
ENDBRANCH  26  27
BRANCH  26  33
HETATM   33  O2  UNL     1       6.615 -12.343  43.491  1.00  0.00    -0.370 OA
ATOM     34  H2  UNL     1       7.525 -12.084  43.575  1.00  0.00     0.212 HD
ENDBRANCH  26  33
ENDBRANCH  20  26
ENDBRANCH   1  15
BRANCH   9  35
HETATM   35  C16 UNL     1       1.843 -12.275  34.025  1.00  0.00     0.111 C 
HETATM   36  N5  UNL     1       2.704 -12.936  33.295  1.00  0.00    -0.374 N 
HETATM   37  C17 UNL     1       2.772 -12.416  31.961  1.00  0.00     0.141 C 
ATOM     38  H5  UNL     1       3.258 -13.723  33.633  1.00  0.00     0.161 HD
HETATM   39  C18 UNL     1       1.567 -11.520  31.873  1.00  0.00     0.141 C 
HETATM   40  N6  UNL     1       1.280 -11.224  33.256  1.00  0.00    -0.374 N 
ATOM     41  H6  UNL     1       0.769 -10.416  33.612  1.00  0.00     0.161 HD
ENDBRANCH   9  35
TORSDOF 7
ENDMDL
MODEL 2
REMARK VINA RESULT: -4.960271093      2.844      9.864
REMARK  7 active torsions:
REMARK  status: ('A' for Active; 'I' for Inactive)
REMARK    1  A    between atoms: C2_2  and  C3_4 
REMARK    2  A    between atoms: C3_4  and  N1_5 
REMARK    3  A    between atoms: N1_5  and  C4_7 
REMARK    4  A    between atoms: C4_7  and  O2_8 
REMARK    5  A    between atoms: C4_7  and  C5_10 
REMARK    6  A    between atoms: C8_18  and  C9_19 
REMARK    7  A    between atoms: C15_27  and  C16_28 
ROOT
HETATM    1  C9  UNL     1       3.747 -13.743  41.268  1.00  0.00     0.010 C 
HETATM    2  C10 UNL     1       3.450 -15.029  41.674  1.00  0.00     0.042 C 
HETATM    3  C11 UNL     1       4.150 -15.836  42.584  1.00  0.00     0.098 C 
HETATM    4  C12 UNL     1       3.950 -17.243  42.483  1.00  0.00     0.103 C 
HETATM    5  N4  UNL     1       3.771 -18.380  42.412  1.00  0.00    -0.191 NA
HETATM    6  C13 UNL     1       5.011 -15.444  43.579  1.00  0.00     0.222 C 
HETATM    7  O3  UNL     1       5.167 -16.190  44.573  1.00  0.00    -0.284 OA
HETATM    8  C14 UNL     1       5.752 -14.267  43.604  1.00  0.00     0.122 A 
HETATM    9  C15 UNL     1       6.892 -14.057  44.331  1.00  0.00     0.057 A 
HETATM   10  C19 UNL     1       7.273 -12.744  44.072  1.00  0.00     0.125 A 
HETATM   11  N7  UNL     1       6.394 -12.191  43.222  1.00  0.00    -0.304 N 
ATOM     12  H7  UNL     1       6.421 -11.239  42.857  1.00  0.00     0.186 HD
HETATM   13  N8  UNL     1       5.486 -13.112  42.945  1.00  0.00    -0.262 N 
HETATM   14  C20 UNL     1       4.450 -12.850  42.088  1.00  0.00     0.130 C 
ENDROOT
BRANCH   1  15
HETATM   15  C8  UNL     1       3.334 -13.284  39.952  1.00  0.00     0.049 A 
HETATM   16  C7  UNL     1       4.097 -13.577  38.853  1.00  0.00     0.078 A 
HETATM   17  C6  UNL     1       3.738 -13.150  37.570  1.00  0.00     0.102 A 
HETATM   18  N2  UNL     1       2.613 -12.442  37.462  1.00  0.00    -0.329 N 
HETATM   19  N3  UNL     1       4.482 -13.443  36.542  1.00  0.00    -0.385 N 
HETATM   20  C5  UNL     1       1.848 -12.141  38.517  1.00  0.00     0.132 A 
ATOM     21  H2  UNL     1       2.325 -12.118  36.539  1.00  0.00     0.168 HD
HETATM   22  N9  UNL     1       2.223 -12.570  39.764  1.00  0.00    -0.341 N 
ATOM     23  H9  UNL     1       1.638 -12.338  40.566  1.00  0.00     0.167 HD
ATOM     24  H32 UNL     1       4.220 -13.132  35.607  1.00  0.00     0.157 HD
ATOM     25  H31 UNL     1       5.343 -13.985  36.625  1.00  0.00     0.157 HD
BRANCH  20  26
HETATM   26  C4  UNL     1       0.617 -11.351  38.327  1.00  0.00     0.283 C 
BRANCH  26  27
HETATM   27  N1  UNL     1      -0.504 -12.058  37.839  1.00  0.00    -0.384 N 
ATOM     28  H1  UNL     1      -0.599 -12.274  36.847  1.00  0.00     0.156 HD
BRANCH  27  29
HETATM   29  C3  UNL     1      -1.493 -12.459  38.771  1.00  0.00     0.195 C 
BRANCH  29  30
HETATM   30  C2  UNL     1      -2.734 -11.615  38.600  1.00  0.00     0.140 C 
HETATM   31  C1  UNL     1      -3.856 -12.014  37.734  1.00  0.00     0.092 C 
HETATM   32  O1  UNL     1      -2.804 -10.560  39.204  1.00  0.00    -0.297 OA
ENDBRANCH  29  30
ENDBRANCH  27  29
ENDBRANCH  26  27
BRANCH  26  33
HETATM   33  O2  UNL     1       0.855 -10.165  37.598  1.00  0.00    -0.370 OA
ATOM     34  H2  UNL     1       1.324 -10.331  36.788  1.00  0.00     0.212 HD
ENDBRANCH  26  33
ENDBRANCH  20  26
ENDBRANCH   1  15
BRANCH   9  35
HETATM   35  C16 UNL     1       7.599 -14.987  45.176  1.00  0.00     0.111 C 
HETATM   36  N5  UNL     1       8.795 -15.412  44.859  1.00  0.00    -0.374 N 
HETATM   37  C17 UNL     1       9.306 -16.325  45.839  1.00  0.00     0.141 C 
ATOM     38  H5  UNL     1       9.301 -15.129  44.020  1.00  0.00     0.161 HD
HETATM   39  C18 UNL     1       8.365 -16.155  47.000  1.00  0.00     0.141 C 
HETATM   40  N6  UNL     1       7.182 -15.607  46.382  1.00  0.00    -0.374 N 
ATOM     41  H6  UNL     1       6.229 -15.655  46.743  1.00  0.00     0.161 HD
ENDBRANCH   9  35
TORSDOF 7
ENDMDL
MODEL 3
REMARK VINA RESULT: -4.270336722      2.255      3.972
REMARK  7 active torsions:
REMARK  status: ('A' for Active; 'I' for Inactive)
REMARK    1  A    between atoms: C2_2  and  C3_4 
REMARK    2  A    between atoms: C3_4  and  N1_5 
REMARK    3  A    between atoms: N1_5  and  C4_7 
REMARK    4  A    between atoms: C4_7  and  O2_8 
REMARK    5  A    between atoms: C4_7  and  C5_10 
REMARK    6  A    between atoms: C8_18  and  C9_19 
REMARK    7  A    between atoms: C15_27  and  C16_28 
ROOT
HETATM    1  C9  UNL     1       3.700 -12.488  39.060  1.00  0.00     0.010 C 
HETATM    2  C10 UNL     1       4.678 -11.719  38.460  1.00  0.00     0.042 C 
HETATM    3  C11 UNL     1       4.824 -11.405  37.101  1.00  0.00     0.098 C 
HETATM    4  C12 UNL     1       6.126 -11.025  36.664  1.00  0.00     0.103 C 
HETATM    5  N4  UNL     1       7.176 -10.697  36.318  1.00  0.00    -0.191 NA
HETATM    6  C13 UNL     1       3.864 -11.410  36.120  1.00  0.00     0.222 C 
HETATM    7  O3  UNL     1       4.018 -10.673  35.118  1.00  0.00    -0.284 OA
HETATM    8  C14 UNL     1       2.698 -12.168  36.120  1.00  0.00     0.122 A 
HETATM    9  C15 UNL     1       1.969 -12.509  35.014  1.00  0.00     0.057 A 
HETATM   10  C19 UNL     1       0.882 -13.241  35.484  1.00  0.00     0.125 A 
HETATM   11  N7  UNL     1       0.961 -13.334  36.821  1.00  0.00    -0.304 N 
ATOM     12  H7  UNL     1       0.302 -13.813  37.435  1.00  0.00     0.186 HD
HETATM   13  N8  UNL     1       2.054 -12.688  37.193  1.00  0.00    -0.262 N 
HETATM   14  C20 UNL     1       2.416 -12.612  38.512  1.00  0.00     0.130 C 
ENDROOT
BRANCH   1  15
HETATM   15  C8  UNL     1       3.991 -13.202  40.291  1.00  0.00     0.049 A 
HETATM   16  C7  UNL     1       4.998 -12.770  41.114  1.00  0.00     0.078 A 
HETATM   17  C6  UNL     1       5.312 -13.432  42.306  1.00  0.00     0.102 A 
HETATM   18  N2  UNL     1       4.584 -14.508  42.610  1.00  0.00    -0.329 N 
HETATM   19  N3  UNL     1       6.275 -12.999  43.069  1.00  0.00    -0.385 N 
HETATM   20  C5  UNL     1       3.596 -14.953  41.826  1.00  0.00     0.132 A 
ATOM     21  H2  UNL     1       4.790 -15.010  43.473  1.00  0.00     0.168 HD
HETATM   22  N9  UNL     1       3.309 -14.287  40.663  1.00  0.00    -0.341 N 
ATOM     23  H9  UNL     1       2.555 -14.629  40.067  1.00  0.00     0.167 HD
ATOM     24  H32 UNL     1       6.504 -13.482  43.938  1.00  0.00     0.157 HD
ATOM     25  H31 UNL     1       6.831 -12.176  42.836  1.00  0.00     0.157 HD
BRANCH  20  26
HETATM   26  C4  UNL     1       2.833 -16.151  42.221  1.00  0.00     0.283 C 
BRANCH  26  27
HETATM   27  N1  UNL     1       1.426 -16.045  42.141  1.00  0.00    -0.384 N 
ATOM     28  H1  UNL     1       0.838 -16.231  42.952  1.00  0.00     0.156 HD
BRANCH  27  29
HETATM   29  C3  UNL     1       0.859 -15.673  40.898  1.00  0.00     0.195 C 
BRANCH  29  30
HETATM   30  C2  UNL     1       0.413 -14.230  40.947  1.00  0.00     0.140 C 
HETATM   31  C1  UNL     1      -0.452 -13.628  39.919  1.00  0.00     0.092 C 
HETATM   32  O1  UNL     1       0.789 -13.540  41.877  1.00  0.00    -0.297 OA
ENDBRANCH  29  30
ENDBRANCH  27  29
ENDBRANCH  26  27
BRANCH  26  33
HETATM   33  O2  UNL     1       3.256 -16.663  43.468  1.00  0.00    -0.370 OA
ATOM     34  H2  UNL     1       2.540 -16.733  44.087  1.00  0.00     0.212 HD
ENDBRANCH  26  33
ENDBRANCH  20  26
ENDBRANCH   1  15
BRANCH   9  35
HETATM   35  C16 UNL     1       2.250 -12.217  33.630  1.00  0.00     0.111 C 
HETATM   36  N5  UNL     1       2.257 -13.164  32.728  1.00  0.00    -0.374 N 
HETATM   37  C17 UNL     1       2.558 -12.649  31.425  1.00  0.00     0.141 C 
ATOM     38  H5  UNL     1       2.071 -14.147  32.927  1.00  0.00     0.161 HD
HETATM   39  C18 UNL     1       2.419 -11.161  31.597  1.00  0.00     0.141 C 
HETATM   40  N6  UNL     1       2.584 -10.981  33.019  1.00  0.00    -0.374 N 
ATOM     41  H6  UNL     1       2.882 -10.128  33.494  1.00  0.00     0.161 HD
ENDBRANCH   9  35
TORSDOF 7
ENDMDL
MODEL 4
REMARK VINA RESULT: -3.964320505      2.015      9.730
REMARK  7 active torsions:
REMARK  status: ('A' for Active; 'I' for Inactive)
REMARK    1  A    between atoms: C2_2  and  C3_4 
REMARK    2  A    between atoms: C3_4  and  N1_5 
REMARK    3  A    between atoms: N1_5  and  C4_7 
REMARK    4  A    between atoms: C4_7  and  O2_8 
REMARK    5  A    between atoms: C4_7  and  C5_10 
REMARK    6  A    between atoms: C8_18  and  C9_19 
REMARK    7  A    between atoms: C15_27  and  C16_28 
ROOT
HETATM    1  C9  UNL     1       3.314 -13.828  41.180  1.00  0.00     0.010 C 
HETATM    2  C10 UNL     1       3.145 -15.136  41.587  1.00  0.00     0.042 C 
HETATM    3  C11 UNL     1       3.965 -15.894  42.437  1.00  0.00     0.098 C 
HETATM    4  C12 UNL     1       3.868 -17.311  42.330  1.00  0.00     0.103 C 
HETATM    5  N4  UNL     1       3.773 -18.458  42.255  1.00  0.00    -0.191 NA
HETATM    6  C13 UNL     1       4.859 -15.445  43.377  1.00  0.00     0.222 C 
HETATM    7  O3  UNL     1       5.139 -16.185  44.349  1.00  0.00    -0.284 OA
HETATM    8  C14 UNL     1       5.507 -14.214  43.369  1.00  0.00     0.122 A 
HETATM    9  C15 UNL     1       6.673 -13.923  44.021  1.00  0.00     0.057 A 
HETATM   10  C19 UNL     1       6.933 -12.581  43.756  1.00  0.00     0.125 A 
HETATM   11  N7  UNL     1       5.959 -12.091  42.974  1.00  0.00    -0.304 N 
ATOM     12  H7  UNL     1       5.887 -11.137  42.622  1.00  0.00     0.186 HD
HETATM   13  N8  UNL     1       5.108 -13.078  42.746  1.00  0.00    -0.262 N 
HETATM   14  C20 UNL     1       3.999 -12.890  41.964  1.00  0.00     0.130 C 
ENDROOT
BRANCH   1  15
HETATM   15  C8  UNL     1       2.779 -13.390  39.902  1.00  0.00     0.049 A 
HETATM   16  C7  UNL     1       1.425 -13.287  39.723  1.00  0.00     0.078 A 
HETATM   17  C6  UNL     1       0.870 -12.873  38.508  1.00  0.00     0.102 A 
HETATM   18  N2  UNL     1       1.720 -12.581  37.523  1.00  0.00    -0.329 N 
HETATM   19  N3  UNL     1      -0.422 -12.784  38.367  1.00  0.00    -0.385 N 
HETATM   20  C5  UNL     1       3.047 -12.673  37.668  1.00  0.00     0.132 A 
ATOM     21  H2  UNL     1       1.345 -12.276  36.625  1.00  0.00     0.168 HD
HETATM   22  N9  UNL     1       3.566 -13.082  38.869  1.00  0.00    -0.341 N 
ATOM     23  H9  UNL     1       4.577 -13.151  38.976  1.00  0.00     0.167 HD
ATOM     24  H32 UNL     1      -0.827 -12.483  37.480  1.00  0.00     0.157 HD
ATOM     25  H31 UNL     1      -1.073 -13.008  39.120  1.00  0.00     0.157 HD
BRANCH  20  26
HETATM   26  C4  UNL     1       3.931 -12.337  36.536  1.00  0.00     0.283 C 
BRANCH  26  27
HETATM   27  N1  UNL     1       3.456 -12.688  35.253  1.00  0.00    -0.384 N 
ATOM     28  H1  UNL     1       3.380 -13.665  34.970  1.00  0.00     0.156 HD
BRANCH  27  29
HETATM   29  C3  UNL     1       3.090 -11.642  34.371  1.00  0.00     0.195 C 
BRANCH  29  30
HETATM   30  C2  UNL     1       2.131 -12.162  33.326  1.00  0.00     0.140 C 
HETATM   31  C1  UNL     1       2.411 -12.093  31.883  1.00  0.00     0.092 C 
HETATM   32  O1  UNL     1       1.083 -12.657  33.699  1.00  0.00    -0.297 OA
ENDBRANCH  29  30
ENDBRANCH  27  29
ENDBRANCH  26  27
BRANCH  26  33
HETATM   33  O2  UNL     1       5.257 -12.773  36.750  1.00  0.00    -0.370 OA
ATOM     34  H2  UNL     1       5.546 -12.614  37.641  1.00  0.00     0.212 HD
ENDBRANCH  26  33
ENDBRANCH  20  26
ENDBRANCH   1  15
BRANCH   9  35
HETATM   35  C16 UNL     1       7.506 -14.802  44.804  1.00  0.00     0.111 C 
HETATM   36  N5  UNL     1       8.724 -15.091  44.427  1.00  0.00    -0.374 N 
HETATM   37  C17 UNL     1       9.365 -15.977  45.353  1.00  0.00     0.141 C 
ATOM     38  H5  UNL     1       9.163 -14.731  43.580  1.00  0.00     0.161 HD
HETATM   39  C18 UNL     1       8.461 -15.943  46.554  1.00  0.00     0.141 C 
HETATM   40  N6  UNL     1       7.204 -15.500  46.002  1.00  0.00    -0.374 N 
ATOM     41  H6  UNL     1       6.277 -15.657  46.398  1.00  0.00     0.161 HD
ENDBRANCH   9  35
TORSDOF 7
ENDMDL
MODEL 5
REMARK VINA RESULT: -3.935358213      1.459      1.594
REMARK  7 active torsions:
REMARK  status: ('A' for Active; 'I' for Inactive)
REMARK    1  A    between atoms: C2_2  and  C3_4 
REMARK    2  A    between atoms: C3_4  and  N1_5 
REMARK    3  A    between atoms: N1_5  and  C4_7 
REMARK    4  A    between atoms: C4_7  and  O2_8 
REMARK    5  A    between atoms: C4_7  and  C5_10 
REMARK    6  A    between atoms: C8_18  and  C9_19 
REMARK    7  A    between atoms: C15_27  and  C16_28 
ROOT
HETATM    1  C9  UNL     1       3.686 -12.817  40.057  1.00  0.00     0.010 C 
HETATM    2  C10 UNL     1       4.515 -11.865  39.497  1.00  0.00     0.042 C 
HETATM    3  C11 UNL     1       4.532 -11.397  38.175  1.00  0.00     0.098 C 
HETATM    4  C12 UNL     1       5.743 -10.800  37.718  1.00  0.00     0.103 C 
HETATM    5  N4  UNL     1       6.716 -10.299  37.358  1.00  0.00    -0.191 NA
HETATM    6  C13 UNL     1       3.520 -11.434  37.248  1.00  0.00     0.222 C 
HETATM    7  O3  UNL     1       3.512 -10.585  36.326  1.00  0.00    -0.284 OA
HETATM    8  C14 UNL     1       2.465 -12.340  37.223  1.00  0.00     0.122 A 
HETATM    9  C15 UNL     1       1.718 -12.664  36.124  1.00  0.00     0.057 A 
HETATM   10  C19 UNL     1       0.769 -13.581  36.565  1.00  0.00     0.125 A 
HETATM   11  N7  UNL     1       0.944 -13.797  37.878  1.00  0.00    -0.304 N 
ATOM     12  H7  UNL     1       0.394 -14.422  38.467  1.00  0.00     0.186 HD
HETATM   13  N8  UNL     1       1.964 -13.050  38.264  1.00  0.00    -0.262 N 
HETATM   14  C20 UNL     1       2.397 -13.059  39.564  1.00  0.00     0.130 C 
ENDROOT
BRANCH   1  15
HETATM   15  C8  UNL     1       4.146 -13.606  41.187  1.00  0.00     0.049 A 
HETATM   16  C7  UNL     1       3.419 -14.688  41.609  1.00  0.00     0.078 A 
HETATM   17  C6  UNL     1       3.824 -15.472  42.695  1.00  0.00     0.102 A 
HETATM   18  N2  UNL     1       4.956 -15.119  43.306  1.00  0.00    -0.329 N 
HETATM   19  N3  UNL     1       3.113 -16.495  43.074  1.00  0.00    -0.385 N 
HETATM   20  C5  UNL     1       5.686 -14.068  42.916  1.00  0.00     0.132 A 
ATOM     21  H2  UNL     1       5.277 -15.672  44.100  1.00  0.00     0.168 HD
HETATM   22  N9  UNL     1       5.267 -13.316  41.850  1.00  0.00    -0.341 N 
ATOM     23  H9  UNL     1       5.825 -12.515  41.556  1.00  0.00     0.167 HD
ATOM     24  H32 UNL     1       3.409 -17.066  43.865  1.00  0.00     0.157 HD
ATOM     25  H31 UNL     1       2.247 -16.765  42.607  1.00  0.00     0.157 HD
BRANCH  20  26
HETATM   26  C4  UNL     1       6.927 -13.732  43.639  1.00  0.00     0.283 C 
BRANCH  26  27
HETATM   27  N1  UNL     1       8.120 -14.273  43.108  1.00  0.00    -0.384 N 
ATOM     28  H1  UNL     1       8.330 -14.205  42.112  1.00  0.00     0.156 HD
BRANCH  27  29
HETATM   29  C3  UNL     1       9.014 -14.912  44.001  1.00  0.00     0.195 C 
BRANCH  29  30
HETATM   30  C2  UNL     1      10.392 -14.983  43.386  1.00  0.00     0.140 C 
HETATM   31  C1  UNL     1      11.566 -15.487  44.118  1.00  0.00     0.092 C 
HETATM   32  O1  UNL     1      10.533 -14.607  42.237  1.00  0.00    -0.297 OA
ENDBRANCH  29  30
ENDBRANCH  27  29
ENDBRANCH  26  27
BRANCH  26  33
HETATM   33  O2  UNL     1       6.812 -13.961  45.027  1.00  0.00    -0.370 OA
ATOM     34  H2  UNL     1       6.974 -13.175  45.534  1.00  0.00     0.212 HD
ENDBRANCH  26  33
ENDBRANCH  20  26
ENDBRANCH   1  15
BRANCH   9  35
HETATM   35  C16 UNL     1       1.870 -12.197  34.768  1.00  0.00     0.111 C 
HETATM   36  N5  UNL     1       3.029 -12.246  34.163  1.00  0.00    -0.374 N 
HETATM   37  C17 UNL     1       2.947 -11.733  32.827  1.00  0.00     0.141 C 
ATOM     38  H5  UNL     1       3.883 -12.604  34.589  1.00  0.00     0.161 HD
HETATM   39  C18 UNL     1       1.468 -11.653  32.573  1.00  0.00     0.141 C 
HETATM   40  N6  UNL     1       0.910 -11.611  33.903  1.00  0.00    -0.374 N 
ATOM     41  H6  UNL     1       0.001 -11.233  34.170  1.00  0.00     0.161 HD
ENDBRANCH   9  35
TORSDOF 7
ENDMDL
