MODEL 1
REMARK VINA RESULT: -6.432153661      0.000      0.000
REMARK  6 active torsions:
REMARK  status: ('A' for Active; 'I' for Inactive)
REMARK    1  A    between atoms: C2_2  and  C3_4 
REMARK    2  A    between atoms: C3_4  and  C4_5 
REMARK    3  A    between atoms: C4_5  and  N1_6 
REMARK    4  A    between atoms: N1_6  and  C5_8 
REMARK    5  A    between atoms: C7_14  and  N4_15 
REMARK    6  A    between atoms: N4_15  and  C8_17 
ROOT
HETATM    1  C5  UNL     1      -4.782   2.769  12.937  1.00  0.00     0.693 A 
HETATM    2  N2  UNL     1      -4.145   3.952  12.989  1.00  0.00    -0.187 N 
ATOM      3  H2  UNL     1      -4.101   4.532  12.151  1.00  0.00     0.185 HD
HETATM    4  C6  UNL     1      -3.558   4.393  14.133  1.00  0.00     0.215 A 
HETATM    5  N3  UNL     1      -3.596   3.658  15.252  1.00  0.00    -0.187 N 
ATOM      6  H3  UNL     1      -3.154   3.994  16.107  1.00  0.00     0.185 HD
HETATM    7  C7  UNL     1      -4.230   2.464  15.230  1.00  0.00     0.693 A 
HETATM    8  N5  UNL     1      -4.799   2.048  14.097  1.00  0.00    -0.022 N 
ATOM      9  H5  UNL     1      -5.274   1.145  14.098  1.00  0.00     0.203 HD
ENDROOT
BRANCH   1  10
HETATM   10  N1  UNL     1      -5.348   2.303  11.902  1.00  0.00    -0.225 N 
ATOM     11  H1  UNL     1      -6.354   2.421  11.790  1.00  0.00     0.177 HD
BRANCH  10  12
HETATM   12  C4  UNL     1      -4.603   1.611  10.882  1.00  0.00     0.139 C 
BRANCH  12  13
HETATM   13  C3  UNL     1      -4.813   0.112  10.912  1.00  0.00     0.035 C 
BRANCH  13  14
HETATM   14  C2  UNL     1      -3.438  -0.528  10.691  1.00  0.00     0.055 C 
HETATM   15  C1  UNL     1      -3.278  -1.778  11.527  1.00  0.00     0.022 C 
HETATM   16 BR1  UNL     1      -2.103   0.772  11.237  1.00  0.00    -0.091 Br
ENDBRANCH  13  14
ENDBRANCH  12  13
ENDBRANCH  10  12
ENDBRANCH   1  10
BRANCH   7  17
HETATM   17  N4  UNL     1      -4.249   1.779  16.325  1.00  0.00    -0.221 N 
ATOM     18  H4  UNL     1      -3.435   1.211  16.562  1.00  0.00     0.178 HD
BRANCH  17  19
HETATM   19  C8  UNL     1      -5.363   1.786  17.213  1.00  0.00     0.099 C 
HETATM   20  C9  UNL     1      -6.110   0.468  17.338  1.00  0.00     0.026 C 
HETATM   21  C10 UNL     1      -7.382   1.289  17.414  1.00  0.00     0.004 C 
HETATM   22  C11 UNL     1      -6.647   2.365  16.640  1.00  0.00     0.026 C 
ENDBRANCH  17  19
ENDBRANCH   7  17
TORSDOF 6
ENDMDL
MODEL 2
REMARK VINA RESULT: -6.269880798      1.475      1.898
REMARK  6 active torsions:
REMARK  status: ('A' for Active; 'I' for Inactive)
REMARK    1  A    between atoms: C2_2  and  C3_4 
REMARK    2  A    between atoms: C3_4  and  C4_5 
REMARK    3  A    between atoms: C4_5  and  N1_6 
REMARK    4  A    between atoms: N1_6  and  C5_8 
REMARK    5  A    between atoms: C7_14  and  N4_15 
REMARK    6  A    between atoms: N4_15  and  C8_17 
ROOT
HETATM    1  C5  UNL     1      -3.177   3.595  12.999  1.00  0.00     0.693 A 
HETATM    2  N2  UNL     1      -3.764   4.787  12.788  1.00  0.00    -0.187 N 
ATOM      3  H2  UNL     1      -3.527   5.318  11.949  1.00  0.00     0.185 HD
HETATM    4  C6  UNL     1      -4.665   5.300  13.666  1.00  0.00     0.215 A 
HETATM    5  N3  UNL     1      -5.000   4.631  14.777  1.00  0.00    -0.187 N 
ATOM      6  H3  UNL     1      -5.676   5.021  15.433  1.00  0.00     0.185 HD
HETATM    7  C7  UNL     1      -4.427   3.430  15.016  1.00  0.00     0.693 A 
HETATM    8  N5  UNL     1      -3.544   2.943  14.142  1.00  0.00    -0.022 N 
ATOM      9  H5  UNL     1      -3.122   2.035  14.337  1.00  0.00     0.203 HD
ENDROOT
BRANCH   1  10
HETATM   10  N1  UNL     1      -2.330   3.063  12.219  1.00  0.00    -0.225 N 
ATOM     11  H1  UNL     1      -1.336   3.213  12.387  1.00  0.00     0.177 HD
BRANCH  10  12
HETATM   12  C4  UNL     1      -2.740   2.253  11.101  1.00  0.00     0.139 C 
BRANCH  12  13
HETATM   13  C3  UNL     1      -2.321   0.805  11.237  1.00  0.00     0.035 C 
BRANCH  13  14
HETATM   14  C2  UNL     1      -3.503  -0.041  10.750  1.00  0.00     0.055 C 
HETATM   15  C1  UNL     1      -4.821   0.572  11.172  1.00  0.00     0.022 C 
HETATM   16 BR1  UNL     1      -3.332  -1.794  11.566  1.00  0.00    -0.091 Br
ENDBRANCH  13  14
ENDBRANCH  12  13
ENDBRANCH  10  12
ENDBRANCH   1  10
BRANCH   7  17
HETATM   17  N4  UNL     1      -4.771   2.809  16.095  1.00  0.00    -0.221 N 
ATOM     18  H4  UNL     1      -4.177   2.894  16.919  1.00  0.00     0.178 HD
BRANCH  17  19
HETATM   19  C8  UNL     1      -5.948   2.011  16.177  1.00  0.00     0.099 C 
HETATM   20  C9  UNL     1      -7.022   2.522  17.124  1.00  0.00     0.026 C 
HETATM   21  C10 UNL     1      -7.279   1.071  17.486  1.00  0.00     0.004 C 
HETATM   22  C11 UNL     1      -5.845   0.793  17.083  1.00  0.00     0.026 C 
ENDBRANCH  17  19
ENDBRANCH   7  17
TORSDOF 6
ENDMDL
MODEL 3
REMARK VINA RESULT: -6.188360706      1.085      1.369
REMARK  6 active torsions:
REMARK  status: ('A' for Active; 'I' for Inactive)
REMARK    1  A    between atoms: C2_2  and  C3_4 
REMARK    2  A    between atoms: C3_4  and  C4_5 
REMARK    3  A    between atoms: C4_5  and  N1_6 
REMARK    4  A    between atoms: N1_6  and  C5_8 
REMARK    5  A    between atoms: C7_14  and  N4_15 
REMARK    6  A    between atoms: N4_15  and  C8_17 
ROOT
HETATM    1  C5  UNL     1      -4.339   3.267  12.774  1.00  0.00     0.693 A 
HETATM    2  N2  UNL     1      -3.336   4.158  12.871  1.00  0.00    -0.187 N 
ATOM      3  H2  UNL     1      -2.983   4.606  12.025  1.00  0.00     0.185 HD
HETATM    4  C6  UNL     1      -2.782   4.474  14.071  1.00  0.00     0.215 A 
HETATM    5  N3  UNL     1      -3.220   3.906  15.201  1.00  0.00    -0.187 N 
ATOM      6  H3  UNL     1      -2.799   4.147  16.099  1.00  0.00     0.185 HD
HETATM    7  C7  UNL     1      -4.227   3.007  15.135  1.00  0.00     0.693 A 
HETATM    8  N5  UNL     1      -4.759   2.709  13.948  1.00  0.00    -0.022 N 
ATOM      9  H5  UNL     1      -5.519   2.029  13.915  1.00  0.00     0.203 HD
ENDROOT
BRANCH   1  10
HETATM   10  N1  UNL     1      -4.897   2.930  11.686  1.00  0.00    -0.225 N 
ATOM     11  H1  UNL     1      -5.771   3.379  11.416  1.00  0.00     0.177 HD
BRANCH  10  12
HETATM   12  C4  UNL     1      -4.325   1.929  10.823  1.00  0.00     0.139 C 
BRANCH  12  13
HETATM   13  C3  UNL     1      -4.660   0.517  11.254  1.00  0.00     0.035 C 
BRANCH  13  14
HETATM   14  C2  UNL     1      -3.387  -0.064  11.879  1.00  0.00     0.055 C 
HETATM   15  C1  UNL     1      -2.149   0.575  11.289  1.00  0.00     0.022 C 
HETATM   16 BR1  UNL     1      -3.366  -1.965  11.481  1.00  0.00    -0.091 Br
ENDBRANCH  13  14
ENDBRANCH  12  13
ENDBRANCH  10  12
ENDBRANCH   1  10
BRANCH   7  17
HETATM   17  N4  UNL     1      -4.627   2.477  16.242  1.00  0.00    -0.221 N 
ATOM     18  H4  UNL     1      -4.092   2.654  17.093  1.00  0.00     0.178 HD
BRANCH  17  19
HETATM   19  C8  UNL     1      -5.787   1.654  16.322  1.00  0.00     0.099 C 
HETATM   20  C9  UNL     1      -7.045   2.340  16.832  1.00  0.00     0.026 C 
HETATM   21  C10 UNL     1      -7.361   1.044  17.555  1.00  0.00     0.004 C 
HETATM   22  C11 UNL     1      -5.871   0.766  17.555  1.00  0.00     0.026 C 
ENDBRANCH  17  19
ENDBRANCH   7  17
TORSDOF 6
ENDMDL
MODEL 4
REMARK VINA RESULT: -6.175200360      2.203      5.484
REMARK  6 active torsions:
REMARK  status: ('A' for Active; 'I' for Inactive)
REMARK    1  A    between atoms: C2_2  and  C3_4 
REMARK    2  A    between atoms: C3_4  and  C4_5 
REMARK    3  A    between atoms: C4_5  and  N1_6 
REMARK    4  A    between atoms: N1_6  and  C5_8 
REMARK    5  A    between atoms: C7_14  and  N4_15 
REMARK    6  A    between atoms: N4_15  and  C8_17 
ROOT
HETATM    1  C5  UNL     1      -3.928   3.415  13.363  1.00  0.00     0.693 A 
HETATM    2  N2  UNL     1      -3.805   4.431  12.489  1.00  0.00    -0.187 N 
ATOM      3  H2  UNL     1      -3.436   5.325  12.813  1.00  0.00     0.185 HD
HETATM    4  C6  UNL     1      -4.161   4.291  11.185  1.00  0.00     0.215 A 
HETATM    5  N3  UNL     1      -4.649   3.132  10.726  1.00  0.00    -0.187 N 
ATOM      6  H3  UNL     1      -4.916   3.034   9.746  1.00  0.00     0.185 HD
HETATM    7  C7  UNL     1      -4.784   2.094  11.580  1.00  0.00     0.693 A 
HETATM    8  N5  UNL     1      -4.429   2.249  12.858  1.00  0.00    -0.022 N 
ATOM      9  H5  UNL     1      -4.536   1.455  13.489  1.00  0.00     0.203 HD
ENDROOT
BRANCH   1  10
HETATM   10  N1  UNL     1      -3.614   3.482  14.590  1.00  0.00    -0.225 N 
ATOM     11  H1  UNL     1      -2.644   3.667  14.845  1.00  0.00     0.177 HD
BRANCH  10  12
HETATM   12  C4  UNL     1      -4.593   3.303  15.630  1.00  0.00     0.139 C 
BRANCH  12  13
HETATM   13  C3  UNL     1      -4.456   1.978  16.349  1.00  0.00     0.035 C 
BRANCH  13  14
HETATM   14  C2  UNL     1      -5.585   1.922  17.384  1.00  0.00     0.055 C 
HETATM   15  C1  UNL     1      -6.294   0.585  17.344  1.00  0.00     0.022 C 
HETATM   16 BR1  UNL     1      -6.852   3.321  16.931  1.00  0.00    -0.091 Br
ENDBRANCH  13  14
ENDBRANCH  12  13
ENDBRANCH  10  12
ENDBRANCH   1  10
BRANCH   7  17
HETATM   17  N4  UNL     1      -5.257   0.989  11.108  1.00  0.00    -0.221 N 
ATOM     18  H4  UNL     1      -6.266   0.897  10.994  1.00  0.00     0.178 HD
BRANCH  17  19
HETATM   19  C8  UNL     1      -4.423  -0.105  10.738  1.00  0.00     0.099 C 
HETATM   20  C9  UNL     1      -4.334  -1.234  11.753  1.00  0.00     0.026 C 
HETATM   21  C10 UNL     1      -2.871  -1.352  11.373  1.00  0.00     0.004 C 
HETATM   22  C11 UNL     1      -2.934   0.106  10.967  1.00  0.00     0.026 C 
ENDBRANCH  17  19
ENDBRANCH   7  17
TORSDOF 6
ENDMDL
MODEL 5
REMARK VINA RESULT: -6.138983033      2.297      3.815
REMARK  6 active torsions:
REMARK  status: ('A' for Active; 'I' for Inactive)
REMARK    1  A    between atoms: C2_2  and  C3_4 
REMARK    2  A    between atoms: C3_4  and  C4_5 
REMARK    3  A    between atoms: C4_5  and  N1_6 
REMARK    4  A    between atoms: N1_6  and  C5_8 
REMARK    5  A    between atoms: C7_14  and  N4_15 
REMARK    6  A    between atoms: N4_15  and  C8_17 
ROOT
HETATM    1  C5  UNL     1      -4.938   1.837  14.810  1.00  0.00     0.693 A 
HETATM    2  N2  UNL     1      -5.327   1.472  16.044  1.00  0.00    -0.187 N 
ATOM      3  H2  UNL     1      -5.070   0.550  16.396  1.00  0.00     0.185 HD
HETATM    4  C6  UNL     1      -6.056   2.304  16.833  1.00  0.00     0.215 A 
HETATM    5  N3  UNL     1      -6.412   3.522  16.403  1.00  0.00    -0.187 N 
ATOM      6  H3  UNL     1      -6.960   4.142  17.000  1.00  0.00     0.185 HD
HETATM    7  C7  UNL     1      -6.034   3.916  15.167  1.00  0.00     0.693 A 
HETATM    8  N5  UNL     1      -5.319   3.085  14.407  1.00  0.00    -0.022 N 
ATOM      9  H5  UNL     1      -5.041   3.398  13.476  1.00  0.00     0.203 HD
ENDROOT
BRANCH   1  10
HETATM   10  N1  UNL     1      -4.257   1.107  14.027  1.00  0.00    -0.225 N 
ATOM     11  H1  UNL     1      -3.833   0.252  14.386  1.00  0.00     0.177 HD
BRANCH  10  12
HETATM   12  C4  UNL     1      -4.069   1.456  12.642  1.00  0.00     0.139 C 
BRANCH  12  13
HETATM   13  C3  UNL     1      -4.734   0.483  11.692  1.00  0.00     0.035 C 
BRANCH  13  14
HETATM   14  C2  UNL     1      -3.615  -0.154  10.863  1.00  0.00     0.055 C 
HETATM   15  C1  UNL     1      -3.237  -1.513  11.412  1.00  0.00     0.022 C 
HETATM   16 BR1  UNL     1      -2.074   1.022  10.973  1.00  0.00    -0.091 Br
ENDBRANCH  13  14
ENDBRANCH  12  13
ENDBRANCH  10  12
ENDBRANCH   1  10
BRANCH   7  17
HETATM   17  N4  UNL     1      -6.392   5.096  14.782  1.00  0.00    -0.221 N 
ATOM     18  H4  UNL     1      -6.943   5.186  13.928  1.00  0.00     0.178 HD
BRANCH  17  19
HETATM   19  C8  UNL     1      -6.048   6.275  15.503  1.00  0.00     0.099 C 
HETATM   20  C9  UNL     1      -6.573   7.577  14.920  1.00  0.00     0.026 C 
HETATM   21  C10 UNL     1      -5.255   8.201  15.337  1.00  0.00     0.004 C 
HETATM   22  C11 UNL     1      -4.651   6.815  15.235  1.00  0.00     0.026 C 
ENDBRANCH  17  19
ENDBRANCH   7  17
TORSDOF 6
ENDMDL
