MODEL 1
REMARK VINA RESULT: -7.096767524      0.000      0.000
REMARK  4 active torsions:
REMARK  status: ('A' for Active; 'I' for Inactive)
REMARK    1  A    between atoms: C3_3  and  C5_6 
REMARK    2  A    between atoms: C5_6  and  C6_7 
REMARK    3  A    between atoms: C6_7  and  C7_8 
REMARK    4  A    between atoms: C7_8  and  N1_9 
ROOT
HETATM    1  C1  UNL     1      -4.281   1.247  16.391  1.00  0.00     0.014 C 
HETATM    2  C2  UNL     1      -5.286   1.689  16.885  1.00  0.00    -0.091 C 
HETATM    3  C3  UNL     1      -6.508   2.243  17.464  1.00  0.00     0.096 C 
HETATM    4  C4  UNL     1      -6.338   2.270  18.963  1.00  0.00     0.046 C 
HETATM    5 CL1  UNL     1      -7.873   1.157  17.065  1.00  0.00    -0.105 Cl
ENDROOT
BRANCH   3   6
HETATM    6  C5  UNL     1      -6.747   3.625  16.905  1.00  0.00     0.043 C 
BRANCH   6   7
HETATM    7  C6  UNL     1      -6.476   3.628  15.412  1.00  0.00     0.048 C 
BRANCH   7   8
HETATM    8  C7  UNL     1      -6.205   5.086  15.038  1.00  0.00     0.068 C 
BRANCH   8   9
HETATM    9  N1  UNL     1      -4.934   5.171  14.460  1.00  0.00    -0.354 N 
HETATM   10  C8  UNL     1      -4.775   5.817  13.221  1.00  0.00     0.071 C 
HETATM   11  C9  UNL     1      -4.300   4.796  12.208  1.00  0.00     0.086 C 
HETATM   12  C10 UNL     1      -3.221   3.969  12.845  1.00  0.00     0.124 C 
HETATM   13  C11 UNL     1      -2.667   4.587  14.121  1.00  0.00     0.086 C 
HETATM   14  N2  UNL     1      -3.661   2.627  13.122  1.00  0.00    -0.324 N 
HETATM   15  C15 UNL     1      -2.145   3.800  11.840  1.00  0.00     0.256 C 
HETATM   16  C12 UNL     1      -3.813   4.639  15.112  1.00  0.00     0.071 C 
HETATM   17  C13 UNL     1      -3.151   1.781  12.112  1.00  0.00     0.325 C 
ATOM     18  H2  UNL     1      -4.241   2.337  13.909  1.00  0.00     0.165 HD
HETATM   19  O1  UNL     1      -3.474   0.559  11.933  1.00  0.00    -0.247 OA
HETATM   20  N3  UNL     1      -2.229   2.489  11.331  1.00  0.00    -0.272 N 
HETATM   21  C14 UNL     1      -1.444   2.036  10.179  1.00  0.00     0.164 C 
HETATM   22  O2  UNL     1      -1.322   4.710  11.531  1.00  0.00    -0.270 OA
ENDBRANCH   8   9
ENDBRANCH   7   8
ENDBRANCH   6   7
ENDBRANCH   3   6
TORSDOF 4
ENDMDL
MODEL 2
REMARK VINA RESULT: -6.933254715      2.009      2.923
REMARK  4 active torsions:
REMARK  status: ('A' for Active; 'I' for Inactive)
REMARK    1  A    between atoms: C3_3  and  C5_6 
REMARK    2  A    between atoms: C5_6  and  C6_7 
REMARK    3  A    between atoms: C6_7  and  C7_8 
REMARK    4  A    between atoms: C7_8  and  N1_9 
ROOT
HETATM    1  C1  UNL     1      -7.158   3.782  17.531  1.00  0.00     0.014 C 
HETATM    2  C2  UNL     1      -6.429   3.836  16.575  1.00  0.00    -0.091 C 
HETATM    3  C3  UNL     1      -5.536   3.925  15.422  1.00  0.00     0.096 C 
HETATM    4  C4  UNL     1      -6.202   3.221  14.266  1.00  0.00     0.046 C 
HETATM    5 CL1  UNL     1      -4.013   3.070  15.810  1.00  0.00    -0.105 Cl
ENDROOT
BRANCH   3   6
HETATM    6  C5  UNL     1      -5.265   5.377  15.109  1.00  0.00     0.043 C 
BRANCH   6   7
HETATM    7  C6  UNL     1      -3.802   5.561  14.752  1.00  0.00     0.048 C 
BRANCH   7   8
HETATM    8  C7  UNL     1      -3.783   6.083  13.314  1.00  0.00     0.068 C 
BRANCH   8   9
HETATM    9  N1  UNL     1      -3.043   5.197  12.525  1.00  0.00    -0.354 N 
HETATM   10  C8  UNL     1      -3.376   5.027  11.169  1.00  0.00     0.071 C 
HETATM   11  C9  UNL     1      -3.821   3.594  10.965  1.00  0.00     0.086 C 
HETATM   12  C10 UNL     1      -2.862   2.696  11.692  1.00  0.00     0.124 C 
HETATM   13  C11 UNL     1      -1.571   3.397  12.091  1.00  0.00     0.086 C 
HETATM   14  N2  UNL     1      -3.458   2.099  12.857  1.00  0.00    -0.324 N 
HETATM   15  C15 UNL     1      -2.574   1.546  10.800  1.00  0.00     0.256 C 
HETATM   16  C12 UNL     1      -1.956   4.494  13.064  1.00  0.00     0.071 C 
HETATM   17  C13 UNL     1      -3.821   0.773  12.535  1.00  0.00     0.325 C 
ATOM     18  H2  UNL     1      -3.594   2.554  13.760  1.00  0.00     0.165 HD
HETATM   19  O1  UNL     1      -4.528  -0.002  13.263  1.00  0.00    -0.247 OA
HETATM   20  N3  UNL     1      -3.286   0.433  11.286  1.00  0.00    -0.272 N 
HETATM   21  C14 UNL     1      -3.391  -0.825  10.541  1.00  0.00     0.164 C 
HETATM   22  O2  UNL     1      -1.813   1.613   9.792  1.00  0.00    -0.270 OA
ENDBRANCH   8   9
ENDBRANCH   7   8
ENDBRANCH   6   7
ENDBRANCH   3   6
TORSDOF 4
ENDMDL
MODEL 3
REMARK VINA RESULT: -6.882855045      2.541      3.686
REMARK  4 active torsions:
REMARK  status: ('A' for Active; 'I' for Inactive)
REMARK    1  A    between atoms: C3_3  and  C5_6 
REMARK    2  A    between atoms: C5_6  and  C6_7 
REMARK    3  A    between atoms: C6_7  and  C7_8 
REMARK    4  A    between atoms: C7_8  and  N1_9 
ROOT
HETATM    1  C1  UNL     1      -6.606   4.181  16.296  1.00  0.00     0.014 C 
HETATM    2  C2  UNL     1      -6.193   5.078  15.606  1.00  0.00    -0.091 C 
HETATM    3  C3  UNL     1      -5.686   6.148  14.749  1.00  0.00     0.096 C 
HETATM    4  C4  UNL     1      -4.994   7.157  15.631  1.00  0.00     0.046 C 
HETATM    5 CL1  UNL     1      -7.074   6.946  13.950  1.00  0.00    -0.105 Cl
ENDROOT
BRANCH   3   6
HETATM    6  C5  UNL     1      -4.745   5.565  13.723  1.00  0.00     0.043 C 
BRANCH   6   7
HETATM    7  C6  UNL     1      -3.318   5.962  14.051  1.00  0.00     0.048 C 
BRANCH   7   8
HETATM    8  C7  UNL     1      -2.710   6.467  12.742  1.00  0.00     0.068 C 
BRANCH   8   9
HETATM    9  N1  UNL     1      -2.185   5.376  12.042  1.00  0.00    -0.354 N 
HETATM   10  C8  UNL     1      -2.615   5.120  10.728  1.00  0.00     0.071 C 
HETATM   11  C9  UNL     1      -3.322   3.780  10.711  1.00  0.00     0.086 C 
HETATM   12  C10 UNL     1      -2.504   2.807  11.510  1.00  0.00     0.124 C 
HETATM   13  C11 UNL     1      -1.088   3.296  11.782  1.00  0.00     0.086 C 
HETATM   14  N2  UNL     1      -3.136   2.466  12.757  1.00  0.00    -0.324 N 
HETATM   15  C15 UNL     1      -2.477   1.532  10.754  1.00  0.00     0.256 C 
HETATM   16  C12 UNL     1      -1.216   4.548  12.627  1.00  0.00     0.071 C 
HETATM   17  C13 UNL     1      -3.750   1.203  12.607  1.00  0.00     0.325 C 
ATOM     18  H2  UNL     1      -3.140   3.038  13.602  1.00  0.00     0.165 HD
HETATM   19  O1  UNL     1      -4.545   0.660  13.445  1.00  0.00    -0.247 OA
HETATM   20  N3  UNL     1      -3.352   0.631  11.392  1.00  0.00    -0.272 N 
HETATM   21  C14 UNL     1      -3.722  -0.661  10.807  1.00  0.00     0.164 C 
HETATM   22  O2  UNL     1      -1.770   1.341   9.722  1.00  0.00    -0.270 OA
ENDBRANCH   8   9
ENDBRANCH   7   8
ENDBRANCH   6   7
ENDBRANCH   3   6
TORSDOF 4
ENDMDL
MODEL 4
REMARK VINA RESULT: -6.865465045      2.876      4.068
REMARK  4 active torsions:
REMARK  status: ('A' for Active; 'I' for Inactive)
REMARK    1  A    between atoms: C3_3  and  C5_6 
REMARK    2  A    between atoms: C5_6  and  C6_7 
REMARK    3  A    between atoms: C6_7  and  C7_8 
REMARK    4  A    between atoms: C7_8  and  N1_9 
ROOT
HETATM    1  C1  UNL     1      -7.480   7.805  13.479  1.00  0.00     0.014 C 
HETATM    2  C2  UNL     1      -6.664   7.165  14.090  1.00  0.00    -0.091 C 
HETATM    3  C3  UNL     1      -5.657   6.389  14.810  1.00  0.00     0.096 C 
HETATM    4  C4  UNL     1      -6.378   5.365  15.652  1.00  0.00     0.046 C 
HETATM    5 CL1  UNL     1      -4.757   7.489  15.897  1.00  0.00    -0.105 Cl
ENDROOT
BRANCH   3   6
HETATM    6  C5  UNL     1      -4.722   5.738  13.819  1.00  0.00     0.043 C 
BRANCH   6   7
HETATM    7  C6  UNL     1      -3.294   6.160  14.109  1.00  0.00     0.048 C 
BRANCH   7   8
HETATM    8  C7  UNL     1      -2.718   6.638  12.775  1.00  0.00     0.068 C 
BRANCH   8   9
HETATM    9  N1  UNL     1      -2.199   5.534  12.091  1.00  0.00    -0.354 N 
HETATM   10  C8  UNL     1      -2.616   5.274  10.772  1.00  0.00     0.071 C 
HETATM   11  C9  UNL     1      -3.341   3.944  10.756  1.00  0.00     0.086 C 
HETATM   12  C10 UNL     1      -2.548   2.966  11.573  1.00  0.00     0.124 C 
HETATM   13  C11 UNL     1      -1.129   3.437  11.860  1.00  0.00     0.086 C 
HETATM   14  N2  UNL     1      -3.200   2.644  12.815  1.00  0.00    -0.324 N 
HETATM   15  C15 UNL     1      -2.528   1.685  10.827  1.00  0.00     0.256 C 
HETATM   16  C12 UNL     1      -1.250   4.698  12.694  1.00  0.00     0.071 C 
HETATM   17  C13 UNL     1      -3.830   1.388  12.666  1.00  0.00     0.325 C 
ATOM     18  H2  UNL     1      -3.207   3.221  13.655  1.00  0.00     0.165 HD
HETATM   19  O1  UNL     1      -4.643   0.862  13.498  1.00  0.00    -0.247 OA
HETATM   20  N3  UNL     1      -3.425   0.802  11.461  1.00  0.00    -0.272 N 
HETATM   21  C14 UNL     1      -3.805  -0.490  10.881  1.00  0.00     0.164 C 
HETATM   22  O2  UNL     1      -1.812   1.477   9.806  1.00  0.00    -0.270 OA
ENDBRANCH   8   9
ENDBRANCH   7   8
ENDBRANCH   6   7
ENDBRANCH   3   6
TORSDOF 4
ENDMDL
MODEL 5
REMARK VINA RESULT: -6.824461000      3.155      5.646
REMARK  4 active torsions:
REMARK  status: ('A' for Active; 'I' for Inactive)
REMARK    1  A    between atoms: C3_3  and  C5_6 
REMARK    2  A    between atoms: C5_6  and  C6_7 
REMARK    3  A    between atoms: C6_7  and  C7_8 
REMARK    4  A    between atoms: C7_8  and  N1_9 
ROOT
HETATM    1  C1  UNL     1      -4.774   7.627  15.967  1.00  0.00     0.014 C 
HETATM    2  C2  UNL     1      -5.317   7.833  14.912  1.00  0.00    -0.091 C 
HETATM    3  C3  UNL     1      -5.978   8.057  13.628  1.00  0.00     0.096 C 
HETATM    4  C4  UNL     1      -5.387   9.302  13.015  1.00  0.00     0.046 C 
HETATM    5 CL1  UNL     1      -7.721   8.338  13.923  1.00  0.00    -0.105 Cl
ENDROOT
BRANCH   3   6
HETATM    6  C5  UNL     1      -5.777   6.850  12.744  1.00  0.00     0.043 C 
BRANCH   6   7
HETATM    7  C6  UNL     1      -4.297   6.650  12.477  1.00  0.00     0.048 C 
BRANCH   7   8
HETATM    8  C7  UNL     1      -4.158   5.229  11.928  1.00  0.00     0.068 C 
BRANCH   8   9
HETATM    9  N1  UNL     1      -3.716   4.393  12.958  1.00  0.00    -0.354 N 
HETATM   10  C8  UNL     1      -3.838   2.998  12.822  1.00  0.00     0.071 C 
HETATM   11  C9  UNL     1      -4.787   2.497  13.891  1.00  0.00     0.086 C 
HETATM   12  C10 UNL     1      -4.430   3.166  15.187  1.00  0.00     0.124 C 
HETATM   13  C11 UNL     1      -3.061   3.832  15.160  1.00  0.00     0.086 C 
HETATM   14  N2  UNL     1      -5.419   4.131  15.587  1.00  0.00    -0.324 N 
HETATM   15  C15 UNL     1      -4.483   2.129  16.246  1.00  0.00     0.256 C 
HETATM   16  C12 UNL     1      -3.131   4.927  14.114  1.00  0.00     0.071 C 
HETATM   17  C13 UNL     1      -6.229   3.543  16.583  1.00  0.00     0.325 C 
ATOM     18  H2  UNL     1      -5.518   5.076  15.216  1.00  0.00     0.165 HD
HETATM   19  O1  UNL     1      -7.311   4.037  17.048  1.00  0.00    -0.247 OA
HETATM   20  N3  UNL     1      -5.665   2.327  16.986  1.00  0.00    -0.272 N 
HETATM   21  C14 UNL     1      -6.139   1.368  17.988  1.00  0.00     0.164 C 
HETATM   22  O2  UNL     1      -3.593   1.246  16.409  1.00  0.00    -0.270 OA
ENDBRANCH   8   9
ENDBRANCH   7   8
ENDBRANCH   6   7
ENDBRANCH   3   6
TORSDOF 4
ENDMDL
