MODEL 1
REMARK VINA RESULT: -6.359245711      0.000      0.000
REMARK  4 active torsions:
REMARK  status: ('A' for Active; 'I' for Inactive)
REMARK    1  A    between atoms: O1_2  and  C2_3 
REMARK    2  A    between atoms: C2_3  and  C3_5 
REMARK    3  A    between atoms: C3_5  and  N1_7 
REMARK    4  A    between atoms: N1_7  and  C5_9 
ROOT
HETATM    1  C5  UNL     1      -4.781   3.014  13.105  1.00  0.00     0.085 C 
HETATM    2  C6  UNL     1      -4.061   4.291  12.628  1.00  0.00     0.010 C 
HETATM    3  C7  UNL     1      -2.817   4.511  13.461  1.00  0.00     0.011 C 
HETATM    4  C8  UNL     1      -3.158   4.687  14.924  1.00  0.00    -0.012 C 
HETATM    5  C9  UNL     1      -3.857   3.428  15.370  1.00  0.00     0.011 C 
HETATM    6  C10 UNL     1      -5.103   3.245  14.560  1.00  0.00     0.010 C 
HETATM    7  C11 UNL     1      -5.984   4.449  14.736  1.00  0.00     0.027 C 
HETATM    8  C12 UNL     1      -5.289   5.694  14.271  1.00  0.00     0.019 C 
HETATM    9 BR1  UNL     1      -6.419   7.237  14.446  1.00  0.00    -0.086 Br
HETATM   10  C13 UNL     1      -4.041   5.905  15.081  1.00  0.00     0.025 C 
HETATM   11  C14 UNL     1      -4.931   5.505  12.812  1.00  0.00     0.027 C 
ENDROOT
BRANCH   1  12
HETATM   12  N1  UNL     1      -3.900   1.953  12.891  1.00  0.00    -0.404 N 
ATOM     13  H1  UNL     1      -3.401   1.569  13.694  1.00  0.00     0.154 HD
BRANCH  12  14
HETATM   14  C3  UNL     1      -3.667   1.396  11.647  1.00  0.00     0.173 C 
HETATM   15  C4  UNL     1      -2.161   1.163  11.376  1.00  0.00     0.042 C 
BRANCH  14  16
HETATM   16  C2  UNL     1      -4.370   0.099  11.299  1.00  0.00     0.280 C 
HETATM   17  O2  UNL     1      -5.152  -0.049  10.473  1.00  0.00    -0.263 OA
BRANCH  16  18
HETATM   18  O1  UNL     1      -4.023  -0.998  12.161  1.00  0.00    -0.325 OA
HETATM   19  C1  UNL     1      -3.344  -2.140  11.586  1.00  0.00     0.213 C 
ENDBRANCH  16  18
ENDBRANCH  14  16
ENDBRANCH  12  14
ENDBRANCH   1  12
TORSDOF 4
ENDMDL
MODEL 2
REMARK VINA RESULT: -6.343885182      1.067      1.689
REMARK  4 active torsions:
REMARK  status: ('A' for Active; 'I' for Inactive)
REMARK    1  A    between atoms: O1_2  and  C2_3 
REMARK    2  A    between atoms: C2_3  and  C3_5 
REMARK    3  A    between atoms: C3_5  and  N1_7 
REMARK    4  A    between atoms: N1_7  and  C5_9 
ROOT
HETATM    1  C5  UNL     1      -4.889   2.834  13.332  1.00  0.00     0.085 C 
HETATM    2  C6  UNL     1      -4.069   4.010  12.766  1.00  0.00     0.010 C 
HETATM    3  C7  UNL     1      -2.872   4.265  13.657  1.00  0.00     0.011 C 
HETATM    4  C8  UNL     1      -3.299   4.627  15.062  1.00  0.00    -0.012 C 
HETATM    5  C9  UNL     1      -4.095   3.462  15.596  1.00  0.00     0.011 C 
HETATM    6  C10 UNL     1      -5.293   3.247  14.725  1.00  0.00     0.010 C 
HETATM    7  C11 UNL     1      -6.115   4.505  14.700  1.00  0.00     0.027 C 
HETATM    8  C12 UNL     1      -5.323   5.652  14.149  1.00  0.00     0.019 C 
HETATM    9 BR1  UNL     1      -6.374   7.257  14.067  1.00  0.00    -0.086 Br
HETATM   10  C13 UNL     1      -4.121   5.895  15.018  1.00  0.00     0.025 C 
HETATM   11  C14 UNL     1      -4.880   5.278  12.749  1.00  0.00     0.027 C 
ENDROOT
BRANCH   1  12
HETATM   12  N1  UNL     1      -4.056   1.714  13.302  1.00  0.00    -0.404 N 
ATOM     13  H1  UNL     1      -3.325   1.637  14.009  1.00  0.00     0.154 HD
BRANCH  12  14
HETATM   14  C3  UNL     1      -4.172   0.704  12.364  1.00  0.00     0.173 C 
HETATM   15  C4  UNL     1      -5.158   1.064  11.227  1.00  0.00     0.042 C 
BRANCH  14  16
HETATM   16  C2  UNL     1      -2.910   0.200  11.694  1.00  0.00     0.280 C 
HETATM   17  O2  UNL     1      -2.757  -0.835  11.224  1.00  0.00    -0.263 OA
BRANCH  16  18
HETATM   18  O1  UNL     1      -1.819   1.136  11.733  1.00  0.00    -0.325 OA
HETATM   19  C1  UNL     1      -1.637   2.032  10.610  1.00  0.00     0.213 C 
ENDBRANCH  16  18
ENDBRANCH  14  16
ENDBRANCH  12  14
ENDBRANCH   1  12
TORSDOF 4
ENDMDL
MODEL 3
REMARK VINA RESULT: -6.268428600      2.343      3.160
REMARK  4 active torsions:
REMARK  status: ('A' for Active; 'I' for Inactive)
REMARK    1  A    between atoms: O1_2  and  C2_3 
REMARK    2  A    between atoms: C2_3  and  C3_5 
REMARK    3  A    between atoms: C3_5  and  N1_7 
REMARK    4  A    between atoms: N1_7  and  C5_9 
ROOT
HETATM    1  C5  UNL     1      -4.402   3.744  13.875  1.00  0.00     0.085 C 
HETATM    2  C6  UNL     1      -4.023   4.447  12.557  1.00  0.00     0.010 C 
HETATM    3  C7  UNL     1      -2.515   4.501  12.429  1.00  0.00     0.011 C 
HETATM    4  C8  UNL     1      -1.894   5.279  13.567  1.00  0.00    -0.012 C 
HETATM    5  C9  UNL     1      -2.274   4.573  14.845  1.00  0.00     0.011 C 
HETATM    6  C10 UNL     1      -3.765   4.560  14.972  1.00  0.00     0.010 C 
HETATM    7  C11 UNL     1      -4.272   5.975  14.959  1.00  0.00     0.027 C 
HETATM    8  C12 UNL     1      -3.907   6.663  13.678  1.00  0.00     0.019 C 
HETATM    9 BR1  UNL     1      -4.587   8.457  13.625  1.00  0.00    -0.086 Br
HETATM   10  C13 UNL     1      -2.411   6.699  13.536  1.00  0.00     0.025 C 
HETATM   11  C14 UNL     1      -4.515   5.870  12.539  1.00  0.00     0.027 C 
ENDROOT
BRANCH   1  12
HETATM   12  N1  UNL     1      -3.908   2.442  13.792  1.00  0.00    -0.404 N 
ATOM     13  H1  UNL     1      -2.989   2.299  13.373  1.00  0.00     0.154 HD
BRANCH  12  14
HETATM   14  C3  UNL     1      -4.600   1.334  14.247  1.00  0.00     0.173 C 
HETATM   15  C4  UNL     1      -4.308   0.068  13.406  1.00  0.00     0.042 C 
BRANCH  14  16
HETATM   16  C2  UNL     1      -4.435   0.932  15.698  1.00  0.00     0.280 C 
HETATM   17  O2  UNL     1      -3.560   1.212  16.385  1.00  0.00    -0.263 OA
BRANCH  16  18
HETATM   18  O1  UNL     1      -5.478   0.070  16.184  1.00  0.00    -0.325 OA
HETATM   19  C1  UNL     1      -6.214   0.474  17.365  1.00  0.00     0.213 C 
ENDBRANCH  16  18
ENDBRANCH  14  16
ENDBRANCH  12  14
ENDBRANCH   1  12
TORSDOF 4
ENDMDL
MODEL 4
REMARK VINA RESULT: -6.228380483      2.652      3.440
REMARK  4 active torsions:
REMARK  status: ('A' for Active; 'I' for Inactive)
REMARK    1  A    between atoms: O1_2  and  C2_3 
REMARK    2  A    between atoms: C2_3  and  C3_5 
REMARK    3  A    between atoms: C3_5  and  N1_7 
REMARK    4  A    between atoms: N1_7  and  C5_9 
ROOT
HETATM    1  C5  UNL     1      -5.405   4.228  14.148  1.00  0.00     0.085 C 
HETATM    2  C6  UNL     1      -4.240   4.932  13.427  1.00  0.00     0.010 C 
HETATM    3  C7  UNL     1      -3.357   5.621  14.447  1.00  0.00     0.011 C 
HETATM    4  C8  UNL     1      -4.126   6.668  15.222  1.00  0.00    -0.012 C 
HETATM    5  C9  UNL     1      -5.258   5.957  15.921  1.00  0.00     0.011 C 
HETATM    6  C10 UNL     1      -6.139   5.312  14.897  1.00  0.00     0.010 C 
HETATM    7  C11 UNL     1      -6.654   6.367  13.958  1.00  0.00     0.027 C 
HETATM    8  C12 UNL     1      -5.524   7.053  13.252  1.00  0.00     0.019 C 
HETATM    9 BR1  UNL     1      -6.166   8.372  12.013  1.00  0.00    -0.086 Br
HETATM   10  C13 UNL     1      -4.633   7.721  14.262  1.00  0.00     0.025 C 
HETATM   11  C14 UNL     1      -4.744   5.999  12.493  1.00  0.00     0.027 C 
ENDROOT
BRANCH   1  12
HETATM   12  N1  UNL     1      -4.837   3.263  14.981  1.00  0.00    -0.404 N 
ATOM     13  H1  UNL     1      -4.211   3.574  15.725  1.00  0.00     0.154 HD
BRANCH  12  14
HETATM   14  C3  UNL     1      -5.078   1.907  14.850  1.00  0.00     0.173 C 
HETATM   15  C4  UNL     1      -4.416   1.309  13.585  1.00  0.00     0.042 C 
BRANCH  14  16
HETATM   16  C2  UNL     1      -4.702   0.997  16.002  1.00  0.00     0.280 C 
HETATM   17  O2  UNL     1      -3.659   0.885  16.466  1.00  0.00    -0.263 OA
BRANCH  16  18
HETATM   18  O1  UNL     1      -5.787   0.181  16.475  1.00  0.00    -0.325 OA
HETATM   19  C1  UNL     1      -6.826   0.805  17.268  1.00  0.00     0.213 C 
ENDBRANCH  16  18
ENDBRANCH  14  16
ENDBRANCH  12  14
ENDBRANCH   1  12
TORSDOF 4
ENDMDL
MODEL 5
REMARK VINA RESULT: -6.224042928      1.489      1.846
REMARK  4 active torsions:
REMARK  status: ('A' for Active; 'I' for Inactive)
REMARK    1  A    between atoms: O1_2  and  C2_3 
REMARK    2  A    between atoms: C2_3  and  C3_5 
REMARK    3  A    between atoms: C3_5  and  N1_7 
REMARK    4  A    between atoms: N1_7  and  C5_9 
ROOT
HETATM    1  C5  UNL     1      -4.128   3.823  13.276  1.00  0.00     0.085 C 
HETATM    2  C6  UNL     1      -4.048   5.099  12.416  1.00  0.00     0.010 C 
HETATM    3  C7  UNL     1      -2.610   5.565  12.337  1.00  0.00     0.011 C 
HETATM    4  C8  UNL     1      -2.061   5.891  13.708  1.00  0.00    -0.012 C 
HETATM    5  C9  UNL     1      -2.146   4.630  14.530  1.00  0.00     0.011 C 
HETATM    6  C10 UNL     1      -3.577   4.203  14.627  1.00  0.00     0.010 C 
HETATM    7  C11 UNL     1      -4.379   5.313  15.247  1.00  0.00     0.027 C 
HETATM    8  C12 UNL     1      -4.306   6.557  14.413  1.00  0.00     0.019 C 
HETATM    9 BR1  UNL     1      -5.364   7.971  15.166  1.00  0.00    -0.086 Br
HETATM   10  C13 UNL     1      -2.877   7.011  14.314  1.00  0.00     0.025 C 
HETATM   11  C14 UNL     1      -4.838   6.221  13.035  1.00  0.00     0.027 C 
ENDROOT
BRANCH   1  12
HETATM   12  N1  UNL     1      -3.373   2.849  12.620  1.00  0.00    -0.404 N 
ATOM     13  H1  UNL     1      -2.402   3.064  12.391  1.00  0.00     0.154 HD
BRANCH  12  14
HETATM   14  C3  UNL     1      -3.872   1.609  12.265  1.00  0.00     0.173 C 
HETATM   15  C4  UNL     1      -4.392   0.811  13.485  1.00  0.00     0.042 C 
BRANCH  14  16
HETATM   16  C2  UNL     1      -4.964   1.549  11.216  1.00  0.00     0.280 C 
HETATM   17  O2  UNL     1      -6.037   1.938  11.330  1.00  0.00    -0.263 OA
BRANCH  16  18
HETATM   18  O1  UNL     1      -4.571   0.877  10.008  1.00  0.00    -0.325 OA
HETATM   19  C1  UNL     1      -3.657  -0.242  10.106  1.00  0.00     0.213 C 
ENDBRANCH  16  18
ENDBRANCH  14  16
ENDBRANCH  12  14
ENDBRANCH   1  12
TORSDOF 4
ENDMDL
