MODEL 1
REMARK VINA RESULT: -7.767906989      0.000      0.000
REMARK  4 active torsions:
REMARK  status: ('A' for Active; 'I' for Inactive)
REMARK    1  A    between atoms: C2_2  and  C4_4 
REMARK    2  A    between atoms: C4_4  and  C5_5 
REMARK    3  A    between atoms: C8_11  and  N2_12 
REMARK       I    between atoms: N2_12  and  C9_14 
REMARK    4  A    between atoms: C9_14  and  C10_16 
ROOT
HETATM    1  C5  UNL     1      -6.271   3.490  15.569  1.00  0.00     0.208 C 
HETATM    2  N1  UNL     1      -6.536   4.754  14.954  1.00  0.00    -0.069 N 
ATOM      3  H11 UNL     1      -7.453   5.123  15.207  1.00  0.00     0.277 HD
ATOM      4  H12 UNL     1      -6.686   4.672  13.948  1.00  0.00     0.277 HD
HETATM    5  C6  UNL     1      -5.478   5.666  15.272  1.00  0.00     0.235 C 
HETATM    6  C7  UNL     1      -4.255   4.787  15.240  1.00  0.00     0.055 C 
HETATM    7  C8  UNL     1      -4.749   3.412  15.568  1.00  0.00     0.116 C 
ENDROOT
BRANCH   7   8
HETATM    8  N2  UNL     1      -4.263   2.435  14.607  1.00  0.00    -0.354 N 
HETATM    9  C9  UNL     1      -4.679   2.374  13.273  1.00  0.00     0.223 C 
HETATM   10  O1  UNL     1      -5.526   3.185  12.814  1.00  0.00    -0.273 OA
ATOM     11  H2  UNL     1      -3.575   1.753  14.926  1.00  0.00     0.162 HD
BRANCH   9  12
HETATM   12  C10 UNL     1      -4.145   1.362  12.361  1.00  0.00     0.100 C 
HETATM   13  C11 UNL     1      -5.017   1.107  11.167  1.00  0.00     0.042 C 
HETATM   14  C12 UNL     1      -4.378  -0.011  10.354  1.00  0.00     0.168 C 
HETATM   15  O2  UNL     1      -3.066   0.269  10.028  1.00  0.00    -0.390 OA
HETATM   16  C13 UNL     1      -2.258   0.464  11.126  1.00  0.00     0.188 C 
HETATM   17  C14 UNL     1      -2.757   1.722  11.833  1.00  0.00     0.119 C 
HETATM   18 CL1  UNL     1      -2.982   2.972  10.578  1.00  0.00    -0.122 Cl
ENDBRANCH   9  12
ENDBRANCH   7   8
BRANCH   1  19
HETATM   19  C4  UNL     1      -6.728   3.446  16.983  1.00  0.00     0.039 C 
BRANCH  19  20
HETATM   20  C2  UNL     1      -6.351   2.236  17.751  1.00  0.00    -0.021 C 
HETATM   21  C1  UNL     1      -7.184   1.040  17.336  1.00  0.00     0.009 C 
HETATM   22  C3  UNL     1      -6.381   2.358  19.225  1.00  0.00     0.009 C 
ENDBRANCH  19  20
ENDBRANCH   1  19
TORSDOF 4
ENDMDL
MODEL 2
REMARK VINA RESULT: -7.123679594      1.130      1.556
REMARK  4 active torsions:
REMARK  status: ('A' for Active; 'I' for Inactive)
REMARK    1  A    between atoms: C2_2  and  C4_4 
REMARK    2  A    between atoms: C4_4  and  C5_5 
REMARK    3  A    between atoms: C8_11  and  N2_12 
REMARK       I    between atoms: N2_12  and  C9_14 
REMARK    4  A    between atoms: C9_14  and  C10_16 
ROOT
HETATM    1  C5  UNL     1      -6.217   3.848  15.296  1.00  0.00     0.208 C 
HETATM    2  N1  UNL     1      -6.432   5.194  14.861  1.00  0.00    -0.069 N 
ATOM      3  H11 UNL     1      -7.323   5.569  15.186  1.00  0.00     0.277 HD
ATOM      4  H12 UNL     1      -6.608   5.253  13.858  1.00  0.00     0.277 HD
HETATM    5  C6  UNL     1      -5.322   6.004  15.267  1.00  0.00     0.235 C 
HETATM    6  C7  UNL     1      -4.147   5.081  15.085  1.00  0.00     0.055 C 
HETATM    7  C8  UNL     1      -4.702   3.699  15.243  1.00  0.00     0.116 C 
ENDROOT
BRANCH   7   8
HETATM    8  N2  UNL     1      -4.286   2.837  14.148  1.00  0.00    -0.354 N 
HETATM    9  C9  UNL     1      -4.525   3.115  12.797  1.00  0.00     0.223 C 
HETATM   10  O1  UNL     1      -5.133   4.158  12.442  1.00  0.00    -0.273 OA
ATOM     11  H2  UNL     1      -3.790   1.977  14.379  1.00  0.00     0.162 HD
BRANCH   9  12
HETATM   12  C10 UNL     1      -4.077   2.200  11.748  1.00  0.00     0.100 C 
HETATM   13  C11 UNL     1      -2.627   1.828  11.852  1.00  0.00     0.042 C 
HETATM   14  C12 UNL     1      -2.287   0.939  10.663  1.00  0.00     0.168 C 
HETATM   15  O2  UNL     1      -3.131  -0.151  10.571  1.00  0.00    -0.390 OA
HETATM   16  C13 UNL     1      -4.458   0.193  10.436  1.00  0.00     0.188 C 
HETATM   17  C14 UNL     1      -4.873   0.896  11.726  1.00  0.00     0.119 C 
HETATM   18 CL1  UNL     1      -4.278  -0.104  13.080  1.00  0.00    -0.122 Cl
ENDBRANCH   9  12
ENDBRANCH   7   8
BRANCH   1  19
HETATM   19  C4  UNL     1      -6.646   3.638  16.704  1.00  0.00     0.039 C 
BRANCH  19  20
HETATM   20  C2  UNL     1      -6.409   2.285  17.261  1.00  0.00    -0.021 C 
HETATM   21  C1  UNL     1      -7.543   1.341  16.912  1.00  0.00     0.009 C 
HETATM   22  C3  UNL     1      -6.148   2.209  18.715  1.00  0.00     0.009 C 
ENDBRANCH  19  20
ENDBRANCH   1  19
TORSDOF 4
ENDMDL
MODEL 3
REMARK VINA RESULT: -6.836370773      2.929      6.769
REMARK  4 active torsions:
REMARK  status: ('A' for Active; 'I' for Inactive)
REMARK    1  A    between atoms: C2_2  and  C4_4 
REMARK    2  A    between atoms: C4_4  and  C5_5 
REMARK    3  A    between atoms: C8_11  and  N2_12 
REMARK       I    between atoms: N2_12  and  C9_14 
REMARK    4  A    between atoms: C9_14  and  C10_16 
ROOT
HETATM    1  C5  UNL     1      -3.478   1.656  11.835  1.00  0.00     0.208 C 
HETATM    2  N1  UNL     1      -4.389   1.058  10.907  1.00  0.00    -0.069 N 
ATOM      3  H11 UNL     1      -4.090   1.178   9.940  1.00  0.00     0.277 HD
ATOM      4  H12 UNL     1      -5.272   1.564  10.850  1.00  0.00     0.277 HD
HETATM    5  C6  UNL     1      -4.574  -0.321  11.250  1.00  0.00     0.235 C 
HETATM    6  C7  UNL     1      -4.569  -0.297  12.756  1.00  0.00     0.055 C 
HETATM    7  C8  UNL     1      -3.746   0.898  13.129  1.00  0.00     0.116 C 
ENDROOT
BRANCH   7   8
HETATM    8  N2  UNL     1      -4.436   1.727  14.103  1.00  0.00    -0.354 N 
HETATM    9  C9  UNL     1      -4.432   1.486  15.482  1.00  0.00     0.223 C 
HETATM   10  O1  UNL     1      -3.811   0.506  15.972  1.00  0.00    -0.273 OA
ATOM     11  H2  UNL     1      -4.957   2.534  13.761  1.00  0.00     0.162 HD
BRANCH   9  12
HETATM   12  C10 UNL     1      -5.150   2.364  16.405  1.00  0.00     0.100 C 
HETATM   13  C11 UNL     1      -6.246   3.155  15.753  1.00  0.00     0.042 C 
HETATM   14  C12 UNL     1      -6.850   4.071  16.809  1.00  0.00     0.168 C 
HETATM   15  O2  UNL     1      -7.265   3.372  17.926  1.00  0.00    -0.390 OA
HETATM   16  C13 UNL     1      -6.249   2.677  18.546  1.00  0.00     0.188 C 
HETATM   17  C14 UNL     1      -5.780   1.602  17.570  1.00  0.00     0.119 C 
HETATM   18 CL1  UNL     1      -7.243   0.796  16.938  1.00  0.00    -0.122 Cl
ENDBRANCH   9  12
ENDBRANCH   7   8
BRANCH   1  19
HETATM   19  C4  UNL     1      -2.059   1.425  11.458  1.00  0.00     0.039 C 
BRANCH  19  20
HETATM   20  C2  UNL     1      -1.235   2.640  11.252  1.00  0.00    -0.021 C 
HETATM   21  C1  UNL     1      -1.692   3.773  12.148  1.00  0.00     0.009 C 
HETATM   22  C3  UNL     1      -1.132   3.135   9.862  1.00  0.00     0.009 C 
ENDBRANCH  19  20
ENDBRANCH   1  19
TORSDOF 4
ENDMDL
MODEL 4
REMARK VINA RESULT: -6.780882693      1.977      2.455
REMARK  4 active torsions:
REMARK  status: ('A' for Active; 'I' for Inactive)
REMARK    1  A    between atoms: C2_2  and  C4_4 
REMARK    2  A    between atoms: C4_4  and  C5_5 
REMARK    3  A    between atoms: C8_11  and  N2_12 
REMARK       I    between atoms: N2_12  and  C9_14 
REMARK    4  A    between atoms: C9_14  and  C10_16 
ROOT
HETATM    1  C5  UNL     1      -5.369   2.872  15.331  1.00  0.00     0.208 C 
HETATM    2  N1  UNL     1      -6.499   3.713  15.078  1.00  0.00    -0.069 N 
ATOM      3  H11 UNL     1      -7.329   3.409  15.587  1.00  0.00     0.277 HD
ATOM      4  H12 UNL     1      -6.862   3.599  14.132  1.00  0.00     0.277 HD
HETATM    5  C6  UNL     1      -6.152   5.072  15.369  1.00  0.00     0.235 C 
HETATM    6  C7  UNL     1      -4.725   5.163  14.894  1.00  0.00     0.055 C 
HETATM    7  C8  UNL     1      -4.183   3.770  15.004  1.00  0.00     0.116 C 
ENDROOT
BRANCH   7   8
HETATM    8  N2  UNL     1      -3.526   3.364  13.772  1.00  0.00    -0.354 N 
HETATM    9  C9  UNL     1      -2.314   3.896  13.317  1.00  0.00     0.223 C 
HETATM   10  O1  UNL     1      -1.705   4.784  13.969  1.00  0.00    -0.273 OA
ATOM     11  H2  UNL     1      -3.978   2.648  13.204  1.00  0.00     0.162 HD
BRANCH   9  12
HETATM   12  C10 UNL     1      -1.711   3.438  12.066  1.00  0.00     0.100 C 
HETATM   13  C11 UNL     1      -2.280   2.145  11.561  1.00  0.00     0.042 C 
HETATM   14  C12 UNL     1      -1.513   1.758  10.304  1.00  0.00     0.168 C 
HETATM   15  O2  UNL     1      -1.517   2.767   9.361  1.00  0.00    -0.390 OA
HETATM   16  C13 UNL     1      -0.959   3.942   9.814  1.00  0.00     0.188 C 
HETATM   17  C14 UNL     1      -1.852   4.460  10.939  1.00  0.00     0.119 C 
HETATM   18 CL1  UNL     1      -3.537   4.365  10.353  1.00  0.00    -0.122 Cl
ENDBRANCH   9  12
ENDBRANCH   7   8
BRANCH   1  19
HETATM   19  C4  UNL     1      -5.266   2.485  16.763  1.00  0.00     0.039 C 
BRANCH  19  20
HETATM   20  C2  UNL     1      -6.549   2.265  17.470  1.00  0.00    -0.021 C 
HETATM   21  C1  UNL     1      -6.403   2.502  18.960  1.00  0.00     0.009 C 
HETATM   22  C3  UNL     1      -7.203   0.956  17.252  1.00  0.00     0.009 C 
ENDBRANCH  19  20
ENDBRANCH   1  19
TORSDOF 4
ENDMDL
MODEL 5
REMARK VINA RESULT: -6.636364865      2.691      3.678
REMARK  4 active torsions:
REMARK  status: ('A' for Active; 'I' for Inactive)
REMARK    1  A    between atoms: C2_2  and  C4_4 
REMARK    2  A    between atoms: C4_4  and  C5_5 
REMARK    3  A    between atoms: C8_11  and  N2_12 
REMARK       I    between atoms: N2_12  and  C9_14 
REMARK    4  A    between atoms: C9_14  and  C10_16 
ROOT
HETATM    1  C5  UNL     1      -4.482   2.399  15.835  1.00  0.00     0.208 C 
HETATM    2  N1  UNL     1      -4.016   1.072  16.103  1.00  0.00    -0.069 N 
ATOM      3  H11 UNL     1      -4.247   0.765  17.047  1.00  0.00     0.277 HD
ATOM      4  H12 UNL     1      -3.001   1.027  16.181  1.00  0.00     0.277 HD
HETATM    5  C6  UNL     1      -4.525   0.182  15.102  1.00  0.00     0.235 C 
HETATM    6  C7  UNL     1      -4.469   1.016  13.850  1.00  0.00     0.055 C 
HETATM    7  C8  UNL     1      -4.582   2.435  14.315  1.00  0.00     0.116 C 
ENDROOT
BRANCH   7   8
HETATM    8  N2  UNL     1      -3.541   3.264  13.729  1.00  0.00    -0.354 N 
HETATM    9  C9  UNL     1      -3.688   3.983  12.537  1.00  0.00     0.223 C 
HETATM   10  O1  UNL     1      -4.764   3.951  11.884  1.00  0.00    -0.273 OA
ATOM     11  H2  UNL     1      -2.647   3.325  14.217  1.00  0.00     0.162 HD
BRANCH   9  12
HETATM   12  C10 UNL     1      -2.596   4.798  12.006  1.00  0.00     0.100 C 
HETATM   13  C11 UNL     1      -1.339   4.725  12.823  1.00  0.00     0.042 C 
HETATM   14  C12 UNL     1      -0.323   5.672  12.198  1.00  0.00     0.168 C 
HETATM   15  O2  UNL     1      -0.124   5.409  10.856  1.00  0.00    -0.390 OA
HETATM   16  C13 UNL     1      -1.272   5.514  10.102  1.00  0.00     0.188 C 
HETATM   17  C14 UNL     1      -2.222   4.417  10.574  1.00  0.00     0.119 C 
HETATM   18 CL1  UNL     1      -1.273   2.907  10.664  1.00  0.00    -0.122 Cl
ENDBRANCH   9  12
ENDBRANCH   7   8
BRANCH   1  19
HETATM   19  C4  UNL     1      -5.841   2.639  16.386  1.00  0.00     0.039 C 
BRANCH  19  20
HETATM   20  C2  UNL     1      -6.215   1.830  17.569  1.00  0.00    -0.021 C 
HETATM   21  C1  UNL     1      -7.451   0.997  17.297  1.00  0.00     0.009 C 
HETATM   22  C3  UNL     1      -6.400   2.568  18.838  1.00  0.00     0.009 C 
ENDBRANCH  19  20
ENDBRANCH   1  19
TORSDOF 4
ENDMDL
