MODEL 1
REMARK VINA RESULT: -6.696195111      0.000      0.000
REMARK  4 active torsions:
REMARK  status: ('A' for Active; 'I' for Inactive)
REMARK    1  A    between atoms: N2_5  and  C4_6 
REMARK    2  A    between atoms: C4_6  and  C5_7 
REMARK    3  A    between atoms: C9_11  and  N3_12 
REMARK       I    between atoms: N3_12  and  C10_14 
REMARK       I    between atoms: C10_14  and  N4_16 
REMARK    4  A    between atoms: N4_16  and  C11_18 
ROOT
HETATM    1  N3  UNL     1      -4.717   5.811  13.396  1.00  0.00    -0.335 N 
ATOM      2  H3  UNL     1      -3.715   5.746  13.576  1.00  0.00     0.164 HD
HETATM    3  C10 UNL     1      -5.549   4.852  13.995  1.00  0.00     0.317 C 
HETATM    4  O1  UNL     1      -6.785   4.932  13.775  1.00  0.00    -0.247 OA
HETATM    5  N4  UNL     1      -5.094   3.809  14.826  1.00  0.00    -0.333 N 
ATOM      6  H4  UNL     1      -4.091   3.753  14.998  1.00  0.00     0.164 HD
ENDROOT
BRANCH   1   7
HETATM    7  C9  UNL     1      -5.176   6.879  12.546  1.00  0.00     0.132 C 
HETATM    8  C8  UNL     1      -4.946   6.383  11.106  1.00  0.00     0.154 C 
HETATM    9  N2  UNL     1      -5.487   7.376  10.234  1.00  0.00    -0.370 N 
HETATM   10  C3  UNL     1      -4.684   8.507   9.986  1.00  0.00     0.093 C 
HETATM   11  C2  UNL     1      -5.092   9.621  10.916  1.00  0.00     0.316 C 
HETATM   12  N1  UNL     1      -5.017   9.326  12.299  1.00  0.00     0.090 N 
HETATM   13  C1  UNL     1      -4.594  10.507  13.019  1.00  0.00     0.310 C 
HETATM   14  C16 UNL     1      -4.361   8.140  12.697  1.00  0.00     0.298 C 
BRANCH   9  15
HETATM   15  C4  UNL     1      -6.877   7.476  10.167  1.00  0.00     0.068 C 
BRANCH  15  16
HETATM   16  C5  UNL     1      -7.517   7.226   8.829  1.00  0.00     0.024 A 
HETATM   17  C6  UNL     1      -8.799   8.054   8.636  1.00  0.00     0.010 A 
HETATM   18  C7  UNL     1      -7.624   8.343   7.814  1.00  0.00     0.010 A 
ENDBRANCH  15  16
ENDBRANCH   9  15
ENDBRANCH   1   7
BRANCH   5  19
HETATM   19  C11 UNL     1      -5.918   2.826  15.447  1.00  0.00     0.158 C 
HETATM   20  C12 UNL     1      -6.545   3.305  16.740  1.00  0.00     0.031 C 
HETATM   21  C13 UNL     1      -7.030   1.995  17.354  1.00  0.00     0.008 C 
HETATM   22  C14 UNL     1      -6.171   0.916  16.779  1.00  0.00     0.081 C 
HETATM   23  C15 UNL     1      -5.131   1.633  15.950  1.00  0.00     0.263 C 
HETATM   24  F1  UNL     1      -4.666   0.856  14.913  1.00  0.00    -0.204 F 
HETATM   25  F2  UNL     1      -4.114   2.014  16.801  1.00  0.00    -0.204 F 
ENDBRANCH   5  19
TORSDOF 4
ENDMDL
MODEL 2
REMARK VINA RESULT: -6.642965608      3.078      8.036
REMARK  4 active torsions:
REMARK  status: ('A' for Active; 'I' for Inactive)
REMARK    1  A    between atoms: N2_5  and  C4_6 
REMARK    2  A    between atoms: C4_6  and  C5_7 
REMARK    3  A    between atoms: C9_11  and  N3_12 
REMARK       I    between atoms: N3_12  and  C10_14 
REMARK       I    between atoms: C10_14  and  N4_16 
REMARK    4  A    between atoms: N4_16  and  C11_18 
ROOT
HETATM    1  N3  UNL     1      -4.226   5.191  12.754  1.00  0.00    -0.335 N 
ATOM      2  H3  UNL     1      -3.240   5.255  12.504  1.00  0.00     0.164 HD
HETATM    3  C10 UNL     1      -5.057   6.267  12.404  1.00  0.00     0.317 C 
HETATM    4  O1  UNL     1      -6.275   6.189  12.710  1.00  0.00    -0.247 OA
HETATM    5  N4  UNL     1      -4.621   7.426  11.732  1.00  0.00    -0.333 N 
ATOM      6  H4  UNL     1      -3.632   7.479  11.488  1.00  0.00     0.164 HD
ENDROOT
BRANCH   1   7
HETATM    7  C9  UNL     1      -4.668   4.004  13.441  1.00  0.00     0.132 C 
HETATM    8  C8  UNL     1      -4.380   4.263  14.931  1.00  0.00     0.154 C 
HETATM    9  N2  UNL     1      -4.901   3.148  15.654  1.00  0.00    -0.370 N 
HETATM   10  C3  UNL     1      -4.103   1.987  15.689  1.00  0.00     0.093 C 
HETATM   11  C2  UNL     1      -4.557   1.038  14.610  1.00  0.00     0.316 C 
HETATM   12  N1  UNL     1      -4.529   1.548  13.290  1.00  0.00     0.090 N 
HETATM   13  C1  UNL     1      -4.146   0.494  12.376  1.00  0.00     0.310 C 
HETATM   14  C16 UNL     1      -3.873   2.778  13.060  1.00  0.00     0.298 C 
BRANCH   9  15
HETATM   15  C4  UNL     1      -6.289   3.046  15.757  1.00  0.00     0.068 C 
BRANCH  15  16
HETATM   16  C5  UNL     1      -6.858   2.817  17.129  1.00  0.00     0.024 A 
HETATM   17  C6  UNL     1      -7.424   1.396  17.292  1.00  0.00     0.010 A 
HETATM   18  C7  UNL     1      -6.237   1.791  18.051  1.00  0.00     0.010 A 
ENDBRANCH  15  16
ENDBRANCH   9  15
ENDBRANCH   1   7
BRANCH   5  19
HETATM   19  C11 UNL     1      -5.443   8.530  11.364  1.00  0.00     0.158 C 
HETATM   20  C12 UNL     1      -4.903   9.306  10.180  1.00  0.00     0.031 C 
HETATM   21  C13 UNL     1      -5.727  10.588  10.247  1.00  0.00     0.008 C 
HETATM   22  C14 UNL     1      -6.157  10.739  11.670  1.00  0.00     0.081 C 
HETATM   23  C15 UNL     1      -5.470   9.619  12.416  1.00  0.00     0.263 C 
HETATM   24  F1  UNL     1      -6.173   9.230  13.534  1.00  0.00    -0.204 F 
HETATM   25  F2  UNL     1      -4.200  10.053  12.735  1.00  0.00    -0.204 F 
ENDBRANCH   5  19
TORSDOF 4
ENDMDL
MODEL 3
REMARK VINA RESULT: -6.613159821      3.572      5.488
REMARK  4 active torsions:
REMARK  status: ('A' for Active; 'I' for Inactive)
REMARK    1  A    between atoms: N2_5  and  C4_6 
REMARK    2  A    between atoms: C4_6  and  C5_7 
REMARK    3  A    between atoms: C9_11  and  N3_12 
REMARK       I    between atoms: N3_12  and  C10_14 
REMARK       I    between atoms: C10_14  and  N4_16 
REMARK    4  A    between atoms: N4_16  and  C11_18 
ROOT
HETATM    1  N3  UNL     1      -4.101   4.408  14.021  1.00  0.00    -0.335 N 
ATOM      2  H3  UNL     1      -3.718   4.068  14.903  1.00  0.00     0.164 HD
HETATM    3  C10 UNL     1      -4.287   3.476  12.989  1.00  0.00     0.317 C 
HETATM    4  O1  UNL     1      -4.761   3.894  11.901  1.00  0.00    -0.247 OA
HETATM    5  N4  UNL     1      -3.980   2.105  13.088  1.00  0.00    -0.333 N 
ATOM      6  H4  UNL     1      -3.595   1.775  13.973  1.00  0.00     0.164 HD
ENDROOT
BRANCH   1   7
HETATM    7  C9  UNL     1      -4.413   5.811  13.925  1.00  0.00     0.132 C 
HETATM    8  C8  UNL     1      -3.825   6.449  15.196  1.00  0.00     0.154 C 
HETATM    9  N2  UNL     1      -4.026   7.858  15.085  1.00  0.00    -0.370 N 
HETATM   10  C3  UNL     1      -5.306   8.345  15.418  1.00  0.00     0.093 C 
HETATM   11  C2  UNL     1      -6.124   8.494  14.161  1.00  0.00     0.316 C 
HETATM   12  N1  UNL     1      -6.290   7.317  13.391  1.00  0.00     0.090 N 
HETATM   13  C1  UNL     1      -7.615   7.307  12.810  1.00  0.00     0.310 C 
HETATM   14  C16 UNL     1      -5.898   6.084  13.958  1.00  0.00     0.298 C 
BRANCH   9  15
HETATM   15  C4  UNL     1      -3.236   8.544  14.162  1.00  0.00     0.068 C 
BRANCH  15  16
HETATM   16  C5  UNL     1      -1.777   8.700  14.491  1.00  0.00     0.024 A 
HETATM   17  C6  UNL     1      -1.411  10.156  14.823  1.00  0.00     0.010 A 
HETATM   18  C7  UNL     1      -1.351   9.141  15.875  1.00  0.00     0.010 A 
ENDBRANCH  15  16
ENDBRANCH   9  15
ENDBRANCH   1   7
BRANCH   5  19
HETATM   19  C11 UNL     1      -4.160   1.138  12.056  1.00  0.00     0.158 C 
HETATM   20  C12 UNL     1      -4.224  -0.284  12.578  1.00  0.00     0.031 C 
HETATM   21  C13 UNL     1      -4.038  -1.092  11.297  1.00  0.00     0.008 C 
HETATM   22  C14 UNL     1      -3.302  -0.209  10.343  1.00  0.00     0.081 C 
HETATM   23  C15 UNL     1      -2.965   1.036  11.130  1.00  0.00     0.263 C 
HETATM   24  F1  UNL     1      -2.851   2.147  10.325  1.00  0.00    -0.204 F 
HETATM   25  F2  UNL     1      -1.801   0.784  11.825  1.00  0.00    -0.204 F 
ENDBRANCH   5  19
TORSDOF 4
ENDMDL
MODEL 4
REMARK VINA RESULT: -6.608670763      2.421      3.934
REMARK  4 active torsions:
REMARK  status: ('A' for Active; 'I' for Inactive)
REMARK    1  A    between atoms: N2_5  and  C4_6 
REMARK    2  A    between atoms: C4_6  and  C5_7 
REMARK    3  A    between atoms: C9_11  and  N3_12 
REMARK       I    between atoms: N3_12  and  C10_14 
REMARK       I    between atoms: C10_14  and  N4_16 
REMARK    4  A    between atoms: N4_16  and  C11_18 
ROOT
HETATM    1  N3  UNL     1      -4.656   5.098  13.288  1.00  0.00    -0.335 N 
ATOM      2  H3  UNL     1      -4.490   5.881  13.920  1.00  0.00     0.164 HD
HETATM    3  C10 UNL     1      -5.239   3.940  13.824  1.00  0.00     0.317 C 
HETATM    4  O1  UNL     1      -5.446   2.974  13.044  1.00  0.00    -0.247 OA
HETATM    5  N4  UNL     1      -5.611   3.786  15.174  1.00  0.00    -0.333 N 
ATOM      6  H4  UNL     1      -5.440   4.575  15.798  1.00  0.00     0.164 HD
ENDROOT
BRANCH   1   7
HETATM    7  C9  UNL     1      -4.274   5.260  11.908  1.00  0.00     0.132 C 
HETATM    8  C8  UNL     1      -2.806   5.725  11.942  1.00  0.00     0.154 C 
HETATM    9  N2  UNL     1      -2.362   5.797  10.587  1.00  0.00    -0.370 N 
HETATM   10  C3  UNL     1      -2.723   6.949   9.862  1.00  0.00     0.093 C 
HETATM   11  C2  UNL     1      -3.966   6.663   9.059  1.00  0.00     0.316 C 
HETATM   12  N1  UNL     1      -5.095   6.242   9.802  1.00  0.00     0.090 N 
HETATM   13  C1  UNL     1      -6.294   6.789   9.204  1.00  0.00     0.310 C 
HETATM   14  C16 UNL     1      -5.050   6.350  11.209  1.00  0.00     0.298 C 
BRANCH   9  15
HETATM   15  C4  UNL     1      -2.149   4.589   9.922  1.00  0.00     0.068 C 
BRANCH  15  16
HETATM   16  C5  UNL     1      -1.355   3.538  10.647  1.00  0.00     0.024 A 
HETATM   17  C6  UNL     1      -2.222   2.333  11.051  1.00  0.00     0.010 A 
HETATM   18  C7  UNL     1      -1.177   2.163  10.041  1.00  0.00     0.010 A 
ENDBRANCH  15  16
ENDBRANCH   9  15
ENDBRANCH   1   7
BRANCH   5  19
HETATM   19  C11 UNL     1      -6.207   2.623  15.743  1.00  0.00     0.158 C 
HETATM   20  C12 UNL     1      -6.846   2.881  17.092  1.00  0.00     0.031 C 
HETATM   21  C13 UNL     1      -7.049   1.462  17.615  1.00  0.00     0.008 C 
HETATM   22  C14 UNL     1      -6.036   0.609  16.925  1.00  0.00     0.081 C 
HETATM   23  C15 UNL     1      -5.189   1.566  16.119  1.00  0.00     0.263 C 
HETATM   24  F1  UNL     1      -4.641   0.968  15.007  1.00  0.00    -0.204 F 
HETATM   25  F2  UNL     1      -4.219   2.069  16.961  1.00  0.00    -0.204 F 
ENDBRANCH   5  19
TORSDOF 4
ENDMDL
MODEL 5
REMARK VINA RESULT: -6.580794003      3.563      4.999
REMARK  4 active torsions:
REMARK  status: ('A' for Active; 'I' for Inactive)
REMARK    1  A    between atoms: N2_5  and  C4_6 
REMARK    2  A    between atoms: C4_6  and  C5_7 
REMARK    3  A    between atoms: C9_11  and  N3_12 
REMARK       I    between atoms: N3_12  and  C10_14 
REMARK       I    between atoms: C10_14  and  N4_16 
REMARK    4  A    between atoms: N4_16  and  C11_18 
ROOT
HETATM    1  N3  UNL     1      -3.645   4.094  13.214  1.00  0.00    -0.335 N 
ATOM      2  H3  UNL     1      -3.353   4.916  13.741  1.00  0.00     0.164 HD
HETATM    3  C10 UNL     1      -4.593   3.244  13.806  1.00  0.00     0.317 C 
HETATM    4  O1  UNL     1      -4.955   2.229  13.156  1.00  0.00    -0.247 OA
HETATM    5  N4  UNL     1      -5.166   3.450  15.076  1.00  0.00    -0.333 N 
ATOM      6  H4  UNL     1      -4.866   4.276  15.595  1.00  0.00     0.164 HD
ENDROOT
BRANCH   1   7
HETATM    7  C9  UNL     1      -3.056   3.887  11.916  1.00  0.00     0.132 C 
HETATM    8  C8  UNL     1      -1.701   3.208  12.185  1.00  0.00     0.154 C 
HETATM    9  N2  UNL     1      -1.134   2.895  10.913  1.00  0.00    -0.370 N 
HETATM   10  C3  UNL     1      -0.487   3.944  10.231  1.00  0.00     0.093 C 
HETATM   11  C2  UNL     1      -1.445   4.562   9.246  1.00  0.00     0.316 C 
HETATM   12  N1  UNL     1      -2.647   5.072   9.794  1.00  0.00     0.090 N 
HETATM   13  C1  UNL     1      -3.030   6.270   9.079  1.00  0.00     0.310 C 
HETATM   14  C16 UNL     1      -2.751   5.179  11.198  1.00  0.00     0.298 C 
BRANCH   9  15
HETATM   15  C4  UNL     1      -1.716   1.848  10.197  1.00  0.00     0.068 C 
BRANCH  15  16
HETATM   16  C5  UNL     1      -2.500   0.833  10.982  1.00  0.00     0.024 A 
HETATM   17  C6  UNL     1      -3.895   0.589  10.382  1.00  0.00     0.010 A 
HETATM   18  C7  UNL     1      -2.898  -0.481  10.346  1.00  0.00     0.010 A 
ENDBRANCH  15  16
ENDBRANCH   9  15
ENDBRANCH   1   7
BRANCH   5  19
HETATM   19  C11 UNL     1      -6.130   2.605  15.698  1.00  0.00     0.158 C 
HETATM   20  C12 UNL     1      -6.860   3.277  16.843  1.00  0.00     0.031 C 
HETATM   21  C13 UNL     1      -7.514   2.085  17.536  1.00  0.00     0.008 C 
HETATM   22  C14 UNL     1      -6.684   0.891  17.195  1.00  0.00     0.081 C 
HETATM   23  C15 UNL     1      -5.502   1.433  16.424  1.00  0.00     0.263 C 
HETATM   24  F1  UNL     1      -4.985   0.508  15.545  1.00  0.00    -0.204 F 
HETATM   25  F2  UNL     1      -4.562   1.846  17.345  1.00  0.00    -0.204 F 
ENDBRANCH   5  19
TORSDOF 4
ENDMDL
