MODEL 1
REMARK VINA RESULT: -6.018964797      0.000      0.000
REMARK  5 active torsions:
REMARK  status: ('A' for Active; 'I' for Inactive)
REMARK    1  A    between atoms: C3_9  and  N3_10 
REMARK    2  A    between atoms: N3_10  and  C4_12 
REMARK    3  A    between atoms: C4_12  and  C5_13 
REMARK    4  A    between atoms: C5_13  and  C6_14 
REMARK    5  A    between atoms: C6_14  and  N4_15 
ROOT
HETATM    1  N3  UNL     1      -4.739   4.630  13.316  1.00  0.00    -0.374 N 
ATOM      2  H3  UNL     1      -4.108   5.414  13.149  1.00  0.00     0.161 HD
ENDROOT
BRANCH   1   3
HETATM    3  C3  UNL     1      -4.513   3.452  12.836  1.00  0.00     0.140 A 
HETATM    4  C1  UNL     1      -3.300   3.033  12.349  1.00  0.00     0.114 A 
HETATM    5 CL1  UNL     1      -1.800   3.960  12.254  1.00  0.00    -0.077 Cl
HETATM    6  C2  UNL     1      -3.489   1.710  11.935  1.00  0.00     0.120 A 
HETATM    7 BR1  UNL     1      -2.125   0.612  11.168  1.00  0.00    -0.028 Br
HETATM    8  N1  UNL     1      -4.770   1.369  12.172  1.00  0.00    -0.290 N 
HETATM    9  N2  UNL     1      -5.358   2.416  12.707  1.00  0.00    -0.283 N 
ATOM     10  H1  UNL     1      -5.203   0.467  11.975  1.00  0.00     0.187 HD
ATOM     11  H2  UNL     1      -6.338   2.439  12.989  1.00  0.00     0.188 HD
ENDBRANCH   1   3
BRANCH   1  12
HETATM   12  C4  UNL     1      -5.952   4.770  14.111  1.00  0.00     0.123 C 
BRANCH  12  13
HETATM   13  C5  UNL     1      -5.604   4.615  15.566  1.00  0.00     0.050 C 
BRANCH  13  14
HETATM   14  C6  UNL     1      -6.591   3.692  16.215  1.00  0.00     0.274 C 
BRANCH  14  15
HETATM   15  N4  UNL     1      -6.212   2.301  16.172  1.00  0.00     0.092 N 
HETATM   16  C7  UNL     1      -6.891   1.525  17.193  1.00  0.00     0.298 C 
HETATM   17  C8  UNL     1      -6.135   0.235  17.411  1.00  0.00     0.198 C 
HETATM   18  O1  UNL     1      -5.560  -0.123  16.192  1.00  0.00    -0.388 OA
HETATM   19  C9  UNL     1      -4.425   0.665  16.043  1.00  0.00     0.198 C 
HETATM   20  C10 UNL     1      -4.775   2.118  16.222  1.00  0.00     0.298 C 
ENDBRANCH  14  15
ENDBRANCH  13  14
ENDBRANCH  12  13
ENDBRANCH   1  12
TORSDOF 5
ENDMDL
MODEL 2
REMARK VINA RESULT: -6.008802116      3.178      4.930
REMARK  5 active torsions:
REMARK  status: ('A' for Active; 'I' for Inactive)
REMARK    1  A    between atoms: C3_9  and  N3_10 
REMARK    2  A    between atoms: N3_10  and  C4_12 
REMARK    3  A    between atoms: C4_12  and  C5_13 
REMARK    4  A    between atoms: C5_13  and  C6_14 
REMARK    5  A    between atoms: C6_14  and  N4_15 
ROOT
HETATM    1  N3  UNL     1      -3.427   3.773  15.218  1.00  0.00    -0.374 N 
ATOM      2  H3  UNL     1      -2.619   4.160  15.704  1.00  0.00     0.161 HD
ENDROOT
BRANCH   1   3
HETATM    3  C3  UNL     1      -4.106   2.781  15.695  1.00  0.00     0.140 A 
HETATM    4  C1  UNL     1      -5.414   2.864  16.104  1.00  0.00     0.114 A 
HETATM    5 CL1  UNL     1      -6.459   4.287  16.090  1.00  0.00    -0.077 Cl
HETATM    6  C2  UNL     1      -5.759   1.581  16.545  1.00  0.00     0.120 A 
HETATM    7 BR1  UNL     1      -7.476   1.100  17.232  1.00  0.00    -0.028 Br
HETATM    8  N1  UNL     1      -4.688   0.778  16.396  1.00  0.00    -0.290 N 
HETATM    9  N2  UNL     1      -3.720   1.509  15.891  1.00  0.00    -0.283 N 
ATOM     10  H1  UNL     1      -4.637  -0.213  16.632  1.00  0.00     0.187 HD
ATOM     11  H2  UNL     1      -2.789   1.155  15.674  1.00  0.00     0.188 HD
ENDBRANCH   1   3
BRANCH   1  12
HETATM   12  C4  UNL     1      -3.889   4.303  13.941  1.00  0.00     0.123 C 
BRANCH  12  13
HETATM   13  C5  UNL     1      -3.031   3.744  12.839  1.00  0.00     0.050 C 
BRANCH  13  14
HETATM   14  C6  UNL     1      -3.909   3.264  11.724  1.00  0.00     0.274 C 
BRANCH  14  15
HETATM   15  N4  UNL     1      -3.823   1.846  11.477  1.00  0.00     0.092 N 
HETATM   16  C7  UNL     1      -4.663   1.088  12.386  1.00  0.00     0.298 C 
HETATM   17  C8  UNL     1      -4.192  -0.348  12.405  1.00  0.00     0.198 C 
HETATM   18  O1  UNL     1      -3.684  -0.638  11.138  1.00  0.00    -0.388 OA
HETATM   19  C9  UNL     1      -2.408  -0.087  11.087  1.00  0.00     0.198 C 
HETATM   20  C10 UNL     1      -2.456   1.366  11.478  1.00  0.00     0.298 C 
ENDBRANCH  14  15
ENDBRANCH  13  14
ENDBRANCH  12  13
ENDBRANCH   1  12
TORSDOF 5
ENDMDL
MODEL 3
REMARK VINA RESULT: -5.995011881      1.894      2.081
REMARK  5 active torsions:
REMARK  status: ('A' for Active; 'I' for Inactive)
REMARK    1  A    between atoms: C3_9  and  N3_10 
REMARK    2  A    between atoms: N3_10  and  C4_12 
REMARK    3  A    between atoms: C4_12  and  C5_13 
REMARK    4  A    between atoms: C5_13  and  C6_14 
REMARK    5  A    between atoms: C6_14  and  N4_15 
ROOT
HETATM    1  N3  UNL     1      -3.688   4.318  12.740  1.00  0.00    -0.374 N 
ATOM      2  H3  UNL     1      -4.450   4.732  12.203  1.00  0.00     0.161 HD
ENDROOT
BRANCH   1   3
HETATM    3  C3  UNL     1      -3.059   3.262  12.339  1.00  0.00     0.140 A 
HETATM    4  C1  UNL     1      -3.669   2.086  11.981  1.00  0.00     0.114 A 
HETATM    5 CL1  UNL     1      -5.398   1.727  11.979  1.00  0.00    -0.077 Cl
HETATM    6  C2  UNL     1      -2.637   1.215  11.614  1.00  0.00     0.120 A 
HETATM    7 BR1  UNL     1      -2.900  -0.582  11.019  1.00  0.00    -0.028 Br
HETATM    8  N1  UNL     1      -1.465   1.862  11.755  1.00  0.00    -0.290 N 
HETATM    9  N2  UNL     1      -1.738   3.073  12.185  1.00  0.00    -0.283 N 
ATOM     10  H1  UNL     1      -0.537   1.484  11.563  1.00  0.00     0.187 HD
ATOM     11  H2  UNL     1      -1.033   3.785  12.379  1.00  0.00     0.188 HD
ENDBRANCH   1   3
BRANCH   1  12
HETATM   12  C4  UNL     1      -3.241   4.880  14.008  1.00  0.00     0.123 C 
BRANCH  12  13
HETATM   13  C5  UNL     1      -3.657   3.962  15.125  1.00  0.00     0.050 C 
BRANCH  13  14
HETATM   14  C6  UNL     1      -5.152   3.883  15.170  1.00  0.00     0.274 C 
BRANCH  14  15
HETATM   15  N4  UNL     1      -5.660   2.622  15.653  1.00  0.00     0.092 N 
HETATM   16  C7  UNL     1      -6.686   2.805  16.663  1.00  0.00     0.298 C 
HETATM   17  C8  UNL     1      -6.834   1.522  17.447  1.00  0.00     0.198 C 
HETATM   18  O1  UNL     1      -6.554   0.467  16.579  1.00  0.00    -0.388 OA
HETATM   19  C9  UNL     1      -5.169   0.394  16.478  1.00  0.00     0.198 C 
HETATM   20  C10 UNL     1      -4.605   1.740  16.109  1.00  0.00     0.298 C 
ENDBRANCH  14  15
ENDBRANCH  13  14
ENDBRANCH  12  13
ENDBRANCH   1  12
TORSDOF 5
ENDMDL
MODEL 4
REMARK VINA RESULT: -5.921938295      3.074      5.035
REMARK  5 active torsions:
REMARK  status: ('A' for Active; 'I' for Inactive)
REMARK    1  A    between atoms: C3_9  and  N3_10 
REMARK    2  A    between atoms: N3_10  and  C4_12 
REMARK    3  A    between atoms: C4_12  and  C5_13 
REMARK    4  A    between atoms: C5_13  and  C6_14 
REMARK    5  A    between atoms: C6_14  and  N4_15 
ROOT
HETATM    1  N3  UNL     1      -4.527   4.236  13.965  1.00  0.00    -0.374 N 
ATOM      2  H3  UNL     1      -5.283   4.921  13.971  1.00  0.00     0.161 HD
ENDROOT
BRANCH   1   3
HETATM    3  C3  UNL     1      -4.614   3.110  14.593  1.00  0.00     0.140 A 
HETATM    4  C1  UNL     1      -5.473   2.870  15.637  1.00  0.00     0.114 A 
HETATM    5 CL1  UNL     1      -6.627   3.993  16.361  1.00  0.00    -0.077 Cl
HETATM    6  C2  UNL     1      -5.248   1.543  16.021  1.00  0.00     0.120 A 
HETATM    7 BR1  UNL     1      -6.172   0.658  17.440  1.00  0.00    -0.028 Br
HETATM    8  N1  UNL     1      -4.290   1.028  15.227  1.00  0.00    -0.290 N 
HETATM    9  N2  UNL     1      -3.929   1.973  14.388  1.00  0.00    -0.283 N 
ATOM     10  H1  UNL     1      -3.914   0.081  15.269  1.00  0.00     0.187 HD
ATOM     11  H2  UNL     1      -3.215   1.858  13.669  1.00  0.00     0.188 HD
ENDBRANCH   1   3
BRANCH   1  12
HETATM   12  C4  UNL     1      -3.280   4.467  13.246  1.00  0.00     0.123 C 
BRANCH  12  13
HETATM   13  C5  UNL     1      -3.596   4.804  11.814  1.00  0.00     0.050 C 
BRANCH  13  14
HETATM   14  C6  UNL     1      -3.026   3.745  10.920  1.00  0.00     0.274 C 
BRANCH  14  15
HETATM   15  N4  UNL     1      -3.277   2.397  11.369  1.00  0.00     0.092 N 
HETATM   16  C7  UNL     1      -2.100   1.558  11.239  1.00  0.00     0.298 C 
HETATM   17  C8  UNL     1      -2.528   0.109  11.266  1.00  0.00     0.198 C 
HETATM   18  O1  UNL     1      -3.655   0.021  12.084  1.00  0.00    -0.388 OA
HETATM   19  C9  UNL     1      -4.733   0.457  11.322  1.00  0.00     0.198 C 
HETATM   20  C10 UNL     1      -4.434   1.808  10.728  1.00  0.00     0.298 C 
ENDBRANCH  14  15
ENDBRANCH  13  14
ENDBRANCH  12  13
ENDBRANCH   1  12
TORSDOF 5
ENDMDL
MODEL 5
REMARK VINA RESULT: -5.879574575      3.721      6.174
REMARK  5 active torsions:
REMARK  status: ('A' for Active; 'I' for Inactive)
REMARK    1  A    between atoms: C3_9  and  N3_10 
REMARK    2  A    between atoms: N3_10  and  C4_12 
REMARK    3  A    between atoms: C4_12  and  C5_13 
REMARK    4  A    between atoms: C5_13  and  C6_14 
REMARK    5  A    between atoms: C6_14  and  N4_15 
ROOT
HETATM    1  N3  UNL     1      -4.175   1.105  13.844  1.00  0.00    -0.374 N 
ATOM      2  H3  UNL     1      -3.758   1.979  13.523  1.00  0.00     0.161 HD
ENDROOT
BRANCH   1   3
HETATM    3  C3  UNL     1      -4.650   0.970  15.039  1.00  0.00     0.140 A 
HETATM    4  C1  UNL     1      -5.262   1.973  15.748  1.00  0.00     0.114 A 
HETATM    5 CL1  UNL     1      -5.543   3.638  15.233  1.00  0.00    -0.077 Cl
HETATM    6  C2  UNL     1      -5.622   1.410  16.978  1.00  0.00     0.120 A 
HETATM    7 BR1  UNL     1      -6.516   2.353  18.378  1.00  0.00    -0.028 Br
HETATM    8  N1  UNL     1      -5.231   0.121  16.984  1.00  0.00    -0.290 N 
HETATM    9  N2  UNL     1      -4.658  -0.119  15.827  1.00  0.00    -0.283 N 
ATOM     10  H1  UNL     1      -5.357  -0.546  17.746  1.00  0.00     0.187 HD
ATOM     11  H2  UNL     1      -4.267  -1.022  15.558  1.00  0.00     0.188 HD
ENDBRANCH   1   3
BRANCH   1  12
HETATM   12  C4  UNL     1      -4.274  -0.068  12.985  1.00  0.00     0.123 C 
BRANCH  12  13
HETATM   13  C5  UNL     1      -4.296   0.378  11.549  1.00  0.00     0.050 C 
BRANCH  13  14
HETATM   14  C6  UNL     1      -4.482   1.863  11.494  1.00  0.00     0.274 C 
BRANCH  14  15
HETATM   15  N4  UNL     1      -3.482   2.553  10.715  1.00  0.00     0.092 N 
HETATM   16  C7  UNL     1      -2.266   1.772  10.584  1.00  0.00     0.298 C 
HETATM   17  C8  UNL     1      -1.134   2.693  10.192  1.00  0.00     0.198 C 
HETATM   18  O1  UNL     1      -1.677   3.715   9.414  1.00  0.00    -0.388 OA
HETATM   19  C9  UNL     1      -2.269   4.612  10.297  1.00  0.00     0.198 C 
HETATM   20  C10 UNL     1      -3.216   3.887  11.215  1.00  0.00     0.298 C 
ENDBRANCH  14  15
ENDBRANCH  13  14
ENDBRANCH  12  13
ENDBRANCH   1  12
TORSDOF 5
ENDMDL
