MODEL 1
REMARK VINA RESULT: -7.177262923      0.000      0.000
REMARK  5 active torsions:
REMARK  status: ('A' for Active; 'I' for Inactive)
REMARK    1  A    between atoms: C1_2  and  C2_3 
REMARK       I    between atoms: C1_2  and  N2_18 
REMARK    2  A    between atoms: C2_3  and  N1_4 
REMARK    3  A    between atoms: C5_7  and  O2_8 
REMARK    4  A    between atoms: C5_7  and  C6_10 
REMARK    5  A    between atoms: N2_18  and  C12_20 
ROOT
HETATM    1  N1  UNL     1      -4.730   1.288  12.898  1.00  0.00     0.100 N 
HETATM    2  C3  UNL     1      -4.736   0.409  11.742  1.00  0.00     0.276 C 
HETATM    3  C4  UNL     1      -3.513   0.941  10.965  1.00  0.00     0.070 C 
HETATM    4  C5  UNL     1      -3.841   2.424  11.046  1.00  0.00     0.090 C 
HETATM    5  C11 UNL     1      -4.244   2.562  12.487  1.00  0.00     0.311 C 
ENDROOT
BRANCH   4   6
HETATM    6  O2  UNL     1      -4.951   2.645  10.251  1.00  0.00    -0.388 OA
ATOM      7  H2  UNL     1      -4.709   3.292   9.599  1.00  0.00     0.210 HD
ENDBRANCH   4   6
BRANCH   4   8
HETATM    8  C6  UNL     1      -2.718   3.299  10.635  1.00  0.00     0.030 C 
HETATM    9  C7  UNL     1      -1.409   2.540  10.654  1.00  0.00     0.016 C 
HETATM   10  C8  UNL     1      -0.957   3.445  11.781  1.00  0.00     0.033 A 
HETATM   11  C9  UNL     1      -2.202   4.314  11.597  1.00  0.00     0.039 A 
HETATM   12  C10 UNL     1      -0.810   4.864  11.434  1.00  0.00     0.122 A 
HETATM   13 CL1  UNL     1      -0.253   5.193   9.766  1.00  0.00    -0.101 Cl
HETATM   14 CL2  UNL     1      -0.215   5.949  12.675  1.00  0.00    -0.101 Cl
ENDBRANCH   4   8
BRANCH   1  15
HETATM   15  C2  UNL     1      -3.976   0.707  13.974  1.00  0.00     0.374 C 
BRANCH  15  16
HETATM   16  C1  UNL     1      -4.727   0.746  15.230  1.00  0.00     0.246 C 
HETATM   17  O1  UNL     1      -5.025  -0.394  15.758  1.00  0.00    -0.272 OA
HETATM   18  N2  UNL     1      -5.107   1.947  15.845  1.00  0.00    -0.355 N 
ATOM     19  H2  UNL     1      -4.866   2.847  15.430  1.00  0.00     0.162 HD
BRANCH  18  20
HETATM   20  C12 UNL     1      -5.859   1.877  17.099  1.00  0.00     0.084 A 
HETATM   21  C13 UNL     1      -6.910   3.007  17.161  1.00  0.00     0.027 A 
HETATM   22  C14 UNL     1      -7.300   1.560  17.067  1.00  0.00     0.027 A 
ENDBRANCH  18  20
ENDBRANCH  15  16
ENDBRANCH   1  15
TORSDOF 5
ENDMDL
MODEL 2
REMARK VINA RESULT: -7.090736060      1.383      1.562
REMARK  5 active torsions:
REMARK  status: ('A' for Active; 'I' for Inactive)
REMARK    1  A    between atoms: C1_2  and  C2_3 
REMARK       I    between atoms: C1_2  and  N2_18 
REMARK    2  A    between atoms: C2_3  and  N1_4 
REMARK    3  A    between atoms: C5_7  and  O2_8 
REMARK    4  A    between atoms: C5_7  and  C6_10 
REMARK    5  A    between atoms: N2_18  and  C12_20 
ROOT
HETATM    1  N1  UNL     1      -4.663   3.030  13.540  1.00  0.00     0.100 N 
HETATM    2  C3  UNL     1      -4.715   1.611  13.233  1.00  0.00     0.276 C 
HETATM    3  C4  UNL     1      -3.553   1.488  12.225  1.00  0.00     0.070 C 
HETATM    4  C5  UNL     1      -3.912   2.675  11.344  1.00  0.00     0.090 C 
HETATM    5  C11 UNL     1      -4.234   3.722  12.373  1.00  0.00     0.311 C 
ENDROOT
BRANCH   4   6
HETATM    6  O2  UNL     1      -5.073   2.349  10.665  1.00  0.00    -0.388 OA
ATOM      7  H2  UNL     1      -5.389   3.142  10.248  1.00  0.00     0.210 HD
ENDBRANCH   4   6
BRANCH   4   8
HETATM    8  C6  UNL     1      -2.838   3.052  10.397  1.00  0.00     0.030 C 
HETATM    9  C7  UNL     1      -1.679   2.082  10.483  1.00  0.00     0.016 C 
HETATM   10  C8  UNL     1      -0.831   3.219  11.014  1.00  0.00     0.033 A 
HETATM   11  C9  UNL     1      -1.958   4.211  10.724  1.00  0.00     0.039 A 
HETATM   12  C10 UNL     1      -0.602   4.328  10.081  1.00  0.00     0.122 A 
HETATM   13 CL1  UNL     1      -0.474   3.868   8.357  1.00  0.00    -0.101 Cl
HETATM   14 CL2  UNL     1       0.436   5.637  10.611  1.00  0.00    -0.101 Cl
ENDBRANCH   4   8
BRANCH   1  15
HETATM   15  C2  UNL     1      -3.833   3.271  14.687  1.00  0.00     0.374 C 
BRANCH  15  16
HETATM   16  C1  UNL     1      -4.303   2.516  15.851  1.00  0.00     0.246 C 
HETATM   17  O1  UNL     1      -3.447   1.726  16.408  1.00  0.00    -0.272 OA
HETATM   18  N2  UNL     1      -5.607   2.635  16.350  1.00  0.00    -0.355 N 
ATOM     19  H2  UNL     1      -6.280   3.263  15.912  1.00  0.00     0.162 HD
BRANCH  18  20
HETATM   20  C12 UNL     1      -5.978   1.833  17.518  1.00  0.00     0.084 A 
HETATM   21  C13 UNL     1      -7.408   1.274  17.354  1.00  0.00     0.027 A 
HETATM   22  C14 UNL     1      -6.199   0.383  17.364  1.00  0.00     0.027 A 
ENDBRANCH  18  20
ENDBRANCH  15  16
ENDBRANCH   1  15
TORSDOF 5
ENDMDL
MODEL 3
REMARK VINA RESULT: -7.033553204      1.135      1.682
REMARK  5 active torsions:
REMARK  status: ('A' for Active; 'I' for Inactive)
REMARK    1  A    between atoms: C1_2  and  C2_3 
REMARK       I    between atoms: C1_2  and  N2_18 
REMARK    2  A    between atoms: C2_3  and  N1_4 
REMARK    3  A    between atoms: C5_7  and  O2_8 
REMARK    4  A    between atoms: C5_7  and  C6_10 
REMARK    5  A    between atoms: N2_18  and  C12_20 
ROOT
HETATM    1  N1  UNL     1      -4.686   1.061  12.929  1.00  0.00     0.100 N 
HETATM    2  C3  UNL     1      -4.649   0.314  11.684  1.00  0.00     0.276 C 
HETATM    3  C4  UNL     1      -3.200   0.581  11.226  1.00  0.00     0.070 C 
HETATM    4  C5  UNL     1      -3.185   2.087  11.444  1.00  0.00     0.090 C 
HETATM    5  C11 UNL     1      -3.843   2.199  12.790  1.00  0.00     0.311 C 
ENDROOT
BRANCH   4   6
HETATM    6  O2  UNL     1      -4.018   2.650  10.494  1.00  0.00    -0.388 OA
ATOM      7  H2  UNL     1      -3.469   3.115   9.874  1.00  0.00     0.210 HD
ENDBRANCH   4   6
BRANCH   4   8
HETATM    8  C6  UNL     1      -1.829   2.679  11.369  1.00  0.00     0.030 C 
HETATM    9  C7  UNL     1      -1.887   4.181  11.552  1.00  0.00     0.016 C 
HETATM   10  C8  UNL     1      -1.411   4.324  10.121  1.00  0.00     0.033 A 
HETATM   11  C9  UNL     1      -1.172   2.816  10.038  1.00  0.00     0.039 A 
HETATM   12  C10 UNL     1      -0.062   3.815   9.848  1.00  0.00     0.122 A 
HETATM   13 CL1  UNL     1       1.112   3.995  11.186  1.00  0.00    -0.101 Cl
HETATM   14 CL2  UNL     1       0.575   4.023   8.228  1.00  0.00    -0.101 Cl
ENDBRANCH   4   8
BRANCH   1  15
HETATM   15  C2  UNL     1      -4.334   0.218  14.037  1.00  0.00     0.374 C 
BRANCH  15  16
HETATM   16  C1  UNL     1      -4.514   0.916  15.312  1.00  0.00     0.246 C 
HETATM   17  O1  UNL     1      -3.637   0.673  16.229  1.00  0.00    -0.272 OA
HETATM   18  N2  UNL     1      -5.571   1.807  15.542  1.00  0.00    -0.355 N 
ATOM     19  H2  UNL     1      -6.259   2.001  14.815  1.00  0.00     0.162 HD
BRANCH  18  20
HETATM   20  C12 UNL     1      -5.662   2.451  16.854  1.00  0.00     0.084 A 
HETATM   21  C13 UNL     1      -7.014   3.182  17.001  1.00  0.00     0.027 A 
HETATM   22  C14 UNL     1      -6.665   1.979  17.828  1.00  0.00     0.027 A 
ENDBRANCH  18  20
ENDBRANCH  15  16
ENDBRANCH   1  15
TORSDOF 5
ENDMDL
MODEL 4
REMARK VINA RESULT: -6.623123464      3.159      4.167
REMARK  5 active torsions:
REMARK  status: ('A' for Active; 'I' for Inactive)
REMARK    1  A    between atoms: C1_2  and  C2_3 
REMARK       I    between atoms: C1_2  and  N2_18 
REMARK    2  A    between atoms: C2_3  and  N1_4 
REMARK    3  A    between atoms: C5_7  and  O2_8 
REMARK    4  A    between atoms: C5_7  and  C6_10 
REMARK    5  A    between atoms: N2_18  and  C12_20 
ROOT
HETATM    1  N1  UNL     1      -3.762   4.726  14.232  1.00  0.00     0.100 N 
HETATM    2  C3  UNL     1      -3.093   5.559  13.248  1.00  0.00     0.276 C 
HETATM    3  C4  UNL     1      -3.391   4.776  11.952  1.00  0.00     0.070 C 
HETATM    4  C5  UNL     1      -3.014   3.390  12.452  1.00  0.00     0.090 C 
HETATM    5  C11 UNL     1      -3.673   3.372  13.802  1.00  0.00     0.311 C 
ENDROOT
BRANCH   4   6
HETATM    6  O2  UNL     1      -1.642   3.373  12.627  1.00  0.00    -0.388 OA
ATOM      7  H2  UNL     1      -1.468   3.640  13.522  1.00  0.00     0.210 HD
ENDBRANCH   4   6
BRANCH   4   8
HETATM    8  C6  UNL     1      -3.440   2.300  11.544  1.00  0.00     0.030 C 
HETATM    9  C7  UNL     1      -4.809   1.782  11.929  1.00  0.00     0.016 C 
HETATM   10  C8  UNL     1      -4.156   0.462  12.285  1.00  0.00     0.033 A 
HETATM   11  C9  UNL     1      -2.829   0.949  11.699  1.00  0.00     0.039 A 
HETATM   12  C10 UNL     1      -3.544  -0.264  11.166  1.00  0.00     0.122 A 
HETATM   13 CL1  UNL     1      -4.379  -0.093   9.592  1.00  0.00    -0.101 Cl
HETATM   14 CL2  UNL     1      -2.840  -1.834  11.500  1.00  0.00    -0.101 Cl
ENDBRANCH   4   8
BRANCH   1  15
HETATM   15  C2  UNL     1      -5.110   5.173  14.443  1.00  0.00     0.374 C 
BRANCH  15  16
HETATM   16  C1  UNL     1      -5.965   4.080  14.912  1.00  0.00     0.246 C 
HETATM   17  O1  UNL     1      -6.904   3.700  14.111  1.00  0.00    -0.272 OA
HETATM   18  N2  UNL     1      -5.784   3.463  16.157  1.00  0.00    -0.355 N 
ATOM     19  H2  UNL     1      -5.038   3.760  16.785  1.00  0.00     0.162 HD
BRANCH  18  20
HETATM   20  C12 UNL     1      -6.695   2.379  16.533  1.00  0.00     0.084 A 
HETATM   21  C13 UNL     1      -5.901   1.091  16.839  1.00  0.00     0.027 A 
HETATM   22  C14 UNL     1      -6.652   1.837  17.904  1.00  0.00     0.027 A 
ENDBRANCH  18  20
ENDBRANCH  15  16
ENDBRANCH   1  15
TORSDOF 5
ENDMDL
MODEL 5
REMARK VINA RESULT: -6.622228409      1.079      1.408
REMARK  5 active torsions:
REMARK  status: ('A' for Active; 'I' for Inactive)
REMARK    1  A    between atoms: C1_2  and  C2_3 
REMARK       I    between atoms: C1_2  and  N2_18 
REMARK    2  A    between atoms: C2_3  and  N1_4 
REMARK    3  A    between atoms: C5_7  and  O2_8 
REMARK    4  A    between atoms: C5_7  and  C6_10 
REMARK    5  A    between atoms: N2_18  and  C12_20 
ROOT
HETATM    1  N1  UNL     1      -4.824   1.967  12.812  1.00  0.00     0.100 N 
HETATM    2  C3  UNL     1      -5.310   1.474  11.535  1.00  0.00     0.276 C 
HETATM    3  C4  UNL     1      -4.077   1.720  10.639  1.00  0.00     0.070 C 
HETATM    4  C5  UNL     1      -3.787   3.150  11.069  1.00  0.00     0.090 C 
HETATM    5  C11 UNL     1      -3.931   3.047  12.561  1.00  0.00     0.311 C 
ENDROOT
BRANCH   4   6
HETATM    6  O2  UNL     1      -4.808   3.944  10.578  1.00  0.00    -0.388 OA
ATOM      7  H2  UNL     1      -4.435   4.499   9.903  1.00  0.00     0.210 HD
ENDBRANCH   4   6
BRANCH   4   8
HETATM    8  C6  UNL     1      -2.469   3.647  10.610  1.00  0.00     0.030 C 
HETATM    9  C7  UNL     1      -1.675   4.214  11.766  1.00  0.00     0.016 C 
HETATM   10  C8  UNL     1      -1.782   5.575  11.110  1.00  0.00     0.033 A 
HETATM   11  C9  UNL     1      -2.401   4.937   9.865  1.00  0.00     0.039 A 
HETATM   12  C10 UNL     1      -1.109   5.706   9.812  1.00  0.00     0.122 A 
HETATM   13 CL1  UNL     1       0.398   4.758   9.629  1.00  0.00    -0.101 Cl
HETATM   14 CL2  UNL     1      -1.131   7.279   9.038  1.00  0.00    -0.101 Cl
ENDBRANCH   4   8
BRANCH   1  15
HETATM   15  C2  UNL     1      -4.235   0.903  13.576  1.00  0.00     0.374 C 
BRANCH  15  16
HETATM   16  C1  UNL     1      -4.787   0.856  14.932  1.00  0.00     0.246 C 
HETATM   17  O1  UNL     1      -4.777  -0.296  15.517  1.00  0.00    -0.272 OA
HETATM   18  N2  UNL     1      -5.299   1.989  15.578  1.00  0.00    -0.355 N 
ATOM     19  H2  UNL     1      -5.301   2.898  15.116  1.00  0.00     0.162 HD
BRANCH  18  20
HETATM   20  C12 UNL     1      -5.830   1.834  16.934  1.00  0.00     0.084 A 
HETATM   21  C13 UNL     1      -6.857   2.947  17.239  1.00  0.00     0.027 A 
HETATM   22  C14 UNL     1      -7.256   1.504  17.122  1.00  0.00     0.027 A 
ENDBRANCH  18  20
ENDBRANCH  15  16
ENDBRANCH   1  15
TORSDOF 5
ENDMDL
