MODEL 1
REMARK VINA RESULT: -6.962768391      0.000      0.000
REMARK  7 active torsions:
REMARK  status: ('A' for Active; 'I' for Inactive)
REMARK    1  A    between atoms: C2_2  and  N1_3 
REMARK    2  A    between atoms: N1_3  and  C3_4 
REMARK    3  A    between atoms: N1_3  and  C6_13 
REMARK    4  A    between atoms: C3_4  and  N2_6 
REMARK       I    between atoms: N2_6  and  C4_8 
REMARK    5  A    between atoms: C4_8  and  C5_10 
REMARK    6  A    between atoms: C5_10  and  O2_11 
REMARK    7  A    between atoms: C9_16  and  C10_17 
ROOT
HETATM    1  N1  UNL     1      -4.201   4.216  13.530  1.00  0.00    -0.332 N 
ENDROOT
BRANCH   1   2
HETATM    2  C2  UNL     1      -3.316   5.350  13.984  1.00  0.00     0.123 C 
HETATM    3  C1  UNL     1      -1.884   4.942  14.003  1.00  0.00     0.026 C 
ENDBRANCH   1   2
BRANCH   1   4
HETATM    4  C3  UNL     1      -4.044   3.871  12.180  1.00  0.00     0.178 C 
HETATM    5  S1  UNL     1      -4.213   5.085  11.029  1.00  0.00    -0.041 SA
BRANCH   4   6
HETATM    6  N2  UNL     1      -3.759   2.606  11.630  1.00  0.00    -0.302 N 
HETATM    7  C4  UNL     1      -4.775   1.706  11.229  1.00  0.00     0.247 C 
HETATM    8  O1  UNL     1      -5.981   1.991  11.342  1.00  0.00    -0.271 OA
ATOM      9  H2  UNL     1      -2.784   2.328  11.517  1.00  0.00     0.171 HD
BRANCH   7  10
HETATM   10  C5  UNL     1      -4.455   0.366  10.647  1.00  0.00     0.267 C 
BRANCH  10  11
HETATM   11  O2  UNL     1      -4.466   0.356   9.276  1.00  0.00    -0.392 OA
ATOM     12  H2  UNL     1      -4.211  -0.481   8.906  1.00  0.00     0.210 HD
ENDBRANCH  10  11
ENDBRANCH   7  10
ENDBRANCH   4   6
ENDBRANCH   1   4
BRANCH   1  13
HETATM   13  C6  UNL     1      -5.007   3.726  14.570  1.00  0.00     0.225 C 
HETATM   14  C7  UNL     1      -6.005   4.559  15.251  1.00  0.00     0.054 C 
HETATM   15  C8  UNL     1      -6.601   3.768  16.435  1.00  0.00     0.013 C 
HETATM   16  C9  UNL     1      -6.219   2.305  16.324  1.00  0.00     0.043 C 
HETATM   17  C11 UNL     1      -4.742   2.143  16.219  1.00  0.00     0.177 C 
HETATM   18  O3  UNL     1      -4.152   3.220  15.599  1.00  0.00    -0.366 OA
BRANCH  16  19
HETATM   19  C10 UNL     1      -6.786   1.630  17.566  1.00  0.00     0.184 C 
HETATM   20 CL1  UNL     1      -6.429   2.565  19.034  1.00  0.00    -0.108 Cl
HETATM   21 CL2  UNL     1      -6.147  -0.012  17.773  1.00  0.00    -0.108 Cl
ENDBRANCH  16  19
ENDBRANCH   1  13
TORSDOF 7
ENDMDL
MODEL 2
REMARK VINA RESULT: -6.804316176      0.935      1.351
REMARK  7 active torsions:
REMARK  status: ('A' for Active; 'I' for Inactive)
REMARK    1  A    between atoms: C2_2  and  N1_3 
REMARK    2  A    between atoms: N1_3  and  C3_4 
REMARK    3  A    between atoms: N1_3  and  C6_13 
REMARK    4  A    between atoms: C3_4  and  N2_6 
REMARK       I    between atoms: N2_6  and  C4_8 
REMARK    5  A    between atoms: C4_8  and  C5_10 
REMARK    6  A    between atoms: C5_10  and  O2_11 
REMARK    7  A    between atoms: C9_16  and  C10_17 
ROOT
HETATM    1  N1  UNL     1      -3.920   4.013  13.198  1.00  0.00    -0.332 N 
ENDROOT
BRANCH   1   2
HETATM    2  C2  UNL     1      -3.077   5.198  13.599  1.00  0.00     0.123 C 
HETATM    3  C1  UNL     1      -1.950   4.785  14.481  1.00  0.00     0.026 C 
ENDBRANCH   1   2
BRANCH   1   4
HETATM    4  C3  UNL     1      -3.877   3.716  11.828  1.00  0.00     0.178 C 
HETATM    5  S1  UNL     1      -4.175   4.962  10.740  1.00  0.00    -0.041 SA
BRANCH   4   6
HETATM    6  N2  UNL     1      -3.616   2.477  11.213  1.00  0.00    -0.302 N 
HETATM    7  C4  UNL     1      -4.632   1.526  10.956  1.00  0.00     0.247 C 
HETATM    8  O1  UNL     1      -5.819   1.740  11.264  1.00  0.00    -0.271 OA
ATOM      9  H2  UNL     1      -2.657   2.256  10.941  1.00  0.00     0.171 HD
BRANCH   7  10
HETATM   10  C5  UNL     1      -4.337   0.214  10.301  1.00  0.00     0.267 C 
BRANCH  10  11
HETATM   11  O2  UNL     1      -4.703   0.176   8.980  1.00  0.00    -0.392 OA
ATOM     12  H2  UNL     1      -3.963   0.211   8.385  1.00  0.00     0.210 HD
ENDBRANCH  10  11
ENDBRANCH   7  10
ENDBRANCH   4   6
ENDBRANCH   1   4
BRANCH   1  13
HETATM   13  C6  UNL     1      -4.578   3.437  14.297  1.00  0.00     0.225 C 
HETATM   14  C7  UNL     1      -4.441   2.017  14.640  1.00  0.00     0.054 C 
HETATM   15  C8  UNL     1      -5.408   1.680  15.795  1.00  0.00     0.013 C 
HETATM   16  C9  UNL     1      -5.938   2.959  16.414  1.00  0.00     0.043 C 
HETATM   17  C11 UNL     1      -6.567   3.832  15.385  1.00  0.00     0.177 C 
HETATM   18  O3  UNL     1      -5.982   3.672  14.150  1.00  0.00    -0.366 OA
BRANCH  16  19
HETATM   19  C10 UNL     1      -6.931   2.523  17.485  1.00  0.00     0.184 C 
HETATM   20 CL1  UNL     1      -6.194   2.548  19.101  1.00  0.00    -0.108 Cl
HETATM   21 CL2  UNL     1      -7.560   0.894  17.176  1.00  0.00    -0.108 Cl
ENDBRANCH  16  19
ENDBRANCH   1  13
TORSDOF 7
ENDMDL
MODEL 3
REMARK VINA RESULT: -6.739006119      1.156      1.738
REMARK  7 active torsions:
REMARK  status: ('A' for Active; 'I' for Inactive)
REMARK    1  A    between atoms: C2_2  and  N1_3 
REMARK    2  A    between atoms: N1_3  and  C3_4 
REMARK    3  A    between atoms: N1_3  and  C6_13 
REMARK    4  A    between atoms: C3_4  and  N2_6 
REMARK       I    between atoms: N2_6  and  C4_8 
REMARK    5  A    between atoms: C4_8  and  C5_10 
REMARK    6  A    between atoms: C5_10  and  O2_11 
REMARK    7  A    between atoms: C9_16  and  C10_17 
ROOT
HETATM    1  N1  UNL     1      -4.567   4.362  13.246  1.00  0.00    -0.332 N 
ENDROOT
BRANCH   1   2
HETATM    2  C2  UNL     1      -4.649   5.826  13.597  1.00  0.00     0.123 C 
HETATM    3  C1  UNL     1      -4.209   6.070  14.999  1.00  0.00     0.026 C 
ENDBRANCH   1   2
BRANCH   1   4
HETATM    4  C3  UNL     1      -4.271   4.111  11.898  1.00  0.00     0.178 C 
HETATM    5  S1  UNL     1      -4.484   5.361  10.795  1.00  0.00    -0.041 SA
BRANCH   4   6
HETATM    6  N2  UNL     1      -3.808   2.915  11.316  1.00  0.00    -0.302 N 
HETATM    7  C4  UNL     1      -4.670   1.836  11.007  1.00  0.00     0.247 C 
HETATM    8  O1  UNL     1      -5.892   1.892  11.236  1.00  0.00    -0.271 OA
ATOM      9  H2  UNL     1      -2.813   2.823  11.108  1.00  0.00     0.171 HD
BRANCH   7  10
HETATM   10  C5  UNL     1      -4.162   0.573  10.388  1.00  0.00     0.267 C 
BRANCH  10  11
HETATM   11  O2  UNL     1      -4.671   0.342   9.136  1.00  0.00    -0.392 OA
ATOM     12  H2  UNL     1      -4.635  -0.572   8.880  1.00  0.00     0.210 HD
ENDBRANCH  10  11
ENDBRANCH   7  10
ENDBRANCH   4   6
ENDBRANCH   1   4
BRANCH   1  13
HETATM   13  C6  UNL     1      -4.801   3.538  14.359  1.00  0.00     0.225 C 
HETATM   14  C7  UNL     1      -4.135   2.243  14.532  1.00  0.00     0.054 C 
HETATM   15  C8  UNL     1      -4.725   1.531  15.768  1.00  0.00     0.013 C 
HETATM   16  C9  UNL     1      -5.550   2.509  16.582  1.00  0.00     0.043 C 
HETATM   17  C11 UNL     1      -6.598   3.154  15.744  1.00  0.00     0.177 C 
HETATM   18  O3  UNL     1      -6.204   3.270  14.431  1.00  0.00    -0.366 OA
BRANCH  16  19
HETATM   19  C10 UNL     1      -6.145   1.700  17.728  1.00  0.00     0.184 C 
HETATM   20 CL1  UNL     1      -7.697   0.969  17.268  1.00  0.00    -0.108 Cl
HETATM   21 CL2  UNL     1      -6.396   2.695  19.174  1.00  0.00    -0.108 Cl
ENDBRANCH  16  19
ENDBRANCH   1  13
TORSDOF 7
ENDMDL
MODEL 4
REMARK VINA RESULT: -6.568567120      1.381      1.754
REMARK  7 active torsions:
REMARK  status: ('A' for Active; 'I' for Inactive)
REMARK    1  A    between atoms: C2_2  and  N1_3 
REMARK    2  A    between atoms: N1_3  and  C3_4 
REMARK    3  A    between atoms: N1_3  and  C6_13 
REMARK    4  A    between atoms: C3_4  and  N2_6 
REMARK       I    between atoms: N2_6  and  C4_8 
REMARK    5  A    between atoms: C4_8  and  C5_10 
REMARK    6  A    between atoms: C5_10  and  O2_11 
REMARK    7  A    between atoms: C9_16  and  C10_17 
ROOT
HETATM    1  N1  UNL     1      -3.487   4.092  13.658  1.00  0.00    -0.332 N 
ENDROOT
BRANCH   1   2
HETATM    2  C2  UNL     1      -2.925   5.463  13.937  1.00  0.00     0.123 C 
HETATM    3  C1  UNL     1      -3.867   6.276  14.756  1.00  0.00     0.026 C 
ENDBRANCH   1   2
BRANCH   1   4
HETATM    4  C3  UNL     1      -3.171   3.589  12.388  1.00  0.00     0.178 C 
HETATM    5  S1  UNL     1      -1.693   4.020  11.713  1.00  0.00    -0.041 SA
BRANCH   4   6
HETATM    6  N2  UNL     1      -3.945   2.747  11.566  1.00  0.00    -0.302 N 
HETATM    7  C4  UNL     1      -3.926   1.338  11.689  1.00  0.00     0.247 C 
HETATM    8  O1  UNL     1      -3.220   0.766  12.539  1.00  0.00    -0.271 OA
ATOM      9  H2  UNL     1      -4.541   3.170  10.854  1.00  0.00     0.171 HD
BRANCH   7  10
HETATM   10  C5  UNL     1      -4.755   0.459  10.807  1.00  0.00     0.267 C 
BRANCH  10  11
HETATM   11  O2  UNL     1      -4.379   0.507   9.489  1.00  0.00    -0.392 OA
ATOM     12  H2  UNL     1      -4.561  -0.298   9.018  1.00  0.00     0.210 HD
ENDBRANCH  10  11
ENDBRANCH   7  10
ENDBRANCH   4   6
ENDBRANCH   1   4
BRANCH   1  13
HETATM   13  C6  UNL     1      -4.217   3.589  14.748  1.00  0.00     0.225 C 
HETATM   14  C7  UNL     1      -3.722   2.493  15.588  1.00  0.00     0.054 C 
HETATM   15  C8  UNL     1      -4.824   2.084  16.588  1.00  0.00     0.013 C 
HETATM   16  C9  UNL     1      -5.919   3.133  16.608  1.00  0.00     0.043 C 
HETATM   17  C11 UNL     1      -6.455   3.374  15.240  1.00  0.00     0.177 C 
HETATM   18  O3  UNL     1      -5.499   3.169  14.272  1.00  0.00    -0.366 OA
BRANCH  16  19
HETATM   19  C10 UNL     1      -6.985   2.607  17.560  1.00  0.00     0.184 C 
HETATM   20 CL1  UNL     1      -6.371   2.496  19.224  1.00  0.00    -0.108 Cl
HETATM   21 CL2  UNL     1      -7.575   1.008  17.069  1.00  0.00    -0.108 Cl
ENDBRANCH  16  19
ENDBRANCH   1  13
TORSDOF 7
ENDMDL
MODEL 5
REMARK VINA RESULT: -6.497884167      1.172      1.330
REMARK  7 active torsions:
REMARK  status: ('A' for Active; 'I' for Inactive)
REMARK    1  A    between atoms: C2_2  and  N1_3 
REMARK    2  A    between atoms: N1_3  and  C3_4 
REMARK    3  A    between atoms: N1_3  and  C6_13 
REMARK    4  A    between atoms: C3_4  and  N2_6 
REMARK       I    between atoms: N2_6  and  C4_8 
REMARK    5  A    between atoms: C4_8  and  C5_10 
REMARK    6  A    between atoms: C5_10  and  O2_11 
REMARK    7  A    between atoms: C9_16  and  C10_17 
ROOT
HETATM    1  N1  UNL     1      -4.237   4.206  13.519  1.00  0.00    -0.332 N 
ENDROOT
BRANCH   1   2
HETATM    2  C2  UNL     1      -4.157   5.711  13.520  1.00  0.00     0.123 C 
HETATM    3  C1  UNL     1      -4.872   6.291  12.349  1.00  0.00     0.026 C 
ENDBRANCH   1   2
BRANCH   1   4
HETATM    4  C3  UNL     1      -3.511   3.592  12.488  1.00  0.00     0.178 C 
HETATM    5  S1  UNL     1      -1.902   4.034  12.284  1.00  0.00    -0.041 SA
BRANCH   4   6
HETATM    6  N2  UNL     1      -3.955   2.628  11.563  1.00  0.00    -0.302 N 
HETATM    7  C4  UNL     1      -4.067   1.256  11.890  1.00  0.00     0.247 C 
HETATM    8  O1  UNL     1      -3.778   0.829  13.023  1.00  0.00    -0.271 OA
ATOM      9  H2  UNL     1      -4.205   2.930  10.621  1.00  0.00     0.171 HD
BRANCH   7  10
HETATM   10  C5  UNL     1      -4.541   0.245  10.895  1.00  0.00     0.267 C 
BRANCH  10  11
HETATM   11  O2  UNL     1      -4.589   0.729   9.613  1.00  0.00    -0.392 OA
ATOM     12  H2  UNL     1      -3.806   0.537   9.110  1.00  0.00     0.210 HD
ENDBRANCH  10  11
ENDBRANCH   7  10
ENDBRANCH   4   6
ENDBRANCH   1   4
BRANCH   1  13
HETATM   13  C6  UNL     1      -5.030   3.719  14.572  1.00  0.00     0.225 C 
HETATM   14  C7  UNL     1      -6.022   4.552  15.260  1.00  0.00     0.054 C 
HETATM   15  C8  UNL     1      -6.601   3.766  16.455  1.00  0.00     0.013 C 
HETATM   16  C9  UNL     1      -6.216   2.304  16.348  1.00  0.00     0.043 C 
HETATM   17  C11 UNL     1      -4.740   2.146  16.226  1.00  0.00     0.177 C 
HETATM   18  O3  UNL     1      -4.160   3.221  15.593  1.00  0.00    -0.366 OA
BRANCH  16  19
HETATM   19  C10 UNL     1      -6.766   1.634  17.600  1.00  0.00     0.184 C 
HETATM   20 CL1  UNL     1      -6.403   2.583  19.057  1.00  0.00    -0.108 Cl
HETATM   21 CL2  UNL     1      -6.111  -0.001  17.814  1.00  0.00    -0.108 Cl
ENDBRANCH  16  19
ENDBRANCH   1  13
TORSDOF 7
ENDMDL
