MODEL 1
REMARK VINA RESULT: -7.146618429      0.000      0.000
REMARK  4 active torsions:
REMARK  status: ('A' for Active; 'I' for Inactive)
REMARK    1  A    between atoms: C2_2  and  N1_3 
REMARK       I    between atoms: N1_3  and  C3_5 
REMARK       I    between atoms: C3_5  and  N4_21 
REMARK    2  A    between atoms: N2_6  and  C4_8 
REMARK    3  A    between atoms: C4_8  and  C5_9 
REMARK       I    between atoms: N3_16  and  C12_17 
REMARK    4  A    between atoms: C12_17  and  C13_19 
ROOT
HETATM    1  N1  UNL     1      -1.374   2.307  11.689  1.00  0.00    -0.226 N 
ATOM      2  H1  UNL     1      -0.584   2.556  12.284  1.00  0.00     0.177 HD
HETATM    3  C3  UNL     1      -2.694   2.440  12.193  1.00  0.00     0.682 C 
HETATM    4  N2  UNL     1      -3.166   3.527  12.661  1.00  0.00    -0.223 N 
ATOM      5  H2  UNL     1      -2.564   4.350  12.676  1.00  0.00     0.177 HD
HETATM    6  N4  UNL     1      -3.528   1.290  12.171  1.00  0.00    -0.126 N 
ATOM      7  H4  UNL     1      -3.633   0.695  12.993  1.00  0.00     0.197 HD
HETATM    8  C14 UNL     1      -4.201   1.005  10.972  1.00  0.00     0.196 C 
HETATM    9  N5  UNL     1      -4.741   0.774   9.972  1.00  0.00    -0.171 NA
ENDROOT
BRANCH   1  10
HETATM   10  C2  UNL     1      -1.124   1.818  10.332  1.00  0.00     0.133 C 
HETATM   11  C1  UNL     1      -0.861   2.989   9.430  1.00  0.00     0.027 C 
ENDBRANCH   1  10
BRANCH   4  12
HETATM   12  C4  UNL     1      -4.516   3.653  13.172  1.00  0.00     0.169 C 
BRANCH  12  13
HETATM   13  C5  UNL     1      -4.448   4.490  14.421  1.00  0.00     0.051 C 
HETATM   14  C6  UNL     1      -3.084   4.242  15.056  1.00  0.00     0.041 C 
HETATM   15  C7  UNL     1      -4.551   5.962  14.157  1.00  0.00     0.016 C 
HETATM   16  C8  UNL     1      -5.329   6.304  12.921  1.00  0.00     0.013 C 
HETATM   17  C9  UNL     1      -5.300   6.443  15.385  1.00  0.00     0.006 C 
HETATM   18  C10 UNL     1      -5.911   7.791  15.218  1.00  0.00     0.012 C 
HETATM   19  C11 UNL     1      -6.352   5.333  15.505  1.00  0.00     0.131 C 
HETATM   20  N3  UNL     1      -5.518   4.161  15.354  1.00  0.00    -0.340 N 
HETATM   21  C12 UNL     1      -5.717   2.930  15.999  1.00  0.00     0.234 C 
HETATM   22  O1  UNL     1      -4.934   1.982  15.797  1.00  0.00    -0.272 OA
BRANCH  21  23
HETATM   23  C13 UNL     1      -6.849   2.748  16.919  1.00  0.00     0.217 C 
HETATM   24 CL1  UNL     1      -7.287   1.064  17.167  1.00  0.00    -0.121 Cl
ENDBRANCH  21  23
ENDBRANCH  12  13
ENDBRANCH   4  12
TORSDOF 4
ENDMDL
MODEL 2
REMARK VINA RESULT: -6.700666794      1.234      1.402
REMARK  4 active torsions:
REMARK  status: ('A' for Active; 'I' for Inactive)
REMARK    1  A    between atoms: C2_2  and  N1_3 
REMARK       I    between atoms: N1_3  and  C3_5 
REMARK       I    between atoms: C3_5  and  N4_21 
REMARK    2  A    between atoms: N2_6  and  C4_8 
REMARK    3  A    between atoms: C4_8  and  C5_9 
REMARK       I    between atoms: N3_16  and  C12_17 
REMARK    4  A    between atoms: C12_17  and  C13_19 
ROOT
HETATM    1  N1  UNL     1      -1.744   1.899  11.593  1.00  0.00    -0.226 N 
ATOM      2  H1  UNL     1      -1.541   1.030  12.087  1.00  0.00     0.177 HD
HETATM    3  C3  UNL     1      -2.977   2.562  11.828  1.00  0.00     0.682 C 
HETATM    4  N2  UNL     1      -3.376   2.922  12.982  1.00  0.00    -0.223 N 
ATOM      5  H2  UNL     1      -2.780   2.724  13.786  1.00  0.00     0.177 HD
HETATM    6  N4  UNL     1      -3.804   2.834  10.706  1.00  0.00    -0.126 N 
ATOM      7  H4  UNL     1      -4.572   2.213  10.450  1.00  0.00     0.197 HD
HETATM    8  C14 UNL     1      -3.522   3.992   9.963  1.00  0.00     0.196 C 
HETATM    9  N5  UNL     1      -3.271   4.945   9.352  1.00  0.00    -0.171 NA
ENDROOT
BRANCH   1  10
HETATM   10  C2  UNL     1      -0.758   2.437  10.654  1.00  0.00     0.133 C 
HETATM   11  C1  UNL     1      -0.077   3.619  11.283  1.00  0.00     0.027 C 
ENDBRANCH   1  10
BRANCH   4  12
HETATM   12  C4  UNL     1      -4.636   3.600  13.213  1.00  0.00     0.169 C 
BRANCH  12  13
HETATM   13  C5  UNL     1      -4.472   4.451  14.443  1.00  0.00     0.051 C 
HETATM   14  C6  UNL     1      -3.079   4.175  14.998  1.00  0.00     0.041 C 
HETATM   15  C7  UNL     1      -4.553   5.921  14.165  1.00  0.00     0.016 C 
HETATM   16  C8  UNL     1      -5.395   6.267  12.973  1.00  0.00     0.013 C 
HETATM   17  C9  UNL     1      -5.214   6.437  15.429  1.00  0.00     0.006 C 
HETATM   18  C10 UNL     1      -5.799   7.799  15.280  1.00  0.00     0.012 C 
HETATM   19  C11 UNL     1      -6.285   5.357  15.627  1.00  0.00     0.131 C 
HETATM   20  N3  UNL     1      -5.491   4.162  15.444  1.00  0.00    -0.340 N 
HETATM   21  C12 UNL     1      -5.682   2.944  16.117  1.00  0.00     0.234 C 
HETATM   22  O1  UNL     1      -4.937   1.973  15.881  1.00  0.00    -0.272 OA
BRANCH  21  23
HETATM   23  C13 UNL     1      -6.761   2.804  17.105  1.00  0.00     0.217 C 
HETATM   24 CL1  UNL     1      -7.505   1.212  17.108  1.00  0.00    -0.121 Cl
ENDBRANCH  21  23
ENDBRANCH  12  13
ENDBRANCH   4  12
TORSDOF 4
ENDMDL
MODEL 3
REMARK VINA RESULT: -6.651226069      3.867      5.709
REMARK  4 active torsions:
REMARK  status: ('A' for Active; 'I' for Inactive)
REMARK    1  A    between atoms: C2_2  and  N1_3 
REMARK       I    between atoms: N1_3  and  C3_5 
REMARK       I    between atoms: C3_5  and  N4_21 
REMARK    2  A    between atoms: N2_6  and  C4_8 
REMARK    3  A    between atoms: C4_8  and  C5_9 
REMARK       I    between atoms: N3_16  and  C12_17 
REMARK    4  A    between atoms: C12_17  and  C13_19 
ROOT
HETATM    1  N1  UNL     1      -7.068   3.245  16.600  1.00  0.00    -0.226 N 
ATOM      2  H1  UNL     1      -7.990   3.655  16.450  1.00  0.00     0.177 HD
HETATM    3  C3  UNL     1      -6.026   3.522  15.676  1.00  0.00     0.682 C 
HETATM    4  N2  UNL     1      -5.645   4.698  15.371  1.00  0.00    -0.223 N 
ATOM      5  H2  UNL     1      -6.114   5.489  15.813  1.00  0.00     0.177 HD
HETATM    6  N4  UNL     1      -5.378   2.417  15.063  1.00  0.00    -0.126 N 
ATOM      7  H4  UNL     1      -5.654   2.085  14.139  1.00  0.00     0.197 HD
HETATM    8  C14 UNL     1      -4.342   1.798  15.781  1.00  0.00     0.196 C 
HETATM    9  N5  UNL     1      -3.496   1.289  16.389  1.00  0.00    -0.171 NA
ENDROOT
BRANCH   1  10
HETATM   10  C2  UNL     1      -6.845   2.384  17.762  1.00  0.00     0.133 C 
HETATM   11  C1  UNL     1      -7.400   1.019  17.474  1.00  0.00     0.027 C 
ENDBRANCH   1  10
BRANCH   4  12
HETATM   12  C4  UNL     1      -4.580   4.971  14.428  1.00  0.00     0.169 C 
BRANCH  12  13
HETATM   13  C5  UNL     1      -4.354   6.458  14.419  1.00  0.00     0.051 C 
HETATM   14  C6  UNL     1      -5.132   7.038  15.596  1.00  0.00     0.041 C 
HETATM   15  C7  UNL     1      -2.918   6.843  14.607  1.00  0.00     0.016 C 
HETATM   16  C8  UNL     1      -1.944   5.812  14.118  1.00  0.00     0.013 C 
HETATM   17  C9  UNL     1      -2.820   8.091  13.751  1.00  0.00     0.006 C 
HETATM   18  C10 UNL     1      -1.419   8.467  13.408  1.00  0.00     0.012 C 
HETATM   19  C11 UNL     1      -3.621   7.634  12.525  1.00  0.00     0.131 C 
HETATM   20  N3  UNL     1      -4.786   7.067  13.167  1.00  0.00    -0.340 N 
HETATM   21  C12 UNL     1      -6.095   7.102  12.661  1.00  0.00     0.234 C 
HETATM   22  O1  UNL     1      -7.029   6.579  13.300  1.00  0.00    -0.272 OA
BRANCH  21  23
HETATM   23  C13 UNL     1      -6.376   7.756  11.375  1.00  0.00     0.217 C 
HETATM   24 CL1  UNL     1      -6.107   6.712   9.986  1.00  0.00    -0.121 Cl
ENDBRANCH  21  23
ENDBRANCH  12  13
ENDBRANCH   4  12
TORSDOF 4
ENDMDL
MODEL 4
REMARK VINA RESULT: -6.553011576      3.866      5.836
REMARK  4 active torsions:
REMARK  status: ('A' for Active; 'I' for Inactive)
REMARK    1  A    between atoms: C2_2  and  N1_3 
REMARK       I    between atoms: N1_3  and  C3_5 
REMARK       I    between atoms: C3_5  and  N4_21 
REMARK    2  A    between atoms: N2_6  and  C4_8 
REMARK    3  A    between atoms: C4_8  and  C5_9 
REMARK       I    between atoms: N3_16  and  C12_17 
REMARK    4  A    between atoms: C12_17  and  C13_19 
ROOT
HETATM    1  N1  UNL     1      -6.889   3.691  16.800  1.00  0.00    -0.226 N 
ATOM      2  H1  UNL     1      -7.702   4.167  17.191  1.00  0.00     0.177 HD
HETATM    3  C3  UNL     1      -6.256   4.226  15.648  1.00  0.00     0.682 C 
HETATM    4  N2  UNL     1      -5.811   5.417  15.574  1.00  0.00    -0.223 N 
ATOM      5  H2  UNL     1      -5.914   6.024  16.388  1.00  0.00     0.177 HD
HETATM    6  N4  UNL     1      -6.116   3.376  14.518  1.00  0.00    -0.126 N 
ATOM      7  H4  UNL     1      -6.787   3.401  13.750  1.00  0.00     0.197 HD
HETATM    8  C14 UNL     1      -5.019   2.502  14.501  1.00  0.00     0.196 C 
HETATM    9  N5  UNL     1      -4.114   1.775  14.505  1.00  0.00    -0.171 NA
ENDROOT
BRANCH   1  10
HETATM   10  C2  UNL     1      -6.397   2.469  17.440  1.00  0.00     0.133 C 
HETATM   11  C1  UNL     1      -7.367   1.353  17.176  1.00  0.00     0.027 C 
ENDBRANCH   1  10
BRANCH   4  12
HETATM   12  C4  UNL     1      -5.166   5.954  14.394  1.00  0.00     0.169 C 
BRANCH  12  13
HETATM   13  C5  UNL     1      -5.319   7.450  14.437  1.00  0.00     0.051 C 
HETATM   14  C6  UNL     1      -6.500   7.755  15.352  1.00  0.00     0.041 C 
HETATM   15  C7  UNL     1      -4.125   8.154  15.009  1.00  0.00     0.016 C 
HETATM   16  C8  UNL     1      -2.834   7.416  14.812  1.00  0.00     0.013 C 
HETATM   17  C9  UNL     1      -4.111   9.439  14.204  1.00  0.00     0.006 C 
HETATM   18  C10 UNL     1      -2.808  10.158  14.255  1.00  0.00     0.012 C 
HETATM   19  C11 UNL     1      -4.418   8.880  12.808  1.00  0.00     0.131 C 
HETATM   20  N3  UNL     1      -5.535   8.013  13.111  1.00  0.00    -0.340 N 
HETATM   21  C12 UNL     1      -6.629   7.766  12.265  1.00  0.00     0.234 C 
HETATM   22  O1  UNL     1      -7.541   6.999  12.627  1.00  0.00    -0.272 OA
BRANCH  21  23
HETATM   23  C13 UNL     1      -6.707   8.412  10.946  1.00  0.00     0.217 C 
HETATM   24 CL1  UNL     1      -7.139   7.305   9.651  1.00  0.00    -0.121 Cl
ENDBRANCH  21  23
ENDBRANCH  12  13
ENDBRANCH   4  12
TORSDOF 4
ENDMDL
MODEL 5
REMARK VINA RESULT: -6.446972190      2.596      4.841
REMARK  4 active torsions:
REMARK  status: ('A' for Active; 'I' for Inactive)
REMARK    1  A    between atoms: C2_2  and  N1_3 
REMARK       I    between atoms: N1_3  and  C3_5 
REMARK       I    between atoms: C3_5  and  N4_21 
REMARK    2  A    between atoms: N2_6  and  C4_8 
REMARK    3  A    between atoms: C4_8  and  C5_9 
REMARK       I    between atoms: N3_16  and  C12_17 
REMARK    4  A    between atoms: C12_17  and  C13_19 
ROOT
HETATM    1  N1  UNL     1      -2.009   6.297   9.790  1.00  0.00    -0.226 N 
ATOM      2  H1  UNL     1      -2.209   7.125  10.351  1.00  0.00     0.177 HD
HETATM    3  C3  UNL     1      -1.785   5.055  10.439  1.00  0.00     0.682 C 
HETATM    4  N2  UNL     1      -2.611   4.520  11.248  1.00  0.00    -0.223 N 
ATOM      5  H2  UNL     1      -3.484   5.011  11.443  1.00  0.00     0.177 HD
HETATM    6  N4  UNL     1      -0.567   4.377  10.164  1.00  0.00    -0.126 N 
ATOM      7  H4  UNL     1       0.239   4.464  10.782  1.00  0.00     0.197 HD
HETATM    8  C14 UNL     1      -0.518   3.584   9.007  1.00  0.00     0.196 C 
HETATM    9  N5  UNL     1      -0.487   2.941   8.042  1.00  0.00    -0.171 NA
ENDROOT
BRANCH   1  10
HETATM   10  C2  UNL     1      -1.959   6.413   8.331  1.00  0.00     0.133 C 
HETATM   11  C1  UNL     1      -3.234   5.873   7.752  1.00  0.00     0.027 C 
ENDBRANCH   1  10
BRANCH   4  12
HETATM   12  C4  UNL     1      -2.374   3.251  11.904  1.00  0.00     0.169 C 
BRANCH  12  13
HETATM   13  C5  UNL     1      -3.622   2.425  11.753  1.00  0.00     0.051 C 
HETATM   14  C6  UNL     1      -4.568   3.200  10.842  1.00  0.00     0.041 C 
HETATM   15  C7  UNL     1      -3.380   1.094  11.106  1.00  0.00     0.016 C 
HETATM   16  C8  UNL     1      -1.999   0.553  11.332  1.00  0.00     0.013 C 
HETATM   17  C9  UNL     1      -4.397   0.220  11.813  1.00  0.00     0.006 C 
HETATM   18  C10 UNL     1      -4.120  -1.238  11.682  1.00  0.00     0.012 C 
HETATM   19  C11 UNL     1      -4.224   0.722  13.252  1.00  0.00     0.131 C 
HETATM   20  N3  UNL     1      -4.254   2.152  13.038  1.00  0.00    -0.340 N 
HETATM   21  C12 UNL     1      -4.797   3.099  13.921  1.00  0.00     0.234 C 
HETATM   22  O1  UNL     1      -4.769   4.311  13.636  1.00  0.00    -0.272 OA
BRANCH  21  23
HETATM   23  C13 UNL     1      -5.404   2.668  15.189  1.00  0.00     0.217 C 
HETATM   24 CL1  UNL     1      -6.432   3.889  15.923  1.00  0.00    -0.121 Cl
ENDBRANCH  21  23
ENDBRANCH  12  13
ENDBRANCH   4  12
TORSDOF 4
ENDMDL
