MODEL 1
REMARK VINA RESULT: -7.291196824      0.000      0.000
REMARK  7 active torsions:
REMARK  status: ('A' for Active; 'I' for Inactive)
REMARK    1  A    between atoms: C2_2  and  C3_3 
REMARK    2  A    between atoms: C3_3  and  C4_4 
REMARK    3  A    between atoms: C3_3  and  N2_15 
REMARK       I    between atoms: C4_4  and  N1_6 
REMARK    4  A    between atoms: C7_9  and  C8_10 
REMARK    5  A    between atoms: C8_10  and  O2_11 
REMARK    6  A    between atoms: C14_19  and  O3_20 
REMARK    7  A    between atoms: C14_19  and  C15_22 
ROOT
HETATM    1  C3  UNL     1      -3.045   3.858  13.206  1.00  0.00     0.314 C 
ENDROOT
BRANCH   1   2
HETATM    2  C2  UNL     1      -2.573   5.267  12.966  1.00  0.00     0.041 C 
HETATM    3  C1  UNL     1      -1.867   5.851  14.170  1.00  0.00     0.007 C 
ENDBRANCH   1   2
BRANCH   1   4
HETATM    4  C4  UNL     1      -4.442   3.850  13.698  1.00  0.00     0.253 C 
HETATM    5  O1  UNL     1      -5.168   4.783  13.184  1.00  0.00    -0.271 OA
HETATM    6  N1  UNL     1      -5.063   3.003  14.601  1.00  0.00    -0.350 N 
HETATM    7  C5  UNL     1      -4.525   1.862  15.294  1.00  0.00     0.126 C 
HETATM    8  C10 UNL     1      -6.481   3.267  14.924  1.00  0.00     0.126 C 
HETATM    9  C6  UNL     1      -4.717   1.982  16.814  1.00  0.00     0.027 C 
HETATM   10  C7  UNL     1      -6.138   2.265  17.192  1.00  0.00     0.012 C 
HETATM   11  C9  UNL     1      -6.725   3.389  16.392  1.00  0.00     0.027 C 
BRANCH  10  12
HETATM   12  C8  UNL     1      -7.006   1.036  17.142  1.00  0.00     0.168 C 
BRANCH  12  13
HETATM   13  O2  UNL     1      -6.264  -0.128  17.332  1.00  0.00    -0.400 OA
ATOM     14  H2  UNL     1      -6.640  -0.866  16.867  1.00  0.00     0.209 HD
ENDBRANCH  12  13
ENDBRANCH  10  12
ENDBRANCH   1   4
BRANCH   1  15
HETATM   15  N2  UNL     1      -2.837   3.076  12.010  1.00  0.00     0.105 N 
HETATM   16  C11 UNL     1      -1.427   2.984  11.724  1.00  0.00     0.273 C 
HETATM   17  C12 UNL     1      -1.175   2.498  10.300  1.00  0.00     0.033 C 
HETATM   18  C13 UNL     1      -2.329   1.657   9.884  1.00  0.00     0.047 C 
HETATM   19  C14 UNL     1      -2.812   0.866  11.080  1.00  0.00     0.143 C 
HETATM   20  C16 UNL     1      -3.244   1.681  12.238  1.00  0.00     0.316 C 
BRANCH  19  21
HETATM   21  O3  UNL     1      -1.724   0.082  11.483  1.00  0.00    -0.382 OA
ATOM     22  H3  UNL     1      -1.949  -0.251  12.344  1.00  0.00     0.210 HD
ENDBRANCH  19  21
BRANCH  19  23
HETATM   23  C15 UNL     1      -3.848  -0.112  10.564  1.00  0.00     0.388 C 
HETATM   24  F1  UNL     1      -3.611  -1.367  11.146  1.00  0.00    -0.211 F 
HETATM   25  F2  UNL     1      -5.136   0.236  10.918  1.00  0.00    -0.211 F 
ENDBRANCH  19  23
ENDBRANCH   1  15
TORSDOF 7
ENDMDL
MODEL 2
REMARK VINA RESULT: -6.998230788      2.514      4.545
REMARK  7 active torsions:
REMARK  status: ('A' for Active; 'I' for Inactive)
REMARK    1  A    between atoms: C2_2  and  C3_3 
REMARK    2  A    between atoms: C3_3  and  C4_4 
REMARK    3  A    between atoms: C3_3  and  N2_15 
REMARK       I    between atoms: C4_4  and  N1_6 
REMARK    4  A    between atoms: C7_9  and  C8_10 
REMARK    5  A    between atoms: C8_10  and  O2_11 
REMARK    6  A    between atoms: C14_19  and  O3_20 
REMARK    7  A    between atoms: C14_19  and  C15_22 
ROOT
HETATM    1  C3  UNL     1      -5.050   2.880  14.830  1.00  0.00     0.314 C 
ENDROOT
BRANCH   1   2
HETATM    2  C2  UNL     1      -4.656   1.917  15.918  1.00  0.00     0.041 C 
HETATM    3  C1  UNL     1      -5.578   1.993  17.115  1.00  0.00     0.007 C 
ENDBRANCH   1   2
BRANCH   1   4
HETATM    4  C4  UNL     1      -4.220   4.104  14.889  1.00  0.00     0.253 C 
HETATM    5  O1  UNL     1      -3.005   3.879  15.259  1.00  0.00    -0.271 OA
HETATM    6  N1  UNL     1      -4.551   5.419  14.606  1.00  0.00    -0.350 N 
HETATM    7  C5  UNL     1      -5.800   5.960  14.137  1.00  0.00     0.126 C 
HETATM    8  C10 UNL     1      -3.503   6.445  14.790  1.00  0.00     0.126 C 
HETATM    9  C6  UNL     1      -6.305   7.088  15.051  1.00  0.00     0.027 C 
HETATM   10  C7  UNL     1      -5.272   8.146  15.281  1.00  0.00     0.012 C 
HETATM   11  C9  UNL     1      -3.944   7.568  15.669  1.00  0.00     0.027 C 
BRANCH  10  12
HETATM   12  C8  UNL     1      -5.146   9.094  14.118  1.00  0.00     0.168 C 
BRANCH  12  13
HETATM   13  O2  UNL     1      -4.033   9.922  14.245  1.00  0.00    -0.400 OA
ATOM     14  H2  UNL     1      -3.942  10.258  15.128  1.00  0.00     0.209 HD
ENDBRANCH  12  13
ENDBRANCH  10  12
ENDBRANCH   1   4
BRANCH   1  15
HETATM   15  N2  UNL     1      -5.009   2.200  13.556  1.00  0.00     0.105 N 
HETATM   16  C11 UNL     1      -4.346   3.029  12.580  1.00  0.00     0.273 C 
HETATM   17  C12 UNL     1      -4.598   2.532  11.160  1.00  0.00     0.033 C 
HETATM   18  C13 UNL     1      -4.840   1.065  11.216  1.00  0.00     0.047 C 
HETATM   19  C14 UNL     1      -3.952   0.464  12.283  1.00  0.00     0.143 C 
HETATM   20  C16 UNL     1      -4.154   1.006  13.646  1.00  0.00     0.316 C 
BRANCH  19  21
HETATM   21  O3  UNL     1      -2.638   0.753  11.891  1.00  0.00    -0.382 OA
ATOM     22  H3  UNL     1      -2.088   0.128  12.349  1.00  0.00     0.210 HD
ENDBRANCH  19  21
BRANCH  19  23
HETATM   23  C15 UNL     1      -4.089  -1.040  12.166  1.00  0.00     0.388 C 
HETATM   24  F1  UNL     1      -5.074  -1.329  11.210  1.00  0.00    -0.211 F 
HETATM   25  F2  UNL     1      -2.934  -1.651  11.721  1.00  0.00    -0.211 F 
ENDBRANCH  19  23
ENDBRANCH   1  15
TORSDOF 7
ENDMDL
MODEL 3
REMARK VINA RESULT: -6.868967755      2.815      4.687
REMARK  7 active torsions:
REMARK  status: ('A' for Active; 'I' for Inactive)
REMARK    1  A    between atoms: C2_2  and  C3_3 
REMARK    2  A    between atoms: C3_3  and  C4_4 
REMARK    3  A    between atoms: C3_3  and  N2_15 
REMARK       I    between atoms: C4_4  and  N1_6 
REMARK    4  A    between atoms: C7_9  and  C8_10 
REMARK    5  A    between atoms: C8_10  and  O2_11 
REMARK    6  A    between atoms: C14_19  and  O3_20 
REMARK    7  A    between atoms: C14_19  and  C15_22 
ROOT
HETATM    1  C3  UNL     1      -4.665   2.804  14.152  1.00  0.00     0.314 C 
ENDROOT
BRANCH   1   2
HETATM    2  C2  UNL     1      -4.992   1.988  15.374  1.00  0.00     0.041 C 
HETATM    3  C1  UNL     1      -6.125   2.586  16.179  1.00  0.00     0.007 C 
ENDBRANCH   1   2
BRANCH   1   4
HETATM    4  C4  UNL     1      -4.006   4.075  14.532  1.00  0.00     0.253 C 
HETATM    5  O1  UNL     1      -2.913   3.905  15.195  1.00  0.00    -0.271 OA
HETATM    6  N1  UNL     1      -4.384   5.384  14.279  1.00  0.00    -0.350 N 
HETATM    7  C5  UNL     1      -5.516   5.875  13.538  1.00  0.00     0.126 C 
HETATM    8  C10 UNL     1      -3.529   6.461  14.821  1.00  0.00     0.126 C 
HETATM    9  C6  UNL     1      -6.353   6.857  14.372  1.00  0.00     0.027 C 
HETATM   10  C7  UNL     1      -5.528   7.961  14.956  1.00  0.00     0.012 C 
HETATM   11  C9  UNL     1      -4.294   7.447  15.638  1.00  0.00     0.027 C 
BRANCH  10  12
HETATM   12  C8  UNL     1      -5.201   9.034  13.952  1.00  0.00     0.168 C 
BRANCH  12  13
HETATM   13  O2  UNL     1      -4.176   9.865  14.399  1.00  0.00    -0.400 OA
ATOM     14  H2  UNL     1      -3.319   9.504  14.205  1.00  0.00     0.209 HD
ENDBRANCH  12  13
ENDBRANCH  10  12
ENDBRANCH   1   4
BRANCH   1  15
HETATM   15  N2  UNL     1      -3.899   1.995  13.232  1.00  0.00     0.105 N 
HETATM   16  C11 UNL     1      -4.711   0.910  12.741  1.00  0.00     0.273 C 
HETATM   17  C12 UNL     1      -3.861  -0.166  12.071  1.00  0.00     0.033 C 
HETATM   18  C13 UNL     1      -2.634   0.479  11.531  1.00  0.00     0.047 C 
HETATM   19  C14 UNL     1      -2.992   1.856  11.016  1.00  0.00     0.143 C 
HETATM   20  C16 UNL     1      -3.574   2.771  12.025  1.00  0.00     0.316 C 
BRANCH  19  21
HETATM   21  O3  UNL     1      -3.948   1.650  10.013  1.00  0.00    -0.382 OA
ATOM     22  H3  UNL     1      -4.375   2.490   9.888  1.00  0.00     0.210 HD
ENDBRANCH  19  21
BRANCH  19  23
HETATM   23  C15 UNL     1      -1.765   2.387  10.305  1.00  0.00     0.388 C 
HETATM   24  F1  UNL     1      -0.698   2.423  11.217  1.00  0.00    -0.211 F 
HETATM   25  F2  UNL     1      -1.353   1.575   9.268  1.00  0.00    -0.211 F 
ENDBRANCH  19  23
ENDBRANCH   1  15
TORSDOF 7
ENDMDL
MODEL 4
REMARK VINA RESULT: -6.855394799      2.612      5.992
REMARK  7 active torsions:
REMARK  status: ('A' for Active; 'I' for Inactive)
REMARK    1  A    between atoms: C2_2  and  C3_3 
REMARK    2  A    between atoms: C3_3  and  C4_4 
REMARK    3  A    between atoms: C3_3  and  N2_15 
REMARK       I    between atoms: C4_4  and  N1_6 
REMARK    4  A    between atoms: C7_9  and  C8_10 
REMARK    5  A    between atoms: C8_10  and  O2_11 
REMARK    6  A    between atoms: C14_19  and  O3_20 
REMARK    7  A    between atoms: C14_19  and  C15_22 
ROOT
HETATM    1  C3  UNL     1      -4.979   2.216  15.694  1.00  0.00     0.314 C 
ENDROOT
BRANCH   1   2
HETATM    2  C2  UNL     1      -6.260   2.083  16.473  1.00  0.00     0.041 C 
HETATM    3  C1  UNL     1      -6.014   1.818  17.942  1.00  0.00     0.007 C 
ENDBRANCH   1   2
BRANCH   1   4
HETATM    4  C4  UNL     1      -4.729   1.001  14.885  1.00  0.00     0.253 C 
HETATM    5  O1  UNL     1      -4.704  -0.082  15.586  1.00  0.00    -0.271 OA
HETATM    6  N1  UNL     1      -4.529   0.865  13.521  1.00  0.00    -0.350 N 
HETATM    7  C5  UNL     1      -4.544   1.875  12.496  1.00  0.00     0.126 C 
HETATM    8  C10 UNL     1      -4.268  -0.493  12.999  1.00  0.00     0.126 C 
HETATM    9  C6  UNL     1      -3.250   1.857  11.667  1.00  0.00     0.027 C 
HETATM   10  C7  UNL     1      -2.933   0.498  11.128  1.00  0.00     0.012 C 
HETATM   11  C9  UNL     1      -3.021  -0.565  12.182  1.00  0.00     0.027 C 
BRANCH  10  12
HETATM   12  C8  UNL     1      -3.757   0.149   9.917  1.00  0.00     0.168 C 
BRANCH  12  13
HETATM   13  O2  UNL     1      -4.686   1.144   9.620  1.00  0.00    -0.400 OA
ATOM     14  H2  UNL     1      -5.438   0.796   9.155  1.00  0.00     0.209 HD
ENDBRANCH  12  13
ENDBRANCH  10  12
ENDBRANCH   1   4
BRANCH   1  15
HETATM   15  N2  UNL     1      -5.016   3.439  14.925  1.00  0.00     0.105 N 
HETATM   16  C11 UNL     1      -6.025   4.321  15.456  1.00  0.00     0.273 C 
HETATM   17  C12 UNL     1      -6.356   5.445  14.478  1.00  0.00     0.033 C 
HETATM   18  C13 UNL     1      -5.156   5.701  13.639  1.00  0.00     0.047 C 
HETATM   19  C14 UNL     1      -3.918   5.526  14.491  1.00  0.00     0.143 C 
HETATM   20  C16 UNL     1      -3.761   4.187  15.102  1.00  0.00     0.316 C 
BRANCH  19  21
HETATM   21  O3  UNL     1      -4.032   6.465  15.524  1.00  0.00    -0.382 OA
ATOM     22  H3  UNL     1      -3.168   6.525  15.915  1.00  0.00     0.210 HD
ENDBRANCH  19  21
BRANCH  19  23
HETATM   23  C15 UNL     1      -2.744   5.987  13.651  1.00  0.00     0.388 C 
HETATM   24  F1  UNL     1      -1.559   5.738  14.361  1.00  0.00    -0.211 F 
HETATM   25  F2  UNL     1      -2.630   5.294  12.463  1.00  0.00    -0.211 F 
ENDBRANCH  19  23
ENDBRANCH   1  15
TORSDOF 7
ENDMDL
MODEL 5
REMARK VINA RESULT: -6.853583138      1.965      2.356
REMARK  7 active torsions:
REMARK  status: ('A' for Active; 'I' for Inactive)
REMARK    1  A    between atoms: C2_2  and  C3_3 
REMARK    2  A    between atoms: C3_3  and  C4_4 
REMARK    3  A    between atoms: C3_3  and  N2_15 
REMARK       I    between atoms: C4_4  and  N1_6 
REMARK    4  A    between atoms: C7_9  and  C8_10 
REMARK    5  A    between atoms: C8_10  and  O2_11 
REMARK    6  A    between atoms: C14_19  and  O3_20 
REMARK    7  A    between atoms: C14_19  and  C15_22 
ROOT
HETATM    1  C3  UNL     1      -3.888   5.204  14.111  1.00  0.00     0.314 C 
ENDROOT
BRANCH   1   2
HETATM    2  C2  UNL     1      -3.807   6.688  13.872  1.00  0.00     0.041 C 
HETATM    3  C1  UNL     1      -2.710   7.343  14.683  1.00  0.00     0.007 C 
ENDBRANCH   1   2
BRANCH   1   4
HETATM    4  C4  UNL     1      -5.107   4.862  14.878  1.00  0.00     0.253 C 
HETATM    5  O1  UNL     1      -5.910   5.860  15.031  1.00  0.00    -0.271 OA
HETATM    6  N1  UNL     1      -5.500   3.656  15.436  1.00  0.00    -0.350 N 
HETATM    7  C5  UNL     1      -4.839   2.378  15.392  1.00  0.00     0.126 C 
HETATM    8  C10 UNL     1      -6.773   3.629  16.184  1.00  0.00     0.126 C 
HETATM    9  C6  UNL     1      -4.623   1.806  16.801  1.00  0.00     0.027 C 
HETATM   10  C7  UNL     1      -5.885   1.772  17.606  1.00  0.00     0.012 C 
HETATM   11  C9  UNL     1      -6.621   3.078  17.562  1.00  0.00     0.027 C 
BRANCH  10  12
HETATM   12  C8  UNL     1      -6.777   0.618  17.234  1.00  0.00     0.168 C 
BRANCH  12  13
HETATM   13  O2  UNL     1      -6.043  -0.498  16.840  1.00  0.00    -0.400 OA
ATOM     14  H2  UNL     1      -6.594  -1.264  16.735  1.00  0.00     0.209 HD
ENDBRANCH  12  13
ENDBRANCH  10  12
ENDBRANCH   1   4
BRANCH   1  15
HETATM   15  N2  UNL     1      -3.773   4.513  12.847  1.00  0.00     0.105 N 
HETATM   16  C11 UNL     1      -3.906   5.452  11.761  1.00  0.00     0.273 C 
HETATM   17  C12 UNL     1      -4.160   4.742  10.435  1.00  0.00     0.033 C 
HETATM   18  C13 UNL     1      -3.550   3.387  10.508  1.00  0.00     0.047 C 
HETATM   19  C14 UNL     1      -2.265   3.473  11.300  1.00  0.00     0.143 C 
HETATM   20  C16 UNL     1      -2.414   3.973  12.686  1.00  0.00     0.316 C 
BRANCH  19  21
HETATM   21  O3  UNL     1      -1.445   4.369  10.601  1.00  0.00    -0.382 OA
ATOM     22  H3  UNL     1      -0.905   3.833  10.032  1.00  0.00     0.210 HD
ENDBRANCH  19  21
BRANCH  19  23
HETATM   23  C15 UNL     1      -1.588   2.123  11.178  1.00  0.00     0.388 C 
HETATM   24  F1  UNL     1      -2.355   1.171  11.868  1.00  0.00    -0.211 F 
HETATM   25  F2  UNL     1      -1.511   1.678   9.873  1.00  0.00    -0.211 F 
ENDBRANCH  19  23
ENDBRANCH   1  15
TORSDOF 7
ENDMDL
