MODEL 1
REMARK VINA RESULT: -6.790275822      0.000      0.000
REMARK  5 active torsions:
REMARK  status: ('A' for Active; 'I' for Inactive)
REMARK    1  A    between atoms: C12_14  and  O3_15 
REMARK    2  A    between atoms: C12_14  and  C13_17 
REMARK    3  A    between atoms: C13_17  and  C14_18 
REMARK    4  A    between atoms: C14_18  and  C15_19 
REMARK    5  A    between atoms: N1_20  and  N2_22 
ROOT
HETATM    1  C1  UNL     1      -5.606   3.491  13.818  1.00  0.00     0.047 C 
HETATM    2  C2  UNL     1      -4.107   3.148  13.788  1.00  0.00     0.068 C 
HETATM    3  C3  UNL     1      -3.585   3.599  15.168  1.00  0.00     0.047 C 
HETATM    4  O1  UNL     1      -4.020   1.761  13.790  1.00  0.00    -0.310 OA
HETATM    5  C4  UNL     1      -4.342   0.883  12.787  1.00  0.00     0.259 C 
HETATM    6  O2  UNL     1      -4.564  -0.295  13.198  1.00  0.00    -0.265 OA
HETATM    7  C5  UNL     1      -4.484   1.019  11.332  1.00  0.00     0.112 C 
HETATM    8  C6  UNL     1      -4.383   2.459  10.866  1.00  0.00     0.022 C 
HETATM    9  C7  UNL     1      -3.224   3.183  11.401  1.00  0.00    -0.006 C 
HETATM   10  C8  UNL     1      -2.053   2.192  11.545  1.00  0.00     0.019 C 
HETATM   11  C9  UNL     1      -3.464   3.892  12.713  1.00  0.00     0.031 C 
HETATM   12  C10 UNL     1      -2.104   4.446  12.997  1.00  0.00     0.011 C 
HETATM   13  C11 UNL     1      -1.677   4.956  11.639  1.00  0.00     0.039 C 
HETATM   14  C12 UNL     1      -2.670   4.321  10.619  1.00  0.00     0.066 C 
ENDROOT
BRANCH  14  15
HETATM   15  O3  UNL     1      -1.812   3.852   9.590  1.00  0.00    -0.389 OA
ATOM     16  H3  UNL     1      -2.281   3.780   8.767  1.00  0.00     0.210 HD
ENDBRANCH  14  15
BRANCH  14  17
HETATM   17  C13 UNL     1      -3.502   5.399  10.107  1.00  0.00     0.043 C 
BRANCH  17  18
HETATM   18  C14 UNL     1      -3.304   5.943   8.743  1.00  0.00     0.049 C 
BRANCH  18  19
HETATM   19  C15 UNL     1      -4.577   6.449   8.146  1.00  0.00     0.081 C 
HETATM   20  N1  UNL     1      -5.274   5.665   7.428  1.00  0.00    -0.302 N 
ATOM     21  H1  UNL     1      -4.922   4.717   7.295  1.00  0.00     0.187 HD
BRANCH  20  22
HETATM   22  N2  UNL     1      -6.469   5.989   6.811  1.00  0.00    -0.250 N 
HETATM   23  N3  UNL     1      -7.489   6.172   7.536  1.00  0.00    -0.331 N 
ATOM     24  H32 UNL     1      -7.416   6.080   8.548  1.00  0.00     0.178 HD
ATOM     25  H31 UNL     1      -8.371   6.412   7.081  1.00  0.00     0.178 HD
ATOM     26  H2  UNL     1      -6.526   6.078   5.796  1.00  0.00     0.207 HD
ENDBRANCH  20  22
ENDBRANCH  18  19
ENDBRANCH  17  18
ENDBRANCH  14  17
TORSDOF 5
ENDMDL
MODEL 2
REMARK VINA RESULT: -6.634914954      4.127      5.845
REMARK  5 active torsions:
REMARK  status: ('A' for Active; 'I' for Inactive)
REMARK    1  A    between atoms: C12_14  and  O3_15 
REMARK    2  A    between atoms: C12_14  and  C13_17 
REMARK    3  A    between atoms: C13_17  and  C14_18 
REMARK    4  A    between atoms: C14_18  and  C15_19 
REMARK    5  A    between atoms: N1_20  and  N2_22 
ROOT
HETATM    1  C1  UNL     1      -2.032   4.636  14.772  1.00  0.00     0.047 C 
HETATM    2  C2  UNL     1      -2.679   5.084  13.450  1.00  0.00     0.068 C 
HETATM    3  C3  UNL     1      -3.862   5.972  13.885  1.00  0.00     0.047 C 
HETATM    4  O1  UNL     1      -1.771   5.942  12.839  1.00  0.00    -0.310 OA
HETATM    5  C4  UNL     1      -0.564   5.640  12.263  1.00  0.00     0.259 C 
HETATM    6  O2  UNL     1       0.216   6.633  12.173  1.00  0.00    -0.265 OA
HETATM    7  C5  UNL     1       0.017   4.404  11.724  1.00  0.00     0.112 C 
HETATM    8  C6  UNL     1      -0.851   3.187  11.984  1.00  0.00     0.022 C 
HETATM    9  C7  UNL     1      -2.261   3.366  11.619  1.00  0.00    -0.006 C 
HETATM   10  C8  UNL     1      -2.333   4.284  10.384  1.00  0.00     0.019 C 
HETATM   11  C9  UNL     1      -3.141   3.911  12.719  1.00  0.00     0.031 C 
HETATM   12  C10 UNL     1      -4.451   4.035  12.008  1.00  0.00     0.011 C 
HETATM   13  C11 UNL     1      -4.508   2.747  11.218  1.00  0.00     0.039 C 
HETATM   14  C12 UNL     1      -3.062   2.166  11.253  1.00  0.00     0.066 C 
ENDROOT
BRANCH  14  15
HETATM   15  O3  UNL     1      -2.832   1.804   9.900  1.00  0.00    -0.389 OA
ATOM     16  H3  UNL     1      -3.654   1.638   9.452  1.00  0.00     0.210 HD
ENDBRANCH  14  15
BRANCH  14  17
HETATM   17  C13 UNL     1      -3.103   0.969  12.079  1.00  0.00     0.043 C 
BRANCH  17  18
HETATM   18  C14 UNL     1      -4.316   0.123  12.146  1.00  0.00     0.049 C 
BRANCH  18  19
HETATM   19  C15 UNL     1      -4.048  -1.284  11.718  1.00  0.00     0.081 C 
HETATM   20  N1  UNL     1      -2.845  -1.692  11.666  1.00  0.00    -0.302 N 
ATOM     21  H1  UNL     1      -2.115  -1.027  11.924  1.00  0.00     0.187 HD
BRANCH  20  22
HETATM   22  N2  UNL     1      -2.442  -2.961  11.290  1.00  0.00    -0.250 N 
HETATM   23  N3  UNL     1      -3.228  -3.929  11.501  1.00  0.00    -0.331 N 
ATOM     24  H32 UNL     1      -4.133  -3.761  11.939  1.00  0.00     0.178 HD
ATOM     25  H31 UNL     1      -2.930  -4.864  11.224  1.00  0.00     0.178 HD
ATOM     26  H2  UNL     1      -1.532  -3.112  10.853  1.00  0.00     0.207 HD
ENDBRANCH  20  22
ENDBRANCH  18  19
ENDBRANCH  17  18
ENDBRANCH  14  17
TORSDOF 5
ENDMDL
MODEL 3
REMARK VINA RESULT: -6.634166044      4.164      5.880
REMARK  5 active torsions:
REMARK  status: ('A' for Active; 'I' for Inactive)
REMARK    1  A    between atoms: C12_14  and  O3_15 
REMARK    2  A    between atoms: C12_14  and  C13_17 
REMARK    3  A    between atoms: C13_17  and  C14_18 
REMARK    4  A    between atoms: C14_18  and  C15_19 
REMARK    5  A    between atoms: N1_20  and  N2_22 
ROOT
HETATM    1  C1  UNL     1      -1.745   4.599  14.314  1.00  0.00     0.047 C 
HETATM    2  C2  UNL     1      -3.073   4.960  13.626  1.00  0.00     0.068 C 
HETATM    3  C3  UNL     1      -3.994   5.399  14.782  1.00  0.00     0.047 C 
HETATM    4  O1  UNL     1      -2.831   6.110  12.884  1.00  0.00    -0.310 OA
HETATM    5  C4  UNL     1      -2.086   6.248  11.740  1.00  0.00     0.259 C 
HETATM    6  O2  UNL     1      -1.698   7.435  11.530  1.00  0.00    -0.265 OA
HETATM    7  C5  UNL     1      -1.643   5.308  10.704  1.00  0.00     0.112 C 
HETATM    8  C6  UNL     1      -1.965   3.865  11.045  1.00  0.00     0.022 C 
HETATM    9  C7  UNL     1      -3.353   3.644  11.466  1.00  0.00    -0.006 C 
HETATM   10  C8  UNL     1      -4.261   4.616  10.688  1.00  0.00     0.019 C 
HETATM   11  C9  UNL     1      -3.601   3.782  12.949  1.00  0.00     0.031 C 
HETATM   12  C10 UNL     1      -5.080   3.573  13.018  1.00  0.00     0.011 C 
HETATM   13  C11 UNL     1      -5.284   2.416  12.067  1.00  0.00     0.039 C 
HETATM   14  C12 UNL     1      -3.959   2.301  11.253  1.00  0.00     0.066 C 
ENDROOT
BRANCH  14  15
HETATM   15  O3  UNL     1      -4.417   2.164   9.917  1.00  0.00    -0.389 OA
ATOM     16  H3  UNL     1      -5.350   2.337   9.863  1.00  0.00     0.210 HD
ENDBRANCH  14  15
BRANCH  14  17
HETATM   17  C13 UNL     1      -3.305   1.071  11.675  1.00  0.00     0.043 C 
BRANCH  17  18
HETATM   18  C14 UNL     1      -4.035   0.038  12.445  1.00  0.00     0.049 C 
BRANCH  18  19
HETATM   19  C15 UNL     1      -3.902  -1.321  11.835  1.00  0.00     0.081 C 
HETATM   20  N1  UNL     1      -2.748  -1.850  11.758  1.00  0.00    -0.302 N 
ATOM     21  H1  UNL     1      -1.962  -1.311  12.123  1.00  0.00     0.187 HD
BRANCH  20  22
HETATM   22  N2  UNL     1      -2.469  -3.094  11.222  1.00  0.00    -0.250 N 
HETATM   23  N3  UNL     1      -3.227  -4.061  11.521  1.00  0.00    -0.331 N 
ATOM     24  H32 UNL     1      -4.021  -3.911  12.142  1.00  0.00     0.178 HD
ATOM     25  H31 UNL     1      -3.021  -4.979  11.125  1.00  0.00     0.178 HD
ATOM     26  H2  UNL     1      -1.671  -3.228  10.602  1.00  0.00     0.207 HD
ENDBRANCH  20  22
ENDBRANCH  18  19
ENDBRANCH  17  18
ENDBRANCH  14  17
TORSDOF 5
ENDMDL
MODEL 4
REMARK VINA RESULT: -6.612605935      4.225      5.770
REMARK  5 active torsions:
REMARK  status: ('A' for Active; 'I' for Inactive)
REMARK    1  A    between atoms: C12_14  and  O3_15 
REMARK    2  A    between atoms: C12_14  and  C13_17 
REMARK    3  A    between atoms: C13_17  and  C14_18 
REMARK    4  A    between atoms: C14_18  and  C15_19 
REMARK    5  A    between atoms: N1_20  and  N2_22 
ROOT
HETATM    1  C1  UNL     1      -5.693   5.703  13.857  1.00  0.00     0.047 C 
HETATM    2  C2  UNL     1      -4.655   5.777  12.724  1.00  0.00     0.068 C 
HETATM    3  C3  UNL     1      -5.332   6.642  11.642  1.00  0.00     0.047 C 
HETATM    4  O1  UNL     1      -3.599   6.541  13.207  1.00  0.00    -0.310 OA
HETATM    5  C4  UNL     1      -2.676   6.214  14.168  1.00  0.00     0.259 C 
HETATM    6  O2  UNL     1      -2.115   7.220  14.695  1.00  0.00    -0.265 OA
HETATM    7  C5  UNL     1      -2.196   4.938  14.714  1.00  0.00     0.112 C 
HETATM    8  C6  UNL     1      -2.985   3.748  14.203  1.00  0.00     0.022 C 
HETATM    9  C7  UNL     1      -3.154   3.721  12.745  1.00  0.00    -0.006 C 
HETATM   10  C8  UNL     1      -1.891   4.319  12.096  1.00  0.00     0.019 C 
HETATM   11  C9  UNL     1      -4.383   4.433  12.231  1.00  0.00     0.031 C 
HETATM   12  C10 UNL     1      -4.211   4.280  10.753  1.00  0.00     0.011 C 
HETATM   13  C11 UNL     1      -3.754   2.845  10.632  1.00  0.00     0.039 C 
HETATM   14  C12 UNL     1      -3.347   2.408  12.072  1.00  0.00     0.066 C 
ENDROOT
BRANCH  14  15
HETATM   15  O3  UNL     1      -2.100   1.761  11.868  1.00  0.00    -0.389 OA
ATOM     16  H3  UNL     1      -1.396   2.250  12.280  1.00  0.00     0.210 HD
ENDBRANCH  14  15
BRANCH  14  17
HETATM   17  C13 UNL     1      -4.334   1.436  12.519  1.00  0.00     0.043 C 
BRANCH  17  18
HETATM   18  C14 UNL     1      -4.775   0.330  11.639  1.00  0.00     0.049 C 
BRANCH  18  19
HETATM   19  C15 UNL     1      -4.175  -0.981  12.037  1.00  0.00     0.081 C 
HETATM   20  N1  UNL     1      -3.143  -1.397  11.423  1.00  0.00    -0.302 N 
ATOM     21  H1  UNL     1      -2.772  -0.804  10.680  1.00  0.00     0.187 HD
BRANCH  20  22
HETATM   22  N2  UNL     1      -2.480  -2.583  11.677  1.00  0.00    -0.250 N 
HETATM   23  N3  UNL     1      -3.082  -3.671  11.443  1.00  0.00    -0.331 N 
ATOM     24  H32 UNL     1      -4.033  -3.656  11.075  1.00  0.00     0.178 HD
ATOM     25  H31 UNL     1      -2.593  -4.546  11.630  1.00  0.00     0.178 HD
ATOM     26  H2  UNL     1      -1.528  -2.582  12.044  1.00  0.00     0.207 HD
ENDBRANCH  20  22
ENDBRANCH  18  19
ENDBRANCH  17  18
ENDBRANCH  14  17
TORSDOF 5
ENDMDL
MODEL 5
REMARK VINA RESULT: -6.505063975      4.080      5.533
REMARK  5 active torsions:
REMARK  status: ('A' for Active; 'I' for Inactive)
REMARK    1  A    between atoms: C12_14  and  O3_15 
REMARK    2  A    between atoms: C12_14  and  C13_17 
REMARK    3  A    between atoms: C13_17  and  C14_18 
REMARK    4  A    between atoms: C14_18  and  C15_19 
REMARK    5  A    between atoms: N1_20  and  N2_22 
ROOT
HETATM    1  C1  UNL     1      -3.764   3.193  15.490  1.00  0.00     0.047 C 
HETATM    2  C2  UNL     1      -4.524   3.865  14.334  1.00  0.00     0.068 C 
HETATM    3  C3  UNL     1      -6.001   3.499  14.585  1.00  0.00     0.047 C 
HETATM    4  O1  UNL     1      -4.437   5.236  14.550  1.00  0.00    -0.310 OA
HETATM    5  C4  UNL     1      -3.340   6.051  14.435  1.00  0.00     0.259 C 
HETATM    6  O2  UNL     1      -3.444   7.134  15.082  1.00  0.00    -0.265 OA
HETATM    7  C5  UNL     1      -2.065   5.934  13.715  1.00  0.00     0.112 C 
HETATM    8  C6  UNL     1      -1.874   4.570  13.080  1.00  0.00     0.022 C 
HETATM    9  C7  UNL     1      -3.024   4.108  12.292  1.00  0.00    -0.006 C 
HETATM   10  C8  UNL     1      -3.686   5.332  11.631  1.00  0.00     0.019 C 
HETATM   11  C9  UNL     1      -4.054   3.321  13.067  1.00  0.00     0.031 C 
HETATM   12  C10 UNL     1      -5.088   3.079  12.013  1.00  0.00     0.011 C 
HETATM   13  C11 UNL     1      -4.242   2.723  10.812  1.00  0.00     0.039 C 
HETATM   14  C12 UNL     1      -2.788   3.151  11.178  1.00  0.00     0.066 C 
ENDROOT
BRANCH  14  15
HETATM   15  O3  UNL     1      -2.355   3.835  10.012  1.00  0.00    -0.389 OA
ATOM     16  H3  UNL     1      -1.915   3.239   9.416  1.00  0.00     0.210 HD
ENDBRANCH  14  15
BRANCH  14  17
HETATM   17  C13 UNL     1      -2.014   1.930  11.344  1.00  0.00     0.043 C 
BRANCH  17  18
HETATM   18  C14 UNL     1      -2.398   0.676  10.655  1.00  0.00     0.049 C 
BRANCH  18  19
HETATM   19  C15 UNL     1      -2.585  -0.459  11.610  1.00  0.00     0.081 C 
HETATM   20  N1  UNL     1      -2.959  -1.587  11.159  1.00  0.00    -0.302 N 
ATOM     21  H1  UNL     1      -3.114  -1.659  10.153  1.00  0.00     0.187 HD
BRANCH  20  22
HETATM   22  N2  UNL     1      -3.174  -2.724  11.916  1.00  0.00    -0.250 N 
HETATM   23  N3  UNL     1      -2.810  -3.839  11.443  1.00  0.00    -0.331 N 
ATOM     24  H32 UNL     1      -2.370  -3.881  10.524  1.00  0.00     0.178 HD
ATOM     25  H31 UNL     1      -2.968  -4.678  12.002  1.00  0.00     0.178 HD
ATOM     26  H2  UNL     1      -3.616  -2.665  12.834  1.00  0.00     0.207 HD
ENDBRANCH  20  22
ENDBRANCH  18  19
ENDBRANCH  17  18
ENDBRANCH  14  17
TORSDOF 5
ENDMDL
