MODEL 1
REMARK VINA RESULT: -6.854609756      0.000      0.000
REMARK  5 active torsions:
REMARK  status: ('A' for Active; 'I' for Inactive)
REMARK    1  A    between atoms: C2_2  and  C3_3 
REMARK    2  A    between atoms: C3_3  and  C4_4 
REMARK    3  A    between atoms: C4_4  and  N1_5 
REMARK    4  A    between atoms: C8_9  and  N2_10 
REMARK    5  A    between atoms: C16_21  and  O1_22 
ROOT
HETATM    1  N1  UNL     1      -5.005   2.483  14.427  1.00  0.00     0.091 N 
HETATM    2  C5  UNL     1      -4.309   3.725  14.407  1.00  0.00     0.273 C 
HETATM    3  C6  UNL     1      -3.243   3.841  13.347  1.00  0.00     0.040 C 
HETATM    4  C7  UNL     1      -3.754   3.360  12.017  1.00  0.00     0.057 C 
HETATM    5  C8  UNL     1      -2.645   3.024  11.032  1.00  0.00     0.234 C 
HETATM    6  C13 UNL     1      -2.405   1.610  11.419  1.00  0.00     0.027 A 
HETATM    7  C14 UNL     1      -2.812   0.350  10.969  1.00  0.00     0.015 A 
HETATM    8  C15 UNL     1      -3.910   1.216  11.109  1.00  0.00     0.029 A 
HETATM    9  C16 UNL     1      -4.480   2.008  12.200  1.00  0.00     0.094 C 
HETATM   10  C17 UNL     1      -4.403   1.476  13.571  1.00  0.00     0.310 C 
ENDROOT
BRANCH   5  11
HETATM   11  N2  UNL     1      -1.570   3.916  11.181  1.00  0.00     0.097 N 
HETATM   12  C9  UNL     1      -1.319   4.631   9.956  1.00  0.00     0.300 C 
HETATM   13  C10 UNL     1      -0.225   3.854   9.217  1.00  0.00     0.262 C 
HETATM   14  N3  UNL     1       1.028   4.159   9.851  1.00  0.00    -0.072 N 
HETATM   15  C11 UNL     1       0.809   4.292  11.274  1.00  0.00     0.262 C 
ATOM     16  H32 UNL     1       1.754   3.477   9.630  1.00  0.00     0.277 HD
ATOM     17  H31 UNL     1       1.479   4.981   9.447  1.00  0.00     0.277 HD
HETATM   18  C12 UNL     1      -0.358   3.410  11.738  1.00  0.00     0.300 C 
ENDBRANCH   5  11
BRANCH   9  19
HETATM   19  O1  UNL     1      -5.840   2.284  11.952  1.00  0.00    -0.387 OA
ATOM     20  H1  UNL     1      -6.158   1.537  11.458  1.00  0.00     0.210 HD
ENDBRANCH   9  19
BRANCH   1  21
HETATM   21  C4  UNL     1      -5.317   1.985  15.731  1.00  0.00     0.272 C 
BRANCH  21  22
HETATM   22  C3  UNL     1      -6.585   2.659  16.210  1.00  0.00     0.030 C 
BRANCH  22  23
HETATM   23  C2  UNL     1      -7.350   1.628  17.025  1.00  0.00    -0.003 C 
HETATM   24  C1  UNL     1      -6.319   0.784  17.774  1.00  0.00     0.005 C 
ENDBRANCH  22  23
ENDBRANCH  21  22
ENDBRANCH   1  21
TORSDOF 5
ENDMDL
MODEL 2
REMARK VINA RESULT: -6.437896821      0.999      1.110
REMARK  5 active torsions:
REMARK  status: ('A' for Active; 'I' for Inactive)
REMARK    1  A    between atoms: C2_2  and  C3_3 
REMARK    2  A    between atoms: C3_3  and  C4_4 
REMARK    3  A    between atoms: C4_4  and  N1_5 
REMARK    4  A    between atoms: C8_9  and  N2_10 
REMARK    5  A    between atoms: C16_21  and  O1_22 
ROOT
HETATM    1  N1  UNL     1      -4.863   1.653  14.491  1.00  0.00     0.091 N 
HETATM    2  C5  UNL     1      -4.565   3.035  14.659  1.00  0.00     0.273 C 
HETATM    3  C6  UNL     1      -3.577   3.598  13.669  1.00  0.00     0.040 C 
HETATM    4  C7  UNL     1      -3.917   3.171  12.268  1.00  0.00     0.057 C 
HETATM    5  C8  UNL     1      -2.756   3.309  11.297  1.00  0.00     0.234 C 
HETATM    6  C13 UNL     1      -2.109   1.989  11.512  1.00  0.00     0.027 A 
HETATM    7  C14 UNL     1      -2.124   0.737  10.889  1.00  0.00     0.015 A 
HETATM    8  C15 UNL     1      -3.430   1.218  11.089  1.00  0.00     0.029 A 
HETATM    9  C16 UNL     1      -4.213   1.655  12.247  1.00  0.00     0.094 C 
HETATM   10  C17 UNL     1      -3.988   0.990  13.541  1.00  0.00     0.310 C 
ENDROOT
BRANCH   5  11
HETATM   11  N2  UNL     1      -1.992   4.448  11.605  1.00  0.00     0.097 N 
HETATM   12  C9  UNL     1      -2.216   5.496  10.641  1.00  0.00     0.300 C 
HETATM   13  C10 UNL     1      -1.108   5.363   9.592  1.00  0.00     0.262 C 
HETATM   14  N3  UNL     1       0.094   5.910  10.159  1.00  0.00    -0.072 N 
HETATM   15  C11 UNL     1       0.132   5.588  11.569  1.00  0.00     0.262 C 
ATOM     16  H32 UNL     1       0.933   5.603   9.667  1.00  0.00     0.277 HD
ATOM     17  H31 UNL     1       0.187   6.911   9.986  1.00  0.00     0.277 HD
HETATM   18  C12 UNL     1      -0.599   4.268  11.854  1.00  0.00     0.300 C 
ENDBRANCH   5  11
BRANCH   9  19
HETATM   19  O1  UNL     1      -5.593   1.553  11.977  1.00  0.00    -0.387 OA
ATOM     20  H1  UNL     1      -5.725   0.652  11.703  1.00  0.00     0.210 HD
ENDBRANCH   9  19
BRANCH   1  21
HETATM   21  C4  UNL     1      -5.019   0.915  15.706  1.00  0.00     0.272 C 
BRANCH  21  22
HETATM   22  C3  UNL     1      -5.075   1.896  16.858  1.00  0.00     0.030 C 
BRANCH  22  23
HETATM   23  C2  UNL     1      -6.019   1.306  17.893  1.00  0.00    -0.003 C 
HETATM   24  C1  UNL     1      -7.397   1.191  17.239  1.00  0.00     0.005 C 
ENDBRANCH  22  23
ENDBRANCH  21  22
ENDBRANCH   1  21
TORSDOF 5
ENDMDL
MODEL 3
REMARK VINA RESULT: -6.393952624      3.243      5.935
REMARK  5 active torsions:
REMARK  status: ('A' for Active; 'I' for Inactive)
REMARK    1  A    between atoms: C2_2  and  C3_3 
REMARK    2  A    between atoms: C3_3  and  C4_4 
REMARK    3  A    between atoms: C4_4  and  N1_5 
REMARK    4  A    between atoms: C8_9  and  N2_10 
REMARK    5  A    between atoms: C16_21  and  O1_22 
ROOT
HETATM    1  N1  UNL     1      -4.019   0.835  13.687  1.00  0.00     0.091 N 
HETATM    2  C5  UNL     1      -3.627   1.979  12.936  1.00  0.00     0.273 C 
HETATM    3  C6  UNL     1      -4.250   3.277  13.380  1.00  0.00     0.040 C 
HETATM    4  C7  UNL     1      -4.179   3.424  14.875  1.00  0.00     0.057 C 
HETATM    5  C8  UNL     1      -5.156   4.449  15.428  1.00  0.00     0.234 C 
HETATM    6  C13 UNL     1      -6.345   3.574  15.600  1.00  0.00     0.027 A 
HETATM    7  C14 UNL     1      -6.934   2.854  16.644  1.00  0.00     0.015 A 
HETATM    8  C15 UNL     1      -5.552   2.604  16.574  1.00  0.00     0.029 A 
HETATM    9  C16 UNL     1      -4.634   2.109  15.546  1.00  0.00     0.094 C 
HETATM   10  C17 UNL     1      -5.121   1.096  14.595  1.00  0.00     0.310 C 
ENDROOT
BRANCH   5  11
HETATM   11  N2  UNL     1      -5.286   5.531  14.540  1.00  0.00     0.097 N 
HETATM   12  C9  UNL     1      -4.372   6.591  14.882  1.00  0.00     0.300 C 
HETATM   13  C10 UNL     1      -5.153   7.568  15.767  1.00  0.00     0.262 C 
HETATM   14  N3  UNL     1      -6.003   8.347  14.909  1.00  0.00    -0.072 N 
HETATM   15  C11 UNL     1      -6.487   7.501  13.840  1.00  0.00     0.262 C 
ATOM     16  H32 UNL     1      -6.760   8.802  15.418  1.00  0.00     0.277 HD
ATOM     17  H31 UNL     1      -5.540   9.187  14.561  1.00  0.00     0.277 HD
HETATM   18  C12 UNL     1      -6.597   6.040  14.299  1.00  0.00     0.300 C 
ENDBRANCH   5  11
BRANCH   9  19
HETATM   19  O1  UNL     1      -3.471   1.577  16.139  1.00  0.00    -0.387 OA
ATOM     20  H1  UNL     1      -2.759   1.839  15.567  1.00  0.00     0.210 HD
ENDBRANCH   9  19
BRANCH   1  21
HETATM   21  C4  UNL     1      -4.206  -0.358  12.921  1.00  0.00     0.272 C 
BRANCH  21  22
HETATM   22  C3  UNL     1      -4.495   0.035  11.487  1.00  0.00     0.030 C 
BRANCH  22  23
HETATM   23  C2  UNL     1      -3.565  -0.789  10.611  1.00  0.00    -0.003 C 
HETATM   24  C1  UNL     1      -3.139  -2.013  11.422  1.00  0.00     0.005 C 
ENDBRANCH  22  23
ENDBRANCH  21  22
ENDBRANCH   1  21
TORSDOF 5
ENDMDL
MODEL 4
REMARK VINA RESULT: -6.274578001      0.935      1.012
REMARK  5 active torsions:
REMARK  status: ('A' for Active; 'I' for Inactive)
REMARK    1  A    between atoms: C2_2  and  C3_3 
REMARK    2  A    between atoms: C3_3  and  C4_4 
REMARK    3  A    between atoms: C4_4  and  N1_5 
REMARK    4  A    between atoms: C8_9  and  N2_10 
REMARK    5  A    between atoms: C16_21  and  O1_22 
ROOT
HETATM    1  N1  UNL     1      -5.482   3.676  13.434  1.00  0.00     0.091 N 
HETATM    2  C5  UNL     1      -4.778   4.879  13.142  1.00  0.00     0.273 C 
HETATM    3  C6  UNL     1      -3.496   4.696  12.371  1.00  0.00     0.040 C 
HETATM    4  C7  UNL     1      -3.695   3.761  11.211  1.00  0.00     0.057 C 
HETATM    5  C8  UNL     1      -2.397   3.181  10.673  1.00  0.00     0.234 C 
HETATM    6  C13 UNL     1      -2.276   2.001  11.567  1.00  0.00     0.027 A 
HETATM    7  C14 UNL     1      -2.590   0.640  11.500  1.00  0.00     0.015 A 
HETATM    8  C15 UNL     1      -3.676   1.431  11.086  1.00  0.00     0.029 A 
HETATM    9  C16 UNL     1      -4.467   2.509  11.683  1.00  0.00     0.094 C 
HETATM   10  C17 UNL     1      -4.717   2.479  13.134  1.00  0.00     0.310 C 
ENDROOT
BRANCH   5  11
HETATM   11  N2  UNL     1      -1.369   4.138  10.740  1.00  0.00     0.097 N 
HETATM   12  C9  UNL     1      -1.174   4.776   9.463  1.00  0.00     0.300 C 
HETATM   13  C10 UNL     1      -0.051   4.007   8.760  1.00  0.00     0.262 C 
HETATM   14  N3  UNL     1       1.193   4.423   9.348  1.00  0.00    -0.072 N 
HETATM   15  C11 UNL     1       0.988   4.645  10.762  1.00  0.00     0.262 C 
ATOM     16  H32 UNL     1       1.951   3.766   9.163  1.00  0.00     0.277 HD
ATOM     17  H31 UNL     1       1.592   5.237   8.880  1.00  0.00     0.277 HD
HETATM   18  C12 UNL     1      -0.123   3.737  11.309  1.00  0.00     0.300 C 
ENDBRANCH   5  11
BRANCH   9  19
HETATM   19  O1  UNL     1      -5.729   2.597  11.060  1.00  0.00    -0.387 OA
ATOM     20  H1  UNL     1      -6.360   2.512  11.765  1.00  0.00     0.210 HD
ENDBRANCH   9  19
BRANCH   1  21
HETATM   21  C4  UNL     1      -6.093   3.631  14.727  1.00  0.00     0.272 C 
BRANCH  21  22
HETATM   22  C3  UNL     1      -5.470   2.495  15.511  1.00  0.00     0.030 C 
BRANCH  22  23
HETATM   23  C2  UNL     1      -6.539   1.981  16.463  1.00  0.00    -0.003 C 
HETATM   24  C1  UNL     1      -5.917   0.847  17.277  1.00  0.00     0.005 C 
ENDBRANCH  22  23
ENDBRANCH  21  22
ENDBRANCH   1  21
TORSDOF 5
ENDMDL
MODEL 5
REMARK VINA RESULT: -6.274399690      3.202      6.139
REMARK  5 active torsions:
REMARK  status: ('A' for Active; 'I' for Inactive)
REMARK    1  A    between atoms: C2_2  and  C3_3 
REMARK    2  A    between atoms: C3_3  and  C4_4 
REMARK    3  A    between atoms: C4_4  and  N1_5 
REMARK    4  A    between atoms: C8_9  and  N2_10 
REMARK    5  A    between atoms: C16_21  and  O1_22 
ROOT
HETATM    1  N1  UNL     1      -3.513   2.421  12.787  1.00  0.00     0.091 N 
HETATM    2  C5  UNL     1      -3.409   3.687  12.142  1.00  0.00     0.273 C 
HETATM    3  C6  UNL     1      -4.335   4.750  12.675  1.00  0.00     0.040 C 
HETATM    4  C7  UNL     1      -4.310   4.781  14.178  1.00  0.00     0.057 C 
HETATM    5  C8  UNL     1      -5.513   5.485  14.787  1.00  0.00     0.234 C 
HETATM    6  C13 UNL     1      -6.451   4.334  14.854  1.00  0.00     0.027 A 
HETATM    7  C14 UNL     1      -6.852   3.405  15.819  1.00  0.00     0.015 A 
HETATM    8  C15 UNL     1      -5.451   3.507  15.766  1.00  0.00     0.029 A 
HETATM    9  C16 UNL     1      -4.433   3.342  14.726  1.00  0.00     0.094 C 
HETATM   10  C17 UNL     1      -4.651   2.327  13.682  1.00  0.00     0.310 C 
ENDROOT
BRANCH   5  11
HETATM   11  N2  UNL     1      -5.899   6.574  13.987  1.00  0.00     0.097 N 
HETATM   12  C9  UNL     1      -5.580   7.824  14.630  1.00  0.00     0.300 C 
HETATM   13  C10 UNL     1      -6.845   8.263  15.375  1.00  0.00     0.262 C 
HETATM   14  N3  UNL     1      -7.756   8.801  14.402  1.00  0.00    -0.072 N 
HETATM   15  C11 UNL     1      -7.639   8.036  13.181  1.00  0.00     0.262 C 
ATOM     16  H32 UNL     1      -8.716   8.841  14.746  1.00  0.00     0.277 HD
ATOM     17  H31 UNL     1      -7.619   9.800  14.250  1.00  0.00     0.277 HD
HETATM   18  C12 UNL     1      -7.231   6.585  13.475  1.00  0.00     0.300 C 
ENDBRANCH   5  11
BRANCH   9  19
HETATM   19  O1  UNL     1      -3.178   3.060  15.305  1.00  0.00    -0.387 OA
ATOM     20  H1  UNL     1      -2.543   3.473  14.732  1.00  0.00     0.210 HD
ENDBRANCH   9  19
BRANCH   1  21
HETATM   21  C4  UNL     1      -3.397   1.289  11.920  1.00  0.00     0.272 C 
BRANCH  21  22
HETATM   22  C3  UNL     1      -4.073   0.107  12.583  1.00  0.00     0.030 C 
BRANCH  22  23
HETATM   23  C2  UNL     1      -4.346  -0.912  11.489  1.00  0.00    -0.003 C 
HETATM   24  C1  UNL     1      -3.209  -1.933  11.523  1.00  0.00     0.005 C 
ENDBRANCH  22  23
ENDBRANCH  21  22
ENDBRANCH   1  21
TORSDOF 5
ENDMDL
