MODEL 1
REMARK VINA RESULT: -7.117842114      0.000      0.000
REMARK  6 active torsions:
REMARK  status: ('A' for Active; 'I' for Inactive)
REMARK       I    between atoms: C1_2  and  N1_3 
REMARK    1  A    between atoms: C1_2  and  C5_7 
REMARK    2  A    between atoms: C5_7  and  C6_8 
REMARK    3  A    between atoms: C6_8  and  C7_9 
REMARK    4  A    between atoms: C7_9  and  C8_10 
REMARK    5  A    between atoms: C8_10  and  O2_11 
REMARK    6  A    between atoms: C17_21  and  O3_22 
ROOT
HETATM    1  C5  UNL     1      -4.960   2.817  15.127  1.00  0.00     0.045 C 
HETATM    2  C9  UNL     1      -6.073   3.537  14.339  1.00  0.00     0.020 C 
HETATM    3  C10 UNL     1      -5.905   4.957  14.798  1.00  0.00     0.007 C 
HETATM    4  C11 UNL     1      -4.479   5.192  15.075  1.00  0.00     0.002 C 
HETATM    5  C12 UNL     1      -3.853   3.795  15.198  1.00  0.00     0.009 C 
HETATM    6  C13 UNL     1      -3.112   4.062  13.904  1.00  0.00     0.018 C 
HETATM    7  C14 UNL     1      -3.537   5.493  14.001  1.00  0.00    -0.010 C 
HETATM    8  C15 UNL     1      -2.461   6.501  14.226  1.00  0.00     0.015 C 
HETATM    9  C16 UNL     1      -2.550   6.821  12.729  1.00  0.00     0.033 C 
HETATM   10  C17 UNL     1      -3.947   6.185  12.774  1.00  0.00     0.127 C 
ENDROOT
BRANCH   1  11
HETATM   11  C1  UNL     1      -4.600   1.546  14.456  1.00  0.00     0.229 C 
HETATM   12  O1  UNL     1      -4.185   0.538  15.129  1.00  0.00    -0.272 OA
HETATM   13  N1  UNL     1      -4.701   1.400  13.068  1.00  0.00    -0.351 N 
HETATM   14  C2  UNL     1      -4.410   0.261  12.167  1.00  0.00     0.127 C 
HETATM   15  C4  UNL     1      -5.082   2.112  11.859  1.00  0.00     0.127 C 
HETATM   16  C3  UNL     1      -4.020   1.274  11.131  1.00  0.00     0.040 C 
ENDBRANCH   1  11
BRANCH   1  17
HETATM   17  C6  UNL     1      -5.463   2.494  16.505  1.00  0.00     0.022 C 
BRANCH  17  18
HETATM   18  C7  UNL     1      -6.957   2.402  16.489  1.00  0.00     0.027 C 
BRANCH  18  19
HETATM   19  C8  UNL     1      -7.403   1.166  17.296  1.00  0.00     0.164 C 
BRANCH  19  20
HETATM   20  O2  UNL     1      -6.610   0.120  16.849  1.00  0.00    -0.401 OA
ATOM     21  H2  UNL     1      -7.170  -0.646  16.853  1.00  0.00     0.209 HD
ENDBRANCH  19  20
ENDBRANCH  18  19
ENDBRANCH  17  18
ENDBRANCH   1  17
BRANCH  10  22
HETATM   22  O3  UNL     1      -4.889   7.188  12.857  1.00  0.00    -0.395 OA
ATOM     23  H3  UNL     1      -4.678   8.047  12.510  1.00  0.00     0.210 HD
ENDBRANCH  10  22
TORSDOF 6
ENDMDL
MODEL 2
REMARK VINA RESULT: -7.100029210      2.097      4.017
REMARK  6 active torsions:
REMARK  status: ('A' for Active; 'I' for Inactive)
REMARK       I    between atoms: C1_2  and  N1_3 
REMARK    1  A    between atoms: C1_2  and  C5_7 
REMARK    2  A    between atoms: C5_7  and  C6_8 
REMARK    3  A    between atoms: C6_8  and  C7_9 
REMARK    4  A    between atoms: C7_9  and  C8_10 
REMARK    5  A    between atoms: C8_10  and  O2_11 
REMARK    6  A    between atoms: C17_21  and  O3_22 
ROOT
HETATM    1  C5  UNL     1      -5.150   3.665  14.399  1.00  0.00     0.045 C 
HETATM    2  C9  UNL     1      -3.876   4.358  13.874  1.00  0.00     0.020 C 
HETATM    3  C10 UNL     1      -4.451   5.473  13.048  1.00  0.00     0.007 C 
HETATM    4  C11 UNL     1      -5.716   5.904  13.662  1.00  0.00     0.002 C 
HETATM    5  C12 UNL     1      -6.119   4.763  14.609  1.00  0.00     0.009 C 
HETATM    6  C13 UNL     1      -5.838   5.689  15.773  1.00  0.00     0.018 C 
HETATM    7  C14 UNL     1      -5.734   6.820  14.799  1.00  0.00    -0.010 C 
HETATM    8  C15 UNL     1      -6.784   7.875  14.878  1.00  0.00     0.015 C 
HETATM    9  C16 UNL     1      -5.759   8.736  15.626  1.00  0.00     0.033 C 
HETATM   10  C17 UNL     1      -4.688   7.827  15.006  1.00  0.00     0.127 C 
ENDROOT
BRANCH   1  11
HETATM   11  C1  UNL     1      -4.842   2.890  15.623  1.00  0.00     0.229 C 
HETATM   12  O1  UNL     1      -3.632   2.635  15.957  1.00  0.00    -0.272 OA
HETATM   13  N1  UNL     1      -5.858   2.410  16.458  1.00  0.00    -0.351 N 
HETATM   14  C2  UNL     1      -5.823   1.624  17.712  1.00  0.00     0.127 C 
HETATM   15  C4  UNL     1      -7.303   2.378  16.613  1.00  0.00     0.127 C 
HETATM   16  C3  UNL     1      -7.118   1.006  17.278  1.00  0.00     0.040 C 
ENDBRANCH   1  11
BRANCH   1  17
HETATM   17  C6  UNL     1      -5.657   2.710  13.355  1.00  0.00     0.022 C 
BRANCH  17  18
HETATM   18  C7  UNL     1      -4.521   1.897  12.820  1.00  0.00     0.027 C 
BRANCH  18  19
HETATM   19  C8  UNL     1      -4.915   1.305  11.452  1.00  0.00     0.164 C 
BRANCH  19  20
HETATM   20  O2  UNL     1      -6.000   2.051  11.018  1.00  0.00    -0.401 OA
ATOM     21  H2  UNL     1      -5.871   2.174  10.085  1.00  0.00     0.209 HD
ENDBRANCH  19  20
ENDBRANCH  18  19
ENDBRANCH  17  18
ENDBRANCH   1  17
BRANCH  10  22
HETATM   22  O3  UNL     1      -4.147   8.463  13.909  1.00  0.00    -0.395 OA
ATOM     23  H3  UNL     1      -3.884   9.372  13.988  1.00  0.00     0.210 HD
ENDBRANCH  10  22
TORSDOF 6
ENDMDL
MODEL 3
REMARK VINA RESULT: -6.737697920      2.054      2.645
REMARK  6 active torsions:
REMARK  status: ('A' for Active; 'I' for Inactive)
REMARK       I    between atoms: C1_2  and  N1_3 
REMARK    1  A    between atoms: C1_2  and  C5_7 
REMARK    2  A    between atoms: C5_7  and  C6_8 
REMARK    3  A    between atoms: C6_8  and  C7_9 
REMARK    4  A    between atoms: C7_9  and  C8_10 
REMARK    5  A    between atoms: C8_10  and  O2_11 
REMARK    6  A    between atoms: C17_21  and  O3_22 
ROOT
HETATM    1  C5  UNL     1      -4.864   3.976  14.163  1.00  0.00     0.045 C 
HETATM    2  C9  UNL     1      -6.330   4.166  14.602  1.00  0.00     0.020 C 
HETATM    3  C10 UNL     1      -6.225   5.350  15.520  1.00  0.00     0.007 C 
HETATM    4  C11 UNL     1      -5.140   6.219  15.038  1.00  0.00     0.002 C 
HETATM    5  C12 UNL     1      -4.311   5.345  14.085  1.00  0.00     0.009 C 
HETATM    6  C13 UNL     1      -4.808   6.202  12.939  1.00  0.00     0.018 C 
HETATM    7  C14 UNL     1      -5.354   7.164  13.946  1.00  0.00    -0.010 C 
HETATM    8  C15 UNL     1      -4.720   8.512  14.003  1.00  0.00     0.015 C 
HETATM    9  C16 UNL     1      -5.922   9.031  13.203  1.00  0.00     0.033 C 
HETATM   10  C17 UNL     1      -6.663   7.776  13.688  1.00  0.00     0.127 C 
ENDROOT
BRANCH   1  11
HETATM   11  C1  UNL     1      -4.807   3.228  12.886  1.00  0.00     0.229 C 
HETATM   12  O1  UNL     1      -5.849   2.658  12.406  1.00  0.00    -0.272 OA
HETATM   13  N1  UNL     1      -3.616   3.116  12.159  1.00  0.00    -0.351 N 
HETATM   14  C2  UNL     1      -3.293   2.438  10.883  1.00  0.00     0.127 C 
HETATM   15  C4  UNL     1      -2.217   3.511  12.171  1.00  0.00     0.127 C 
HETATM   16  C3  UNL     1      -1.924   2.191  11.443  1.00  0.00     0.040 C 
ENDBRANCH   1  11
BRANCH   1  17
HETATM   17  C6  UNL     1      -4.138   3.176  15.208  1.00  0.00     0.022 C 
BRANCH  17  18
HETATM   18  C7  UNL     1      -5.092   2.241  15.883  1.00  0.00     0.027 C 
BRANCH  18  19
HETATM   19  C8  UNL     1      -4.726   0.788  15.523  1.00  0.00     0.164 C 
BRANCH  19  20
HETATM   20  O2  UNL     1      -3.600   0.487  16.274  1.00  0.00    -0.401 OA
ATOM     21  H2  UNL     1      -2.990   1.198  16.120  1.00  0.00     0.209 HD
ENDBRANCH  19  20
ENDBRANCH  18  19
ENDBRANCH  17  18
ENDBRANCH   1  17
BRANCH  10  22
HETATM   22  O3  UNL     1      -7.461   8.119  14.759  1.00  0.00    -0.395 OA
ATOM     23  H3  UNL     1      -7.791   9.007  14.821  1.00  0.00     0.210 HD
ENDBRANCH  10  22
TORSDOF 6
ENDMDL
MODEL 4
REMARK VINA RESULT: -6.672271212      1.962      4.609
REMARK  6 active torsions:
REMARK  status: ('A' for Active; 'I' for Inactive)
REMARK       I    between atoms: C1_2  and  N1_3 
REMARK    1  A    between atoms: C1_2  and  C5_7 
REMARK    2  A    between atoms: C5_7  and  C6_8 
REMARK    3  A    between atoms: C6_8  and  C7_9 
REMARK    4  A    between atoms: C7_9  and  C8_10 
REMARK    5  A    between atoms: C8_10  and  O2_11 
REMARK    6  A    between atoms: C17_21  and  O3_22 
ROOT
HETATM    1  C5  UNL     1      -4.746   2.651  14.508  1.00  0.00     0.045 C 
HETATM    2  C9  UNL     1      -3.978   1.385  14.936  1.00  0.00     0.020 C 
HETATM    3  C10 UNL     1      -4.513   0.362  13.974  1.00  0.00     0.007 C 
HETATM    4  C11 UNL     1      -4.826   1.035  12.704  1.00  0.00     0.002 C 
HETATM    5  C12 UNL     1      -4.887   2.533  13.041  1.00  0.00     0.009 C 
HETATM    6  C13 UNL     1      -3.621   2.721  12.231  1.00  0.00     0.018 C 
HETATM    7  C14 UNL     1      -3.786   1.323  11.722  1.00  0.00    -0.010 C 
HETATM    8  C15 UNL     1      -4.080   1.166  10.269  1.00  0.00     0.015 C 
HETATM    9  C16 UNL     1      -2.600   0.809  10.082  1.00  0.00     0.033 C 
HETATM   10  C17 UNL     1      -2.589   0.485  11.584  1.00  0.00     0.127 C 
ENDROOT
BRANCH   1  11
HETATM   11  C1  UNL     1      -4.017   3.863  14.949  1.00  0.00     0.229 C 
HETATM   12  O1  UNL     1      -2.865   3.777  15.503  1.00  0.00    -0.272 OA
HETATM   13  N1  UNL     1      -4.557   5.143  14.776  1.00  0.00    -0.351 N 
HETATM   14  C2  UNL     1      -4.048   6.490  15.121  1.00  0.00     0.127 C 
HETATM   15  C4  UNL     1      -5.719   5.842  14.252  1.00  0.00     0.127 C 
HETATM   16  C3  UNL     1      -5.474   6.895  15.344  1.00  0.00     0.040 C 
ENDBRANCH   1  11
BRANCH   1  17
HETATM   17  C6  UNL     1      -6.098   2.653  15.166  1.00  0.00     0.022 C 
BRANCH  17  18
HETATM   18  C7  UNL     1      -5.952   2.334  16.621  1.00  0.00     0.027 C 
BRANCH  18  19
HETATM   19  C8  UNL     1      -7.096   1.399  17.057  1.00  0.00     0.164 C 
BRANCH  19  20
HETATM   20  O2  UNL     1      -6.554   0.123  17.072  1.00  0.00    -0.401 OA
ATOM     21  H2  UNL     1      -6.258  -0.020  17.963  1.00  0.00     0.209 HD
ENDBRANCH  19  20
ENDBRANCH  18  19
ENDBRANCH  17  18
ENDBRANCH   1  17
BRANCH  10  22
HETATM   22  O3  UNL     1      -2.708  -0.879  11.743  1.00  0.00    -0.395 OA
ATOM     23  H3  UNL     1      -3.044  -1.219  12.564  1.00  0.00     0.210 HD
ENDBRANCH  10  22
TORSDOF 6
ENDMDL
MODEL 5
REMARK VINA RESULT: -6.462618244      1.877      2.385
REMARK  6 active torsions:
REMARK  status: ('A' for Active; 'I' for Inactive)
REMARK       I    between atoms: C1_2  and  N1_3 
REMARK    1  A    between atoms: C1_2  and  C5_7 
REMARK    2  A    between atoms: C5_7  and  C6_8 
REMARK    3  A    between atoms: C6_8  and  C7_9 
REMARK    4  A    between atoms: C7_9  and  C8_10 
REMARK    5  A    between atoms: C8_10  and  O2_11 
REMARK    6  A    between atoms: C17_21  and  O3_22 
ROOT
HETATM    1  C5  UNL     1      -4.412   3.922  14.505  1.00  0.00     0.045 C 
HETATM    2  C9  UNL     1      -5.849   3.823  13.954  1.00  0.00     0.020 C 
HETATM    3  C10 UNL     1      -6.574   4.826  14.804  1.00  0.00     0.007 C 
HETATM    4  C11 UNL     1      -5.640   5.911  15.144  1.00  0.00     0.002 C 
HETATM    5  C12 UNL     1      -4.240   5.347  14.860  1.00  0.00     0.009 C 
HETATM    6  C13 UNL     1      -4.132   6.317  13.702  1.00  0.00     0.018 C 
HETATM    7  C14 UNL     1      -5.366   6.997  14.207  1.00  0.00    -0.010 C 
HETATM    8  C15 UNL     1      -5.207   8.389  14.717  1.00  0.00     0.015 C 
HETATM    9  C16 UNL     1      -5.776   8.868  13.376  1.00  0.00     0.033 C 
HETATM   10  C17 UNL     1      -6.360   7.455  13.230  1.00  0.00     0.127 C 
ENDROOT
BRANCH   1  11
HETATM   11  C1  UNL     1      -3.444   3.430  13.498  1.00  0.00     0.229 C 
HETATM   12  O1  UNL     1      -2.216   3.796  13.527  1.00  0.00    -0.272 OA
HETATM   13  N1  UNL     1      -3.833   2.551  12.481  1.00  0.00    -0.351 N 
HETATM   14  C2  UNL     1      -3.080   1.923  11.371  1.00  0.00     0.127 C 
HETATM   15  C4  UNL     1      -4.981   1.826  11.960  1.00  0.00     0.127 C 
HETATM   16  C3  UNL     1      -4.347   1.987  10.570  1.00  0.00     0.040 C 
ENDBRANCH   1  11
BRANCH   1  17
HETATM   17  C6  UNL     1      -4.294   3.059  15.729  1.00  0.00     0.022 C 
BRANCH  17  18
HETATM   18  C7  UNL     1      -5.337   1.987  15.694  1.00  0.00     0.027 C 
BRANCH  18  19
HETATM   19  C8  UNL     1      -4.656   0.614  15.529  1.00  0.00     0.164 C 
BRANCH  19  20
HETATM   20  O2  UNL     1      -3.555   0.638  16.371  1.00  0.00    -0.401 OA
ATOM     21  H2  UNL     1      -3.808   1.176  17.111  1.00  0.00     0.209 HD
ENDBRANCH  19  20
ENDBRANCH  18  19
ENDBRANCH  17  18
ENDBRANCH   1  17
BRANCH  10  22
HETATM   22  O3  UNL     1      -7.689   7.485  13.594  1.00  0.00    -0.395 OA
ATOM     23  H3  UNL     1      -8.352   7.535  12.916  1.00  0.00     0.210 HD
ENDBRANCH  10  22
TORSDOF 6
ENDMDL
