MODEL 1
REMARK VINA RESULT: -5.947345922      0.000      0.000
REMARK  5 active torsions:
REMARK  status: ('A' for Active; 'I' for Inactive)
REMARK    1  A    between atoms: C2_2  and  N1_3 
REMARK    2  A    between atoms: N1_3  and  C3_5 
REMARK    3  A    between atoms: N3_13  and  C7_15 
REMARK    4  A    between atoms: C7_15  and  C8_16 
REMARK    5  A    between atoms: C8_16  and  N4_17 
ROOT
HETATM    1  C3  UNL     1      -4.956   1.505  15.425  1.00  0.00     0.680 A 
HETATM    2  N2  UNL     1      -5.262   2.803  15.575  1.00  0.00    -0.180 N 
ATOM      3  H2  UNL     1      -5.690   3.127  16.443  1.00  0.00     0.185 HD
HETATM    4  C4  UNL     1      -5.009   3.671  14.597  1.00  0.00     0.140 A 
HETATM    5 CL1  UNL     1      -5.409   5.363  14.790  1.00  0.00    -0.062 Cl
HETATM    6  C5  UNL     1      -4.422   3.216  13.410  1.00  0.00     0.094 A 
HETATM    7 BR1  UNL     1      -4.107   4.520  12.079  1.00  0.00    -0.044 Br
HETATM    8  C6  UNL     1      -4.100   1.898  13.228  1.00  0.00     0.137 A 
HETATM    9  N3  UNL     1      -3.575   1.411  12.198  1.00  0.00    -0.373 N 
ATOM     10  H3  UNL     1      -3.414   0.405  12.265  1.00  0.00     0.161 HD
HETATM   11  N5  UNL     1      -4.399   1.082  14.293  1.00  0.00    -0.176 N 
ATOM     12  H5  UNL     1      -4.179   0.089  14.210  1.00  0.00     0.186 HD
ENDROOT
BRANCH   9  13
HETATM   13  C7  UNL     1      -3.165   1.955  10.982  1.00  0.00     0.151 C 
BRANCH  13  14
HETATM   14  C8  UNL     1      -1.711   1.558  10.639  1.00  0.00     0.290 C 
BRANCH  14  15
HETATM   15  N4  UNL     1      -0.899   2.721  10.470  1.00  0.00     0.081 N 
HETATM   16  C9  UNL     1      -0.575   3.403  11.693  1.00  0.00     0.309 C 
HETATM   17  C10 UNL     1      -1.393   3.629   9.479  1.00  0.00     0.309 C 
ENDBRANCH  14  15
ENDBRANCH  13  14
ENDBRANCH   9  13
BRANCH   1  18
HETATM   18  N1  UNL     1      -5.201   0.638  16.375  1.00  0.00    -0.226 N 
ATOM     19  H1  UNL     1      -4.764  -0.281  16.301  1.00  0.00     0.177 HD
BRANCH  18  20
HETATM   20  C2  UNL     1      -6.034   0.886  17.505  1.00  0.00     0.133 C 
HETATM   21  C1  UNL     1      -7.497   0.971  17.096  1.00  0.00     0.027 C 
ENDBRANCH  18  20
ENDBRANCH   1  18
TORSDOF 5
ENDMDL
MODEL 2
REMARK VINA RESULT: -5.808400541      1.923      2.300
REMARK  5 active torsions:
REMARK  status: ('A' for Active; 'I' for Inactive)
REMARK    1  A    between atoms: C2_2  and  N1_3 
REMARK    2  A    between atoms: N1_3  and  C3_5 
REMARK    3  A    between atoms: N3_13  and  C7_15 
REMARK    4  A    between atoms: C7_15  and  C8_16 
REMARK    5  A    between atoms: C8_16  and  N4_17 
ROOT
HETATM    1  C3  UNL     1      -4.703   2.416  15.586  1.00  0.00     0.680 A 
HETATM    2  N2  UNL     1      -4.008   3.558  15.467  1.00  0.00    -0.180 N 
ATOM      3  H2  UNL     1      -3.761   4.091  16.301  1.00  0.00     0.185 HD
HETATM    4  C4  UNL     1      -3.639   4.000  14.266  1.00  0.00     0.140 A 
HETATM    5 CL1  UNL     1      -2.736   5.490  14.108  1.00  0.00    -0.062 Cl
HETATM    6  C5  UNL     1      -3.984   3.260  13.128  1.00  0.00     0.094 A 
HETATM    7 BR1  UNL     1      -3.422   3.969  11.468  1.00  0.00    -0.044 Br
HETATM    8  C6  UNL     1      -4.693   2.093  13.218  1.00  0.00     0.137 A 
HETATM    9  N3  UNL     1      -5.042   1.374  12.250  1.00  0.00    -0.373 N 
ATOM     10  H3  UNL     1      -5.563   0.543  12.532  1.00  0.00     0.161 HD
HETATM   11  N5  UNL     1      -5.027   1.721  14.499  1.00  0.00    -0.176 N 
ATOM     12  H5  UNL     1      -5.555   0.857  14.623  1.00  0.00     0.186 HD
ENDROOT
BRANCH   9  13
HETATM   13  C7  UNL     1      -4.867   1.473  10.871  1.00  0.00     0.151 C 
BRANCH  13  14
HETATM   14  C8  UNL     1      -4.174   0.220  10.291  1.00  0.00     0.290 C 
BRANCH  14  15
HETATM   15  N4  UNL     1      -3.155  -0.247  11.177  1.00  0.00     0.081 N 
HETATM   16  C9  UNL     1      -1.894   0.427  11.041  1.00  0.00     0.309 C 
HETATM   17  C10 UNL     1      -2.993  -1.670  11.168  1.00  0.00     0.309 C 
ENDBRANCH  14  15
ENDBRANCH  13  14
ENDBRANCH   9  13
BRANCH   1  18
HETATM   18  N1  UNL     1      -5.076   1.970  16.759  1.00  0.00    -0.226 N 
ATOM     19  H1  UNL     1      -4.785   2.498  17.581  1.00  0.00     0.177 HD
BRANCH  18  20
HETATM   20  C2  UNL     1      -5.860   0.797  16.969  1.00  0.00     0.133 C 
HETATM   21  C1  UNL     1      -7.332   1.146  17.125  1.00  0.00     0.027 C 
ENDBRANCH  18  20
ENDBRANCH   1  18
TORSDOF 5
ENDMDL
MODEL 3
REMARK VINA RESULT: -5.677304926      2.164      5.606
REMARK  5 active torsions:
REMARK  status: ('A' for Active; 'I' for Inactive)
REMARK    1  A    between atoms: C2_2  and  N1_3 
REMARK    2  A    between atoms: N1_3  and  C3_5 
REMARK    3  A    between atoms: N3_13  and  C7_15 
REMARK    4  A    between atoms: C7_15  and  C8_16 
REMARK    5  A    between atoms: C8_16  and  N4_17 
ROOT
HETATM    1  C3  UNL     1      -3.404   1.378  11.843  1.00  0.00     0.680 A 
HETATM    2  N2  UNL     1      -2.483   2.346  11.720  1.00  0.00    -0.180 N 
ATOM      3  H2  UNL     1      -1.667   2.198  11.127  1.00  0.00     0.185 HD
HETATM    4  C4  UNL     1      -2.630   3.500  12.368  1.00  0.00     0.140 A 
HETATM    5 CL1  UNL     1      -1.430   4.763  12.212  1.00  0.00    -0.062 Cl
HETATM    6  C5  UNL     1      -3.755   3.693  13.181  1.00  0.00     0.094 A 
HETATM    7 BR1  UNL     1      -3.873   5.360  14.064  1.00  0.00    -0.044 Br
HETATM    8  C6  UNL     1      -4.710   2.723  13.327  1.00  0.00     0.137 A 
HETATM    9  N3  UNL     1      -5.742   2.816  14.033  1.00  0.00    -0.373 N 
ATOM     10  H3  UNL     1      -6.327   1.980  14.004  1.00  0.00     0.161 HD
HETATM   11  N5  UNL     1      -4.469   1.570  12.618  1.00  0.00    -0.176 N 
ATOM     12  H5  UNL     1      -5.150   0.814  12.690  1.00  0.00     0.186 HD
ENDROOT
BRANCH   9  13
HETATM   13  C7  UNL     1      -6.257   3.821  14.850  1.00  0.00     0.151 C 
BRANCH  13  14
HETATM   14  C8  UNL     1      -6.573   3.299  16.270  1.00  0.00     0.290 C 
BRANCH  14  15
HETATM   15  N4  UNL     1      -6.444   1.877  16.322  1.00  0.00     0.081 N 
HETATM   16  C9  UNL     1      -7.578   1.198  16.888  1.00  0.00     0.309 C 
HETATM   17  C10 UNL     1      -5.218   1.432  16.913  1.00  0.00     0.309 C 
ENDBRANCH  14  15
ENDBRANCH  13  14
ENDBRANCH   9  13
BRANCH   1  18
HETATM   18  N1  UNL     1      -3.274   0.236  11.216  1.00  0.00    -0.226 N 
ATOM     19  H1  UNL     1      -2.625   0.199  10.430  1.00  0.00     0.177 HD
BRANCH  18  20
HETATM   20  C2  UNL     1      -3.975  -0.960  11.553  1.00  0.00     0.133 C 
HETATM   21  C1  UNL     1      -3.077  -2.179  11.402  1.00  0.00     0.027 C 
ENDBRANCH  18  20
ENDBRANCH   1  18
TORSDOF 5
ENDMDL
MODEL 4
REMARK VINA RESULT: -5.663915446      3.053      3.916
REMARK  5 active torsions:
REMARK  status: ('A' for Active; 'I' for Inactive)
REMARK    1  A    between atoms: C2_2  and  N1_3 
REMARK    2  A    between atoms: N1_3  and  C3_5 
REMARK    3  A    between atoms: N3_13  and  C7_15 
REMARK    4  A    between atoms: C7_15  and  C8_16 
REMARK    5  A    between atoms: C8_16  and  N4_17 
ROOT
HETATM    1  C3  UNL     1      -4.777   1.090  15.219  1.00  0.00     0.680 A 
HETATM    2  N2  UNL     1      -4.509   0.244  14.212  1.00  0.00    -0.180 N 
ATOM      3  H2  UNL     1      -4.481  -0.760  14.386  1.00  0.00     0.185 HD
HETATM    4  C4  UNL     1      -4.281   0.710  12.985  1.00  0.00     0.140 A 
HETATM    5 CL1  UNL     1      -3.929  -0.390  11.671  1.00  0.00    -0.062 Cl
HETATM    6  C5  UNL     1      -4.322   2.091  12.756  1.00  0.00     0.094 A 
HETATM    7 BR1  UNL     1      -3.980   2.657  10.986  1.00  0.00    -0.044 Br
HETATM    8  C6  UNL     1      -4.592   2.978  13.764  1.00  0.00     0.137 A 
HETATM    9  N3  UNL     1      -4.646   4.226  13.644  1.00  0.00    -0.373 N 
ATOM     10  H3  UNL     1      -4.863   4.706  14.517  1.00  0.00     0.161 HD
HETATM   11  N5  UNL     1      -4.814   2.401  14.992  1.00  0.00    -0.176 N 
ATOM     12  H5  UNL     1      -5.020   3.017  15.779  1.00  0.00     0.186 HD
ENDROOT
BRANCH   9  13
HETATM   13  C7  UNL     1      -4.472   5.092  12.566  1.00  0.00     0.151 C 
BRANCH  13  14
HETATM   14  C8  UNL     1      -5.193   6.440  12.794  1.00  0.00     0.290 C 
BRANCH  14  15
HETATM   15  N4  UNL     1      -5.382   7.125  11.555  1.00  0.00     0.081 N 
HETATM   16  C9  UNL     1      -6.686   7.708  11.392  1.00  0.00     0.309 C 
HETATM   17  C10 UNL     1      -5.004   6.355  10.409  1.00  0.00     0.309 C 
ENDBRANCH  14  15
ENDBRANCH  13  14
ENDBRANCH   9  13
BRANCH   1  18
HETATM   18  N1  UNL     1      -5.001   0.650  16.431  1.00  0.00    -0.226 N 
ATOM     19  H1  UNL     1      -4.537  -0.213  16.715  1.00  0.00     0.177 HD
BRANCH  18  20
HETATM   20  C2  UNL     1      -5.847   1.290  17.384  1.00  0.00     0.133 C 
HETATM   21  C1  UNL     1      -7.314   1.040  17.066  1.00  0.00     0.027 C 
ENDBRANCH  18  20
ENDBRANCH   1  18
TORSDOF 5
ENDMDL
MODEL 5
REMARK VINA RESULT: -5.627027444      1.728      2.196
REMARK  5 active torsions:
REMARK  status: ('A' for Active; 'I' for Inactive)
REMARK    1  A    between atoms: C2_2  and  N1_3 
REMARK    2  A    between atoms: N1_3  and  C3_5 
REMARK    3  A    between atoms: N3_13  and  C7_15 
REMARK    4  A    between atoms: C7_15  and  C8_16 
REMARK    5  A    between atoms: C8_16  and  N4_17 
ROOT
HETATM    1  C3  UNL     1      -4.923   2.838  15.596  1.00  0.00     0.680 A 
HETATM    2  N2  UNL     1      -5.881   3.728  15.290  1.00  0.00    -0.180 N 
ATOM      3  H2  UNL     1      -6.836   3.577  15.613  1.00  0.00     0.185 HD
HETATM    4  C4  UNL     1      -5.589   4.808  14.567  1.00  0.00     0.140 A 
HETATM    5 CL1  UNL     1      -6.835   5.967  14.164  1.00  0.00    -0.062 Cl
HETATM    6  C5  UNL     1      -4.273   5.005  14.129  1.00  0.00     0.094 A 
HETATM    7 BR1  UNL     1      -3.958   6.562  13.105  1.00  0.00    -0.044 Br
HETATM    8  C6  UNL     1      -3.277   4.115  14.425  1.00  0.00     0.137 A 
HETATM    9  N3  UNL     1      -2.077   4.217  14.071  1.00  0.00    -0.373 N 
ATOM     10  H3  UNL     1      -1.494   3.447  14.397  1.00  0.00     0.161 HD
HETATM   11  N5  UNL     1      -3.676   3.034  15.175  1.00  0.00    -0.176 N 
ATOM     12  H5  UNL     1      -2.973   2.340  15.425  1.00  0.00     0.186 HD
ENDROOT
BRANCH   9  13
HETATM   13  C7  UNL     1      -1.376   5.163  13.326  1.00  0.00     0.151 C 
BRANCH  13  14
HETATM   14  C8  UNL     1      -0.812   4.559  12.020  1.00  0.00     0.290 C 
BRANCH  14  15
HETATM   15  N4  UNL     1      -1.778   3.707  11.402  1.00  0.00     0.081 N 
HETATM   16  C9  UNL     1      -1.274   2.416  11.021  1.00  0.00     0.309 C 
HETATM   17  C10 UNL     1      -2.491   4.330  10.328  1.00  0.00     0.309 C 
ENDBRANCH  14  15
ENDBRANCH  13  14
ENDBRANCH   9  13
BRANCH   1  18
HETATM   18  N1  UNL     1      -5.194   1.770  16.304  1.00  0.00    -0.226 N 
ATOM     19  H1  UNL     1      -4.757   0.892  16.022  1.00  0.00     0.177 HD
BRANCH  18  20
HETATM   20  C2  UNL     1      -6.054   1.746  17.441  1.00  0.00     0.133 C 
HETATM   21  C1  UNL     1      -7.366   1.046  17.117  1.00  0.00     0.027 C 
ENDBRANCH  18  20
ENDBRANCH   1  18
TORSDOF 5
ENDMDL
