MODEL 1
REMARK VINA RESULT: -5.477292398      0.000      0.000
REMARK  4 active torsions:
REMARK  status: ('A' for Active; 'I' for Inactive)
REMARK    1  A    between atoms: C4_8  and  C5_9 
REMARK    2  A    between atoms: C6_12  and  C7_13 
REMARK    3  A    between atoms: C7_13  and  C8_14 
REMARK    4  A    between atoms: C8_14  and  O2_15 
ROOT
HETATM    1  O1  UNL     1      -1.658   1.567   9.879  1.00  0.00    -0.296 OA
HETATM    2  C1  UNL     1      -2.000   2.010  10.913  1.00  0.00     0.153 C 
HETATM    3  C2  UNL     1      -1.352   3.282  11.345  1.00  0.00     0.101 C 
HETATM    4  C3  UNL     1      -2.498   4.298  11.376  1.00  0.00     0.147 C 
HETATM    5  N1  UNL     1      -3.739   3.614  11.205  1.00  0.00    -0.334 N 
ATOM      6  H1  UNL     1      -4.438   3.928  10.532  1.00  0.00     0.180 HD
HETATM    7  N2  UNL     1      -3.941   2.504  12.000  1.00  0.00    -0.297 N 
HETATM    8  C4  UNL     1      -4.947   2.517  12.923  1.00  0.00     0.110 C 
HETATM    9  C6  UNL     1      -2.996   1.459  11.832  1.00  0.00     0.178 C 
ENDROOT
BRANCH   8  10
HETATM   10  C5  UNL     1      -4.659   2.687  14.388  1.00  0.00     0.169 C 
HETATM   11 BR1  UNL     1      -6.081   3.842  15.125  1.00  0.00    -0.073 Br
HETATM   12 BR2  UNL     1      -4.709   1.098  15.439  1.00  0.00    -0.073 Br
ENDBRANCH   8  10
BRANCH   9  13
HETATM   13  C7  UNL     1      -3.545   0.121  11.591  1.00  0.00     0.061 C 
BRANCH  13  14
HETATM   14  C8  UNL     1      -4.475  -0.135  10.478  1.00  0.00     0.166 C 
BRANCH  14  15
HETATM   15  O2  UNL     1      -3.874  -0.329   9.258  1.00  0.00    -0.401 OA
ATOM     16  H2  UNL     1      -4.166  -1.101   8.789  1.00  0.00     0.209 HD
ENDBRANCH  14  15
ENDBRANCH  13  14
ENDBRANCH   9  13
TORSDOF 4
ENDMDL
MODEL 2
REMARK VINA RESULT: -5.316514225      2.828      4.130
REMARK  4 active torsions:
REMARK  status: ('A' for Active; 'I' for Inactive)
REMARK    1  A    between atoms: C4_8  and  C5_9 
REMARK    2  A    between atoms: C6_12  and  C7_13 
REMARK    3  A    between atoms: C7_13  and  C8_14 
REMARK    4  A    between atoms: C8_14  and  O2_15 
ROOT
HETATM    1  O1  UNL     1      -4.625  -0.402  15.007  1.00  0.00    -0.296 OA
HETATM    2  C1  UNL     1      -4.946   0.715  14.829  1.00  0.00     0.153 C 
HETATM    3  C2  UNL     1      -5.668   1.392  15.944  1.00  0.00     0.101 C 
HETATM    4  C3  UNL     1      -4.722   2.515  16.381  1.00  0.00     0.147 C 
HETATM    5  N1  UNL     1      -3.654   2.623  15.441  1.00  0.00    -0.334 N 
ATOM      6  H1  UNL     1      -2.679   2.666  15.738  1.00  0.00     0.180 HD
HETATM    7  N2  UNL     1      -4.011   2.665  14.109  1.00  0.00    -0.297 N 
HETATM    8  C4  UNL     1      -3.751   3.792  13.383  1.00  0.00     0.110 C 
HETATM    9  C6  UNL     1      -4.715   1.528  13.634  1.00  0.00     0.178 C 
ENDROOT
BRANCH   8  10
HETATM   10  C5  UNL     1      -4.845   4.755  13.019  1.00  0.00     0.169 C 
HETATM   11 BR1  UNL     1      -5.390   5.665  14.684  1.00  0.00    -0.073 Br
HETATM   12 BR2  UNL     1      -4.362   6.154  11.818  1.00  0.00    -0.073 Br
ENDBRANCH   8  10
BRANCH   9  13
HETATM   13  C7  UNL     1      -4.188   0.901  12.418  1.00  0.00     0.061 C 
BRANCH  13  14
HETATM   14  C8  UNL     1      -4.956   0.907  11.161  1.00  0.00     0.166 C 
BRANCH  14  15
HETATM   15  O2  UNL     1      -5.878   1.920  11.055  1.00  0.00    -0.401 OA
ATOM     16  H2  UNL     1      -5.764   2.628  11.677  1.00  0.00     0.209 HD
ENDBRANCH  14  15
ENDBRANCH  13  14
ENDBRANCH   9  13
TORSDOF 4
ENDMDL
MODEL 3
REMARK VINA RESULT: -5.270724323      2.935      4.018
REMARK  4 active torsions:
REMARK  status: ('A' for Active; 'I' for Inactive)
REMARK    1  A    between atoms: C4_8  and  C5_9 
REMARK    2  A    between atoms: C6_12  and  C7_13 
REMARK    3  A    between atoms: C7_13  and  C8_14 
REMARK    4  A    between atoms: C8_14  and  O2_15 
ROOT
HETATM    1  O1  UNL     1      -4.752  -0.506  13.322  1.00  0.00    -0.296 OA
HETATM    2  C1  UNL     1      -4.208   0.455  12.920  1.00  0.00     0.153 C 
HETATM    3  C2  UNL     1      -3.333   0.280  11.724  1.00  0.00     0.101 C 
HETATM    4  C3  UNL     1      -4.011   1.117  10.634  1.00  0.00     0.147 C 
HETATM    5  N1  UNL     1      -5.054   1.896  11.219  1.00  0.00    -0.334 N 
ATOM      6  H1  UNL     1      -5.991   1.928  10.817  1.00  0.00     0.180 HD
HETATM    7  N2  UNL     1      -4.726   2.602  12.359  1.00  0.00    -0.297 N 
HETATM    8  C4  UNL     1      -4.760   3.967  12.331  1.00  0.00     0.110 C 
HETATM    9  C6  UNL     1      -4.290   1.814  13.455  1.00  0.00     0.178 C 
ENDROOT
BRANCH   8  10
HETATM   10  C5  UNL     1      -3.496   4.777  12.271  1.00  0.00     0.169 C 
HETATM   11 BR1  UNL     1      -3.177   5.483  14.087  1.00  0.00    -0.073 Br
HETATM   12 BR2  UNL     1      -1.911   3.821  11.820  1.00  0.00    -0.073 Br
ENDBRANCH   8  10
BRANCH   9  13
HETATM   13  C7  UNL     1      -4.965   2.053  14.734  1.00  0.00     0.061 C 
BRANCH  13  14
HETATM   14  C8  UNL     1      -4.262   1.865  16.015  1.00  0.00     0.166 C 
BRANCH  14  15
HETATM   15  O2  UNL     1      -3.786   0.595  16.230  1.00  0.00    -0.401 OA
ATOM     16  H2  UNL     1      -3.844   0.295  17.129  1.00  0.00     0.209 HD
ENDBRANCH  14  15
ENDBRANCH  13  14
ENDBRANCH   9  13
TORSDOF 4
ENDMDL
MODEL 4
REMARK VINA RESULT: -5.266255783      1.829      3.519
REMARK  4 active torsions:
REMARK  status: ('A' for Active; 'I' for Inactive)
REMARK    1  A    between atoms: C4_8  and  C5_9 
REMARK    2  A    between atoms: C6_12  and  C7_13 
REMARK    3  A    between atoms: C7_13  and  C8_14 
REMARK    4  A    between atoms: C8_14  and  O2_15 
ROOT
HETATM    1  O1  UNL     1      -2.639   2.510  10.309  1.00  0.00    -0.296 OA
HETATM    2  C1  UNL     1      -3.576   2.551  11.017  1.00  0.00     0.153 C 
HETATM    3  C2  UNL     1      -4.649   1.545  10.769  1.00  0.00     0.101 C 
HETATM    4  C3  UNL     1      -4.662   0.685  12.037  1.00  0.00     0.147 C 
HETATM    5  N1  UNL     1      -3.830   1.291  13.025  1.00  0.00    -0.334 N 
ATOM      6  H1  UNL     1      -3.128   0.758  13.538  1.00  0.00     0.180 HD
HETATM    7  N2  UNL     1      -4.028   2.639  13.249  1.00  0.00    -0.297 N 
HETATM    8  C4  UNL     1      -4.479   3.054  14.469  1.00  0.00     0.110 C 
HETATM    9  C6  UNL     1      -3.816   3.477  12.124  1.00  0.00     0.178 C 
ENDROOT
BRANCH   8  10
HETATM   10  C5  UNL     1      -5.902   3.494  14.665  1.00  0.00     0.169 C 
HETATM   11 BR1  UNL     1      -6.537   2.663  16.340  1.00  0.00    -0.073 Br
HETATM   12 BR2  UNL     1      -6.173   5.366  14.900  1.00  0.00    -0.073 Br
ENDBRANCH   8  10
BRANCH   9  13
HETATM   13  C7  UNL     1      -2.917   4.618  12.325  1.00  0.00     0.061 C 
BRANCH  13  14
HETATM   14  C8  UNL     1      -1.651   4.472  13.063  1.00  0.00     0.166 C 
BRANCH  14  15
HETATM   15  O2  UNL     1      -0.807   3.504  12.573  1.00  0.00    -0.401 OA
ATOM     16  H2  UNL     1      -0.771   3.451  11.626  1.00  0.00     0.209 HD
ENDBRANCH  14  15
ENDBRANCH  13  14
ENDBRANCH   9  13
TORSDOF 4
ENDMDL
MODEL 5
REMARK VINA RESULT: -5.254753636      1.197      1.366
REMARK  4 active torsions:
REMARK  status: ('A' for Active; 'I' for Inactive)
REMARK    1  A    between atoms: C4_8  and  C5_9 
REMARK    2  A    between atoms: C6_12  and  C7_13 
REMARK    3  A    between atoms: C7_13  and  C8_14 
REMARK    4  A    between atoms: C8_14  and  O2_15 
ROOT
HETATM    1  O1  UNL     1      -2.160   0.937   9.791  1.00  0.00    -0.296 OA
HETATM    2  C1  UNL     1      -2.340   1.450  10.833  1.00  0.00     0.153 C 
HETATM    3  C2  UNL     1      -1.319   2.444  11.276  1.00  0.00     0.101 C 
HETATM    4  C3  UNL     1      -2.082   3.772  11.329  1.00  0.00     0.147 C 
HETATM    5  N1  UNL     1      -3.477   3.520  11.159  1.00  0.00    -0.334 N 
ATOM      6  H1  UNL     1      -4.042   4.050  10.496  1.00  0.00     0.180 HD
HETATM    7  N2  UNL     1      -4.019   2.521  11.942  1.00  0.00    -0.297 N 
HETATM    8  C4  UNL     1      -4.965   2.840  12.872  1.00  0.00     0.110 C 
HETATM    9  C6  UNL     1      -3.456   1.232  11.753  1.00  0.00     0.178 C 
ENDROOT
BRANCH   8  10
HETATM   10  C5  UNL     1      -4.633   2.888  14.337  1.00  0.00     0.169 C 
HETATM   11 BR1  UNL     1      -3.559   4.518  14.631  1.00  0.00    -0.073 Br
HETATM   12 BR2  UNL     1      -6.115   3.044  15.525  1.00  0.00    -0.073 Br
ENDBRANCH   8  10
BRANCH   9  13
HETATM   13  C7  UNL     1      -4.404   0.142  11.500  1.00  0.00     0.061 C 
BRANCH  13  14
HETATM   14  C8  UNL     1      -4.089  -1.247  11.878  1.00  0.00     0.166 C 
BRANCH  14  15
HETATM   15  O2  UNL     1      -3.078  -1.826  11.150  1.00  0.00    -0.401 OA
ATOM     16  H2  UNL     1      -2.222  -1.789  11.559  1.00  0.00     0.209 HD
ENDBRANCH  14  15
ENDBRANCH  13  14
ENDBRANCH   9  13
TORSDOF 4
ENDMDL
