MODEL 1
REMARK VINA RESULT: -6.095377506      0.000      0.000
REMARK  5 active torsions:
REMARK  status: ('A' for Active; 'I' for Inactive)
REMARK    1  A    between atoms: O1_2  and  C2_3 
REMARK    2  A    between atoms: C2_3  and  C3_4 
REMARK    3  A    between atoms: C3_4  and  N1_5 
REMARK    4  A    between atoms: N1_5  and  C4_7 
REMARK    5  A    between atoms: N3_14  and  C8_16 
ROOT
HETATM    1  C4  UNL     1      -4.642   1.839  11.454  1.00  0.00     0.679 A 
HETATM    2  N2  UNL     1      -4.353   3.110  11.120  1.00  0.00    -0.201 N 
ATOM      3  H2  UNL     1      -4.116   3.338  10.154  1.00  0.00     0.183 HD
HETATM    4  C5  UNL     1      -4.373   4.080  12.047  1.00  0.00     0.129 A 
HETATM    5  C6  UNL     1      -4.692   3.790  13.367  1.00  0.00     0.071 A 
HETATM    6 BR1  UNL     1      -4.706   5.217  14.644  1.00  0.00    -0.046 Br
HETATM    7  C7  UNL     1      -4.988   2.497  13.717  1.00  0.00     0.136 A 
HETATM    8  N3  UNL     1      -5.289   2.091  14.844  1.00  0.00    -0.370 N 
ATOM      9  H3  UNL     1      -5.460   1.085  14.826  1.00  0.00     0.161 HD
HETATM   10  N4  UNL     1      -4.945   1.571  12.712  1.00  0.00    -0.176 N 
ATOM     11  H4  UNL     1      -5.162   0.603  12.950  1.00  0.00     0.186 HD
ENDROOT
BRANCH   8  12
HETATM   12  C8  UNL     1      -5.466   2.587  16.131  1.00  0.00     0.083 C 
HETATM   13  C9  UNL     1      -6.975   2.887  16.292  1.00  0.00     0.025 C 
HETATM   14  C10 UNL     1      -7.490   1.526  16.688  1.00  0.00     0.002 C 
HETATM   15  C11 UNL     1      -6.521   1.140  17.787  1.00  0.00     0.002 C 
HETATM   16  C12 UNL     1      -5.187   1.604  17.246  1.00  0.00     0.025 C 
ENDBRANCH   8  12
BRANCH   1  17
HETATM   17  N1  UNL     1      -4.598   0.973  10.512  1.00  0.00    -0.224 N 
ATOM     18  H1  UNL     1      -5.418   0.885   9.912  1.00  0.00     0.177 HD
BRANCH  17  19
HETATM   19  C3  UNL     1      -3.483   0.121  10.242  1.00  0.00     0.164 C 
BRANCH  19  20
HETATM   20  C2  UNL     1      -2.135   0.673  10.554  1.00  0.00     0.187 C 
BRANCH  20  21
HETATM   21  O1  UNL     1      -1.647   1.679   9.829  1.00  0.00    -0.394 OA
HETATM   22  C1  UNL     1      -0.996   2.667  10.477  1.00  0.00     0.201 C 
ENDBRANCH  20  21
ENDBRANCH  19  20
ENDBRANCH  17  19
ENDBRANCH   1  17
TORSDOF 5
ENDMDL
MODEL 2
REMARK VINA RESULT: -6.078652276      1.633      2.080
REMARK  5 active torsions:
REMARK  status: ('A' for Active; 'I' for Inactive)
REMARK    1  A    between atoms: O1_2  and  C2_3 
REMARK    2  A    between atoms: C2_3  and  C3_4 
REMARK    3  A    between atoms: C3_4  and  N1_5 
REMARK    4  A    between atoms: N1_5  and  C4_7 
REMARK    5  A    between atoms: N3_14  and  C8_16 
ROOT
HETATM    1  C4  UNL     1      -3.552   2.260  12.592  1.00  0.00     0.679 A 
HETATM    2  N2  UNL     1      -3.580   3.548  12.201  1.00  0.00    -0.201 N 
ATOM      3  H2  UNL     1      -3.010   3.849  11.412  1.00  0.00     0.183 HD
HETATM    4  C5  UNL     1      -4.353   4.437  12.842  1.00  0.00     0.129 A 
HETATM    5  C6  UNL     1      -5.138   4.047  13.920  1.00  0.00     0.071 A 
HETATM    6 BR1  UNL     1      -6.220   5.361  14.793  1.00  0.00    -0.046 Br
HETATM    7  C7  UNL     1      -5.115   2.736  14.325  1.00  0.00     0.136 A 
HETATM    8  N3  UNL     1      -5.754   2.245  15.261  1.00  0.00    -0.370 N 
ATOM      9  H3  UNL     1      -5.552   1.248  15.346  1.00  0.00     0.161 HD
HETATM   10  N4  UNL     1      -4.300   1.895  13.618  1.00  0.00    -0.176 N 
ATOM     11  H4  UNL     1      -4.268   0.916  13.903  1.00  0.00     0.186 HD
ENDROOT
BRANCH   8  12
HETATM   12  C8  UNL     1      -6.667   2.636  16.235  1.00  0.00     0.083 C 
HETATM   13  C9  UNL     1      -7.546   1.401  16.546  1.00  0.00     0.025 C 
HETATM   14  C10 UNL     1      -6.685   0.694  17.561  1.00  0.00     0.002 C 
HETATM   15  C11 UNL     1      -6.340   1.823  18.511  1.00  0.00     0.002 C 
HETATM   16  C12 UNL     1      -6.068   2.983  17.579  1.00  0.00     0.025 C 
ENDBRANCH   8  12
BRANCH   1  17
HETATM   17  N1  UNL     1      -2.787   1.476  11.930  1.00  0.00    -0.224 N 
ATOM     18  H1  UNL     1      -1.861   1.283  12.312  1.00  0.00     0.177 HD
BRANCH  17  19
HETATM   19  C3  UNL     1      -3.138   0.850  10.694  1.00  0.00     0.164 C 
BRANCH  19  20
HETATM   20  C2  UNL     1      -4.188  -0.206  10.758  1.00  0.00     0.187 C 
BRANCH  20  21
HETATM   21  O1  UNL     1      -4.065  -1.209  11.627  1.00  0.00    -0.394 OA
HETATM   22  C1  UNL     1      -3.129  -2.149  11.378  1.00  0.00     0.201 C 
ENDBRANCH  20  21
ENDBRANCH  19  20
ENDBRANCH  17  19
ENDBRANCH   1  17
TORSDOF 5
ENDMDL
MODEL 3
REMARK VINA RESULT: -6.036578820      3.216      5.549
REMARK  5 active torsions:
REMARK  status: ('A' for Active; 'I' for Inactive)
REMARK    1  A    between atoms: O1_2  and  C2_3 
REMARK    2  A    between atoms: C2_3  and  C3_4 
REMARK    3  A    between atoms: C3_4  and  N1_5 
REMARK    4  A    between atoms: N1_5  and  C4_7 
REMARK    5  A    between atoms: N3_14  and  C8_16 
ROOT
HETATM    1  C4  UNL     1      -4.376   1.410  13.280  1.00  0.00     0.679 A 
HETATM    2  N2  UNL     1      -4.814   1.206  12.024  1.00  0.00    -0.201 N 
ATOM      3  H2  UNL     1      -5.244   0.315  11.776  1.00  0.00     0.183 HD
HETATM    4  C5  UNL     1      -4.691   2.166  11.095  1.00  0.00     0.129 A 
HETATM    5  C6  UNL     1      -4.110   3.387  11.412  1.00  0.00     0.071 A 
HETATM    6 BR1  UNL     1      -3.963   4.718  10.044  1.00  0.00    -0.046 Br
HETATM    7  C7  UNL     1      -3.660   3.603  12.690  1.00  0.00     0.136 A 
HETATM    8  N3  UNL     1      -3.124   4.632  13.116  1.00  0.00    -0.370 N 
ATOM      9  H3  UNL     1      -2.886   4.526  14.103  1.00  0.00     0.161 HD
HETATM   10  N4  UNL     1      -3.823   2.573  13.574  1.00  0.00    -0.176 N 
ATOM     11  H4  UNL     1      -3.495   2.714  14.530  1.00  0.00     0.186 HD
ENDROOT
BRANCH   8  12
HETATM   12  C8  UNL     1      -2.747   5.891  12.662  1.00  0.00     0.083 C 
HETATM   13  C9  UNL     1      -3.791   6.895  13.206  1.00  0.00     0.025 C 
HETATM   14  C10 UNL     1      -3.231   7.164  14.579  1.00  0.00     0.002 C 
HETATM   15  C11 UNL     1      -1.777   7.451  14.266  1.00  0.00     0.002 C 
HETATM   16  C12 UNL     1      -1.441   6.414  13.217  1.00  0.00     0.025 C 
ENDBRANCH   8  12
BRANCH   1  17
HETATM   17  N1  UNL     1      -4.528   0.443  14.105  1.00  0.00    -0.224 N 
ATOM     18  H1  UNL     1      -4.827  -0.457  13.730  1.00  0.00     0.177 HD
BRANCH  17  19
HETATM   19  C3  UNL     1      -4.308   0.536  15.514  1.00  0.00     0.164 C 
BRANCH  19  20
HETATM   20  C2  UNL     1      -5.419   1.109  16.324  1.00  0.00     0.187 C 
BRANCH  20  21
HETATM   21  O1  UNL     1      -6.547   0.417  16.485  1.00  0.00    -0.394 OA
HETATM   22  C1  UNL     1      -7.602   1.047  17.041  1.00  0.00     0.201 C 
ENDBRANCH  20  21
ENDBRANCH  19  20
ENDBRANCH  17  19
ENDBRANCH   1  17
TORSDOF 5
ENDMDL
MODEL 4
REMARK VINA RESULT: -5.886903523      3.327      4.399
REMARK  5 active torsions:
REMARK  status: ('A' for Active; 'I' for Inactive)
REMARK    1  A    between atoms: O1_2  and  C2_3 
REMARK    2  A    between atoms: C2_3  and  C3_4 
REMARK    3  A    between atoms: C3_4  and  N1_5 
REMARK    4  A    between atoms: N1_5  and  C4_7 
REMARK    5  A    between atoms: N3_14  and  C8_16 
ROOT
HETATM    1  C4  UNL     1      -0.783   3.473  11.667  1.00  0.00     0.679 A 
HETATM    2  N2  UNL     1      -0.875   2.660  10.598  1.00  0.00    -0.201 N 
ATOM      3  H2  UNL     1      -0.123   2.642   9.910  1.00  0.00     0.183 HD
HETATM    4  C5  UNL     1      -1.949   1.873  10.431  1.00  0.00     0.129 A 
HETATM    5  C6  UNL     1      -2.983   1.882  11.358  1.00  0.00     0.071 A 
HETATM    6 BR1  UNL     1      -4.488   0.735  11.066  1.00  0.00    -0.046 Br
HETATM    7  C7  UNL     1      -2.898   2.707  12.450  1.00  0.00     0.136 A 
HETATM    8  N3  UNL     1      -3.735   2.822  13.352  1.00  0.00    -0.370 N 
ATOM      9  H3  UNL     1      -3.422   3.505  14.042  1.00  0.00     0.161 HD
HETATM   10  N4  UNL     1      -1.771   3.476  12.544  1.00  0.00    -0.176 N 
ATOM     11  H4  UNL     1      -1.687   4.097  13.349  1.00  0.00     0.186 HD
ENDROOT
BRANCH   8  12
HETATM   12  C8  UNL     1      -4.974   2.304  13.713  1.00  0.00     0.083 C 
HETATM   13  C9  UNL     1      -4.711   1.229  14.795  1.00  0.00     0.025 C 
HETATM   14  C10 UNL     1      -4.650   2.088  16.033  1.00  0.00     0.002 C 
HETATM   15  C11 UNL     1      -5.897   2.935  15.881  1.00  0.00     0.002 C 
HETATM   16  C12 UNL     1      -5.903   3.275  14.407  1.00  0.00     0.025 C 
ENDBRANCH   8  12
BRANCH   1  17
HETATM   17  N1  UNL     1       0.272   4.193  11.752  1.00  0.00    -0.224 N 
ATOM     18  H1  UNL     1       0.427   4.705  12.621  1.00  0.00     0.177 HD
BRANCH  17  19
HETATM   19  C3  UNL     1       1.248   4.331  10.717  1.00  0.00     0.164 C 
BRANCH  19  20
HETATM   20  C2  UNL     1       2.494   5.067  11.072  1.00  0.00     0.187 C 
BRANCH  20  21
HETATM   21  O1  UNL     1       3.312   4.573  12.002  1.00  0.00    -0.394 OA
HETATM   22  C1  UNL     1       4.019   5.445  12.749  1.00  0.00     0.201 C 
ENDBRANCH  20  21
ENDBRANCH  19  20
ENDBRANCH  17  19
ENDBRANCH   1  17
TORSDOF 5
ENDMDL
MODEL 5
REMARK VINA RESULT: -5.831348297      2.926      4.491
REMARK  5 active torsions:
REMARK  status: ('A' for Active; 'I' for Inactive)
REMARK    1  A    between atoms: O1_2  and  C2_3 
REMARK    2  A    between atoms: C2_3  and  C3_4 
REMARK    3  A    between atoms: C3_4  and  N1_5 
REMARK    4  A    between atoms: N1_5  and  C4_7 
REMARK    5  A    between atoms: N3_14  and  C8_16 
ROOT
HETATM    1  C4  UNL     1      -1.279   4.823  12.824  1.00  0.00     0.679 A 
HETATM    2  N2  UNL     1      -1.956   5.620  13.672  1.00  0.00    -0.201 N 
ATOM      3  H2  UNL     1      -1.545   6.504  13.972  1.00  0.00     0.183 HD
HETATM    4  C5  UNL     1      -3.167   5.261  14.125  1.00  0.00     0.129 A 
HETATM    5  C6  UNL     1      -3.744   4.062  13.728  1.00  0.00     0.071 A 
HETATM    6 BR1  UNL     1      -5.474   3.605  14.407  1.00  0.00    -0.046 Br
HETATM    7  C7  UNL     1      -3.061   3.244  12.864  1.00  0.00     0.136 A 
HETATM    8  N3  UNL     1      -3.445   2.154  12.425  1.00  0.00    -0.370 N 
ATOM      9  H3  UNL     1      -2.743   1.755  11.802  1.00  0.00     0.161 HD
HETATM   10  N4  UNL     1      -1.834   3.684  12.451  1.00  0.00    -0.176 N 
ATOM     11  H4  UNL     1      -1.310   3.090  11.808  1.00  0.00     0.186 HD
ENDROOT
BRANCH   8  12
HETATM   12  C8  UNL     1      -4.542   1.305  12.523  1.00  0.00     0.083 C 
HETATM   13  C9  UNL     1      -5.139   1.180  11.101  1.00  0.00     0.025 C 
HETATM   14  C10 UNL     1      -4.275   0.084  10.531  1.00  0.00     0.002 C 
HETATM   15  C11 UNL     1      -4.332  -0.955  11.632  1.00  0.00     0.002 C 
HETATM   16  C12 UNL     1      -4.222  -0.126  12.892  1.00  0.00     0.025 C 
ENDBRANCH   8  12
BRANCH   1  17
HETATM   17  N1  UNL     1      -0.130   5.237  12.441  1.00  0.00    -0.224 N 
ATOM     18  H1  UNL     1       0.542   5.503  13.161  1.00  0.00     0.177 HD
BRANCH  17  19
HETATM   19  C3  UNL     1       0.279   5.352  11.076  1.00  0.00     0.164 C 
BRANCH  19  20
HETATM   20  C2  UNL     1       0.827   4.121  10.441  1.00  0.00     0.187 C 
BRANCH  20  21
HETATM   21  O1  UNL     1      -0.001   3.247   9.868  1.00  0.00    -0.394 OA
HETATM   22  C1  UNL     1      -0.870   3.710   8.946  1.00  0.00     0.201 C 
ENDBRANCH  20  21
ENDBRANCH  19  20
ENDBRANCH  17  19
ENDBRANCH   1  17
TORSDOF 5
ENDMDL
