MODEL 1
REMARK VINA RESULT: -6.719287613      0.000      0.000
REMARK  4 active torsions:
REMARK  status: ('A' for Active; 'I' for Inactive)
REMARK    1  A    between atoms: C2_2  and  C3_3 
REMARK    2  A    between atoms: C4_4  and  C5_5 
REMARK       I    between atoms: C5_5  and  N1_7 
REMARK    3  A    between atoms: N1_7  and  C6_9 
REMARK    4  A    between atoms: N2_12  and  C9_13 
ROOT
HETATM    1  C5  UNL     1      -3.063   3.088  11.311  1.00  0.00     0.249 C 
HETATM    2  O1  UNL     1      -3.995   3.161  10.469  1.00  0.00    -0.271 OA
HETATM    3  N1  UNL     1      -3.278   2.392  12.509  1.00  0.00    -0.350 N 
ATOM      4  H1  UNL     1      -2.512   2.343  13.181  1.00  0.00     0.163 HD
ENDROOT
BRANCH   1   5
HETATM    5  C4  UNL     1      -1.779   3.727  11.032  1.00  0.00     0.287 C 
HETATM    6  C3  UNL     1      -1.276   4.580  12.227  1.00  0.00     0.088 C 
HETATM    7  C15 UNL     1      -0.116   5.225  11.524  1.00  0.00     0.146 C 
HETATM    8  C14 UNL     1      -0.616   5.500  10.130  1.00  0.00     0.276 C 
HETATM    9 CL1  UNL     1       0.534   6.661  12.260  1.00  0.00    -0.099 Cl
HETATM   10 CL2  UNL     1       1.185   3.990  11.367  1.00  0.00    -0.099 Cl
HETATM   11  N3  UNL     1      -1.815   4.722  10.007  1.00  0.00    -0.059 N 
ATOM     12  H32 UNL     1      -1.943   4.329   9.074  1.00  0.00     0.278 HD
ATOM     13  H31 UNL     1      -2.663   5.287  10.028  1.00  0.00     0.278 HD
BRANCH   6  14
HETATM   14  C2  UNL     1      -2.387   5.436  12.613  1.00  0.00    -0.027 C 
HETATM   15  C1  UNL     1      -2.747   5.851  13.796  1.00  0.00     0.007 C 
ENDBRANCH   6  14
ENDBRANCH   1   5
BRANCH   3  16
HETATM   16  C6  UNL     1      -4.529   1.735  12.849  1.00  0.00     0.128 C 
HETATM   17  C7  UNL     1      -4.307   0.322  13.324  1.00  0.00     0.075 C 
HETATM   18  C8  UNL     1      -4.487   0.368  14.825  1.00  0.00     0.066 C 
HETATM   19  N2  UNL     1      -5.004   1.604  15.109  1.00  0.00    -0.367 N 
HETATM   20  C13 UNL     1      -5.234   2.418  14.005  1.00  0.00     0.089 C 
BRANCH  19  21
HETATM   21  C9  UNL     1      -5.317   2.027  16.394  1.00  0.00     0.088 C 
HETATM   22  C10 UNL     1      -5.782   1.073  17.428  1.00  0.00     0.026 C 
HETATM   23  C11 UNL     1      -7.198   1.531  17.193  1.00  0.00     0.004 C 
HETATM   24  C12 UNL     1      -6.613   2.791  16.590  1.00  0.00     0.026 C 
ENDBRANCH  19  21
ENDBRANCH   3  16
TORSDOF 4
ENDMDL
MODEL 2
REMARK VINA RESULT: -6.638258607      1.119      1.271
REMARK  4 active torsions:
REMARK  status: ('A' for Active; 'I' for Inactive)
REMARK    1  A    between atoms: C2_2  and  C3_3 
REMARK    2  A    between atoms: C4_4  and  C5_5 
REMARK       I    between atoms: C5_5  and  N1_7 
REMARK    3  A    between atoms: N1_7  and  C6_9 
REMARK    4  A    between atoms: N2_12  and  C9_13 
ROOT
HETATM    1  C5  UNL     1      -3.558   4.081  12.029  1.00  0.00     0.249 C 
HETATM    2  O1  UNL     1      -4.608   4.349  11.390  1.00  0.00    -0.271 OA
HETATM    3  N1  UNL     1      -3.555   2.992  12.912  1.00  0.00    -0.350 N 
ATOM      4  H1  UNL     1      -2.695   2.789  13.422  1.00  0.00     0.163 HD
ENDROOT
BRANCH   1   5
HETATM    5  C4  UNL     1      -2.365   4.905  11.846  1.00  0.00     0.287 C 
HETATM    6  C3  UNL     1      -1.989   5.688  13.131  1.00  0.00     0.088 C 
HETATM    7  C15 UNL     1      -0.916   6.545  12.525  1.00  0.00     0.146 C 
HETATM    8  C14 UNL     1      -1.433   6.895  11.153  1.00  0.00     0.276 C 
HETATM    9 CL1  UNL     1      -0.466   7.969  13.416  1.00  0.00    -0.099 Cl
HETATM   10 CL2  UNL     1       0.536   5.509  12.275  1.00  0.00    -0.099 Cl
HETATM   11  N3  UNL     1      -2.519   5.986  10.925  1.00  0.00    -0.059 N 
ATOM     12  H32 UNL     1      -2.586   5.678   9.955  1.00  0.00     0.278 HD
ATOM     13  H31 UNL     1      -3.434   6.433  10.983  1.00  0.00     0.278 HD
BRANCH   6  14
HETATM   14  C2  UNL     1      -3.206   6.351  13.575  1.00  0.00    -0.027 C 
HETATM   15  C1  UNL     1      -3.580   6.688  14.779  1.00  0.00     0.007 C 
ENDBRANCH   6  14
ENDBRANCH   1   5
BRANCH   3  16
HETATM   16  C6  UNL     1      -4.705   2.133  13.140  1.00  0.00     0.128 C 
HETATM   17  C7  UNL     1      -4.294   0.712  13.426  1.00  0.00     0.075 C 
HETATM   18  C8  UNL     1      -4.474   0.531  14.916  1.00  0.00     0.066 C 
HETATM   19  N2  UNL     1      -5.152   1.636  15.355  1.00  0.00    -0.367 N 
HETATM   20  C13 UNL     1      -5.493   2.554  14.367  1.00  0.00     0.089 C 
BRANCH  19  21
HETATM   21  C9  UNL     1      -5.517   1.837  16.680  1.00  0.00     0.088 C 
HETATM   22  C10 UNL     1      -5.948   0.710  17.539  1.00  0.00     0.026 C 
HETATM   23  C11 UNL     1      -7.383   1.122  17.336  1.00  0.00     0.004 C 
HETATM   24  C12 UNL     1      -6.858   2.491  16.953  1.00  0.00     0.026 C 
ENDBRANCH  19  21
ENDBRANCH   3  16
TORSDOF 4
ENDMDL
MODEL 3
REMARK VINA RESULT: -6.515246109      1.261      1.508
REMARK  4 active torsions:
REMARK  status: ('A' for Active; 'I' for Inactive)
REMARK    1  A    between atoms: C2_2  and  C3_3 
REMARK    2  A    between atoms: C4_4  and  C5_5 
REMARK       I    between atoms: C5_5  and  N1_7 
REMARK    3  A    between atoms: N1_7  and  C6_9 
REMARK    4  A    between atoms: N2_12  and  C9_13 
ROOT
HETATM    1  C5  UNL     1      -2.754   2.503  11.554  1.00  0.00     0.249 C 
HETATM    2  O1  UNL     1      -3.183   1.726  10.662  1.00  0.00    -0.271 OA
HETATM    3  N1  UNL     1      -3.436   2.584  12.776  1.00  0.00    -0.350 N 
ATOM      4  H1  UNL     1      -3.075   3.219  13.488  1.00  0.00     0.163 HD
ENDROOT
BRANCH   1   5
HETATM    5  C4  UNL     1      -1.558   3.306  11.305  1.00  0.00     0.287 C 
HETATM    6  C3  UNL     1      -1.898   4.795  11.036  1.00  0.00     0.088 C 
HETATM    7  C15 UNL     1      -0.522   5.231  10.620  1.00  0.00     0.146 C 
HETATM    8  C14 UNL     1       0.019   4.079   9.814  1.00  0.00     0.276 C 
HETATM    9 CL1  UNL     1      -0.416   6.727   9.740  1.00  0.00    -0.099 Cl
HETATM   10 CL2  UNL     1       0.491   5.337  12.106  1.00  0.00    -0.099 Cl
HETATM   11  N3  UNL     1      -0.859   2.982  10.102  1.00  0.00    -0.059 N 
ATOM     12  H32 UNL     1      -0.376   2.085  10.149  1.00  0.00     0.278 HD
ATOM     13  H31 UNL     1      -1.482   2.754   9.327  1.00  0.00     0.278 HD
BRANCH   6  14
HETATM   14  C2  UNL     1      -2.938   4.799  10.018  1.00  0.00    -0.027 C 
HETATM   15  C1  UNL     1      -4.045   5.486   9.962  1.00  0.00     0.007 C 
ENDBRANCH   6  14
ENDBRANCH   1   5
BRANCH   3  16
HETATM   16  C6  UNL     1      -4.629   1.814  13.088  1.00  0.00     0.128 C 
HETATM   17  C7  UNL     1      -4.292   0.409  13.517  1.00  0.00     0.075 C 
HETATM   18  C8  UNL     1      -4.477   0.390  15.018  1.00  0.00     0.066 C 
HETATM   19  N2  UNL     1      -5.095   1.569  15.340  1.00  0.00    -0.367 N 
HETATM   20  C13 UNL     1      -5.390   2.398  14.264  1.00  0.00     0.089 C 
BRANCH  19  21
HETATM   21  C9  UNL     1      -5.445   1.922  16.638  1.00  0.00     0.088 C 
HETATM   22  C10 UNL     1      -5.894   0.905  17.618  1.00  0.00     0.026 C 
HETATM   23  C11 UNL     1      -7.320   1.325  17.378  1.00  0.00     0.004 C 
HETATM   24  C12 UNL     1      -6.769   2.631  16.844  1.00  0.00     0.026 C 
ENDBRANCH  19  21
ENDBRANCH   3  16
TORSDOF 4
ENDMDL
MODEL 4
REMARK VINA RESULT: -6.497998325      1.282      1.972
REMARK  4 active torsions:
REMARK  status: ('A' for Active; 'I' for Inactive)
REMARK    1  A    between atoms: C2_2  and  C3_3 
REMARK    2  A    between atoms: C4_4  and  C5_5 
REMARK       I    between atoms: C5_5  and  N1_7 
REMARK    3  A    between atoms: N1_7  and  C6_9 
REMARK    4  A    between atoms: N2_12  and  C9_13 
ROOT
HETATM    1  C5  UNL     1      -3.384   3.801  11.493  1.00  0.00     0.249 C 
HETATM    2  O1  UNL     1      -4.101   3.491  10.507  1.00  0.00    -0.271 OA
HETATM    3  N1  UNL     1      -3.749   3.353  12.771  1.00  0.00    -0.350 N 
ATOM      4  H1  UNL     1      -3.157   3.614  13.559  1.00  0.00     0.163 HD
ENDROOT
BRANCH   1   5
HETATM    5  C4  UNL     1      -2.190   4.619  11.296  1.00  0.00     0.287 C 
HETATM    6  C3  UNL     1      -1.053   3.836  10.587  1.00  0.00     0.088 C 
HETATM    7  C15 UNL     1       0.023   4.870  10.756  1.00  0.00     0.146 C 
HETATM    8  C14 UNL     1      -0.206   5.442  12.131  1.00  0.00     0.276 C 
HETATM    9 CL1  UNL     1       1.662   4.320  10.562  1.00  0.00    -0.099 Cl
HETATM   10 CL2  UNL     1      -0.306   6.199   9.586  1.00  0.00    -0.099 Cl
HETATM   11  N3  UNL     1      -1.522   5.005  12.499  1.00  0.00    -0.059 N 
ATOM     12  H32 UNL     1      -2.039   5.700  13.037  1.00  0.00     0.278 HD
ATOM     13  H31 UNL     1      -1.516   4.270  13.206  1.00  0.00     0.278 HD
BRANCH   6  14
HETATM   14  C2  UNL     1      -0.903   2.586  11.317  1.00  0.00    -0.027 C 
HETATM   15  C1  UNL     1      -1.366   1.399  11.039  1.00  0.00     0.007 C 
ENDBRANCH   6  14
ENDBRANCH   1   5
BRANCH   3  16
HETATM   16  C6  UNL     1      -4.923   2.538  13.037  1.00  0.00     0.128 C 
HETATM   17  C7  UNL     1      -4.570   1.078  13.172  1.00  0.00     0.075 C 
HETATM   18  C8  UNL     1      -4.630   0.784  14.654  1.00  0.00     0.066 C 
HETATM   19  N2  UNL     1      -5.202   1.883  15.238  1.00  0.00    -0.367 N 
HETATM   20  C13 UNL     1      -5.575   2.894  14.360  1.00  0.00     0.089 C 
BRANCH  19  21
HETATM   21  C9  UNL     1      -5.437   1.991  16.602  1.00  0.00     0.088 C 
HETATM   22  C10 UNL     1      -5.795   0.808  17.419  1.00  0.00     0.026 C 
HETATM   23  C11 UNL     1      -7.239   1.237  17.382  1.00  0.00     0.004 C 
HETATM   24  C12 UNL     1      -6.741   2.628  17.046  1.00  0.00     0.026 C 
ENDBRANCH  19  21
ENDBRANCH   3  16
TORSDOF 4
ENDMDL
MODEL 5
REMARK VINA RESULT: -6.274177399      1.301      1.906
REMARK  4 active torsions:
REMARK  status: ('A' for Active; 'I' for Inactive)
REMARK    1  A    between atoms: C2_2  and  C3_3 
REMARK    2  A    between atoms: C4_4  and  C5_5 
REMARK       I    between atoms: C5_5  and  N1_7 
REMARK    3  A    between atoms: N1_7  and  C6_9 
REMARK    4  A    between atoms: N2_12  and  C9_13 
ROOT
HETATM    1  C5  UNL     1      -2.835   3.950  12.612  1.00  0.00     0.249 C 
HETATM    2  O1  UNL     1      -3.814   4.726  12.469  1.00  0.00    -0.271 OA
HETATM    3  N1  UNL     1      -3.070   2.604  12.929  1.00  0.00    -0.350 N 
ATOM      4  H1  UNL     1      -2.264   1.989  13.041  1.00  0.00     0.163 HD
ENDROOT
BRANCH   1   5
HETATM    5  C4  UNL     1      -1.474   4.458  12.449  1.00  0.00     0.287 C 
HETATM    6  C3  UNL     1      -1.320   5.319  11.168  1.00  0.00     0.088 C 
HETATM    7  C15 UNL     1       0.174   5.464  11.215  1.00  0.00     0.146 C 
HETATM    8  C14 UNL     1       0.675   4.123  11.688  1.00  0.00     0.276 C 
HETATM    9 CL1  UNL     1       0.953   5.947   9.737  1.00  0.00    -0.099 Cl
HETATM   10 CL2  UNL     1       0.569   6.646  12.515  1.00  0.00    -0.099 Cl
HETATM   11  N3  UNL     1      -0.486   3.456  12.202  1.00  0.00    -0.059 N 
ATOM     12  H32 UNL     1      -0.287   2.881  13.021  1.00  0.00     0.278 HD
ATOM     13  H31 UNL     1      -0.819   2.707  11.595  1.00  0.00     0.278 HD
BRANCH   6  14
HETATM   14  C2  UNL     1      -1.884   4.535  10.079  1.00  0.00    -0.027 C 
HETATM   15  C1  UNL     1      -2.498   4.932   8.998  1.00  0.00     0.007 C 
ENDBRANCH   6  14
ENDBRANCH   1   5
BRANCH   3  16
HETATM   16  C6  UNL     1      -4.396   2.035  13.105  1.00  0.00     0.128 C 
HETATM   17  C7  UNL     1      -4.342   0.540  13.290  1.00  0.00     0.075 C 
HETATM   18  C8  UNL     1      -4.577   0.308  14.766  1.00  0.00     0.066 C 
HETATM   19  N2  UNL     1      -4.974   1.512  15.282  1.00  0.00    -0.367 N 
HETATM   20  C13 UNL     1      -5.073   2.549  14.361  1.00  0.00     0.089 C 
BRANCH  19  21
HETATM   21  C9  UNL     1      -5.294   1.705  16.620  1.00  0.00     0.088 C 
HETATM   22  C10 UNL     1      -5.878   0.615  17.437  1.00  0.00     0.026 C 
HETATM   23  C11 UNL     1      -7.239   1.240  17.272  1.00  0.00     0.004 C 
HETATM   24  C12 UNL     1      -6.524   2.533  16.940  1.00  0.00     0.026 C 
ENDBRANCH  19  21
ENDBRANCH   3  16
TORSDOF 4
ENDMDL
