MODEL 1
REMARK VINA RESULT: -6.928548639      0.000      0.000
REMARK  4 active torsions:
REMARK  status: ('A' for Active; 'I' for Inactive)
REMARK       I    between atoms: C1_2  and  N1_3 
REMARK    1  A    between atoms: C1_2  and  C5_8 
REMARK    2  A    between atoms: N1_3  and  C2_5 
REMARK       I    between atoms: N2_11  and  C8_12 
REMARK       I    between atoms: C8_12  and  N3_14 
REMARK    3  A    between atoms: N3_14  and  N4_16 
REMARK    4  A    between atoms: C9_18  and  C10_19 
ROOT
HETATM    1  C5  UNL     1      -3.591   3.467  10.901  1.00  0.00     0.081 C 
HETATM    2  C6  UNL     1      -3.370   3.935  12.289  1.00  0.00     0.034 C 
HETATM    3  C7  UNL     1      -3.894   3.073  13.367  1.00  0.00     0.128 C 
HETATM    4  N2  UNL     1      -4.159   1.721  13.032  1.00  0.00    -0.333 N 
HETATM    5  C8  UNL     1      -4.443   0.788  14.057  1.00  0.00     0.336 C 
HETATM    6  O2  UNL     1      -4.684  -0.421  13.804  1.00  0.00    -0.245 OA
HETATM    7  N3  UNL     1      -4.459   1.215  15.400  1.00  0.00    -0.252 N 
ATOM      8  H3  UNL     1      -4.266   2.191  15.629  1.00  0.00     0.191 HD
HETATM    9  C11 UNL     1      -4.153   1.246  11.665  1.00  0.00     0.128 C 
HETATM   10  C12 UNL     1      -4.682   2.421  10.830  1.00  0.00     0.034 C 
ENDROOT
BRANCH   7  11
HETATM   11  N4  UNL     1      -4.735   0.308  16.407  1.00  0.00    -0.309 N 
HETATM   12  C9  UNL     1      -5.573   0.518  17.346  1.00  0.00     0.116 C 
ATOM     13  H4  UNL     1      -4.239  -0.583  16.399  1.00  0.00     0.185 HD
BRANCH  12  14
HETATM   14  C10 UNL     1      -6.336   1.777  17.438  1.00  0.00     0.218 C 
HETATM   15 CL1  UNL     1      -6.385   2.342  19.142  1.00  0.00    -0.102 Cl
HETATM   16 CL2  UNL     1      -8.000   1.513  16.896  1.00  0.00    -0.102 Cl
ENDBRANCH  12  14
ENDBRANCH   7  11
BRANCH   1  17
HETATM   17  C1  UNL     1      -3.882   4.523   9.930  1.00  0.00     0.222 C 
HETATM   18  O1  UNL     1      -3.147   4.752   8.926  1.00  0.00    -0.273 OA
HETATM   19  N1  UNL     1      -5.030   5.333  10.103  1.00  0.00    -0.356 N 
ATOM     20  H1  UNL     1      -5.643   5.173  10.903  1.00  0.00     0.162 HD
BRANCH  19  21
HETATM   21  C2  UNL     1      -5.348   6.394   9.155  1.00  0.00     0.084 A 
HETATM   22  C3  UNL     1      -6.766   6.691   8.847  1.00  0.00     0.027 A 
HETATM   23  C4  UNL     1      -6.037   7.612   9.786  1.00  0.00     0.027 A 
ENDBRANCH  19  21
ENDBRANCH   1  17
TORSDOF 4
ENDMDL
MODEL 2
REMARK VINA RESULT: -6.864727953      3.259      7.555
REMARK  4 active torsions:
REMARK  status: ('A' for Active; 'I' for Inactive)
REMARK       I    between atoms: C1_2  and  N1_3 
REMARK    1  A    between atoms: C1_2  and  C5_8 
REMARK    2  A    between atoms: N1_3  and  C2_5 
REMARK       I    between atoms: N2_11  and  C8_12 
REMARK       I    between atoms: C8_12  and  N3_14 
REMARK    3  A    between atoms: N3_14  and  N4_16 
REMARK    4  A    between atoms: C9_18  and  C10_19 
ROOT
HETATM    1  C5  UNL     1      -4.101   1.710  13.617  1.00  0.00     0.081 C 
HETATM    2  C6  UNL     1      -4.675   1.421  12.282  1.00  0.00     0.034 C 
HETATM    3  C7  UNL     1      -4.803   2.564  11.357  1.00  0.00     0.128 C 
HETATM    4  N2  UNL     1      -4.003   3.702  11.633  1.00  0.00    -0.333 N 
HETATM    5  C8  UNL     1      -3.902   4.737  10.674  1.00  0.00     0.336 C 
HETATM    6  O2  UNL     1      -3.203   5.763  10.878  1.00  0.00    -0.245 OA
HETATM    7  N3  UNL     1      -4.600   4.624   9.454  1.00  0.00    -0.252 N 
ATOM      8  H3  UNL     1      -5.172   3.800   9.267  1.00  0.00     0.191 HD
HETATM    9  C11 UNL     1      -3.274   3.853  12.874  1.00  0.00     0.128 C 
HETATM   10  C12 UNL     1      -4.155   3.186  13.941  1.00  0.00     0.034 C 
ENDROOT
BRANCH   7  11
HETATM   11  N4  UNL     1      -4.505   5.632   8.512  1.00  0.00    -0.309 N 
HETATM   12  C9  UNL     1      -5.390   6.535   8.343  1.00  0.00     0.116 C 
ATOM     13  H4  UNL     1      -3.677   5.655   7.916  1.00  0.00     0.185 HD
BRANCH  12  14
HETATM   14  C10 UNL     1      -6.619   6.580   9.157  1.00  0.00     0.218 C 
HETATM   15 CL1  UNL     1      -7.965   7.286   8.200  1.00  0.00    -0.102 Cl
HETATM   16 CL2  UNL     1      -6.360   7.599  10.581  1.00  0.00    -0.102 Cl
ENDBRANCH  12  14
ENDBRANCH   7  11
BRANCH   1  17
HETATM   17  C1  UNL     1      -4.697   0.959  14.723  1.00  0.00     0.222 C 
HETATM   18  O1  UNL     1      -4.712  -0.305  14.763  1.00  0.00    -0.273 OA
HETATM   19  N1  UNL     1      -5.287   1.659  15.803  1.00  0.00    -0.356 N 
ATOM     20  H1  UNL     1      -5.290   2.680  15.801  1.00  0.00     0.162 HD
BRANCH  19  21
HETATM   21  C2  UNL     1      -5.889   0.942  16.921  1.00  0.00     0.084 A 
HETATM   22  C3  UNL     1      -6.246   1.684  18.152  1.00  0.00     0.027 A 
HETATM   23  C4  UNL     1      -7.350   1.326  17.196  1.00  0.00     0.027 A 
ENDBRANCH  19  21
ENDBRANCH   1  17
TORSDOF 4
ENDMDL
MODEL 3
REMARK VINA RESULT: -6.698431169      3.641      7.741
REMARK  4 active torsions:
REMARK  status: ('A' for Active; 'I' for Inactive)
REMARK       I    between atoms: C1_2  and  N1_3 
REMARK    1  A    between atoms: C1_2  and  C5_8 
REMARK    2  A    between atoms: N1_3  and  C2_5 
REMARK       I    between atoms: N2_11  and  C8_12 
REMARK       I    between atoms: C8_12  and  N3_14 
REMARK    3  A    between atoms: N3_14  and  N4_16 
REMARK    4  A    between atoms: C9_18  and  C10_19 
ROOT
HETATM    1  C5  UNL     1      -3.752   3.443  14.768  1.00  0.00     0.081 C 
HETATM    2  C6  UNL     1      -3.901   3.113  13.332  1.00  0.00     0.034 C 
HETATM    3  C7  UNL     1      -4.293   4.220  12.438  1.00  0.00     0.128 C 
HETATM    4  N2  UNL     1      -4.077   5.537  12.919  1.00  0.00    -0.333 N 
HETATM    5  C8  UNL     1      -4.215   6.636  12.039  1.00  0.00     0.336 C 
HETATM    6  O2  UNL     1      -4.032   7.819  12.423  1.00  0.00    -0.245 OA
HETATM    7  N3  UNL     1      -4.567   6.407  10.692  1.00  0.00    -0.252 N 
ATOM      8  H3  UNL     1      -4.720   5.455  10.359  1.00  0.00     0.191 HD
HETATM    9  C11 UNL     1      -3.716   5.810  14.293  1.00  0.00     0.128 C 
HETATM   10  C12 UNL     1      -4.445   4.740  15.119  1.00  0.00     0.034 C 
ENDROOT
BRANCH   7  11
HETATM   11  N4  UNL     1      -4.703   7.477   9.827  1.00  0.00    -0.309 N 
HETATM   12  C9  UNL     1      -5.822   8.002   9.513  1.00  0.00     0.116 C 
ATOM     13  H4  UNL     1      -3.857   7.870   9.414  1.00  0.00     0.185 HD
BRANCH  12  14
HETATM   14  C10 UNL     1      -7.096   7.500  10.061  1.00  0.00     0.218 C 
HETATM   15 CL1  UNL     1      -8.452   7.947   8.971  1.00  0.00    -0.102 Cl
HETATM   16 CL2  UNL     1      -7.399   8.228  11.645  1.00  0.00    -0.102 Cl
ENDBRANCH  12  14
ENDBRANCH   7  11
BRANCH   1  17
HETATM   17  C1  UNL     1      -4.199   2.400  15.692  1.00  0.00     0.222 C 
HETATM   18  O1  UNL     1      -3.396   1.660  16.332  1.00  0.00    -0.273 OA
HETATM   19  N1  UNL     1      -5.586   2.194  15.894  1.00  0.00    -0.356 N 
ATOM     20  H1  UNL     1      -6.259   2.775  15.394  1.00  0.00     0.162 HD
BRANCH  19  21
HETATM   21  C2  UNL     1      -6.065   1.164  16.808  1.00  0.00     0.084 A 
HETATM   22  C3  UNL     1      -6.464   1.542  18.184  1.00  0.00     0.027 A 
HETATM   23  C4  UNL     1      -7.550   1.294  17.174  1.00  0.00     0.027 A 
ENDBRANCH  19  21
ENDBRANCH   1  17
TORSDOF 4
ENDMDL
MODEL 4
REMARK VINA RESULT: -6.645483361      4.907      7.634
REMARK  4 active torsions:
REMARK  status: ('A' for Active; 'I' for Inactive)
REMARK       I    between atoms: C1_2  and  N1_3 
REMARK    1  A    between atoms: C1_2  and  C5_8 
REMARK    2  A    between atoms: N1_3  and  C2_5 
REMARK       I    between atoms: N2_11  and  C8_12 
REMARK       I    between atoms: C8_12  and  N3_14 
REMARK    3  A    between atoms: N3_14  and  N4_16 
REMARK    4  A    between atoms: C9_18  and  C10_19 
ROOT
HETATM    1  C5  UNL     1      -4.950   3.258  13.723  1.00  0.00     0.081 C 
HETATM    2  C6  UNL     1      -3.962   4.361  13.667  1.00  0.00     0.034 C 
HETATM    3  C7  UNL     1      -2.712   4.090  12.932  1.00  0.00     0.128 C 
HETATM    4  N2  UNL     1      -2.733   3.014  12.008  1.00  0.00    -0.333 N 
HETATM    5  C8  UNL     1      -1.654   2.839  11.110  1.00  0.00     0.336 C 
HETATM    6  O2  UNL     1      -1.633   1.900  10.275  1.00  0.00    -0.245 OA
HETATM    7  N3  UNL     1      -0.569   3.739  11.146  1.00  0.00    -0.252 N 
ATOM      8  H3  UNL     1      -0.565   4.509  11.815  1.00  0.00     0.191 HD
HETATM    9  C11 UNL     1      -3.829   2.072  11.944  1.00  0.00     0.128 C 
HETATM   10  C12 UNL     1      -4.318   1.925  13.392  1.00  0.00     0.034 C 
ENDROOT
BRANCH   7  11
HETATM   11  N4  UNL     1       0.489   3.574  10.270  1.00  0.00    -0.309 N 
HETATM   12  C9  UNL     1       1.600   4.192  10.370  1.00  0.00     0.116 C 
ATOM     13  H4  UNL     1       0.374   2.918   9.497  1.00  0.00     0.185 HD
BRANCH  12  14
HETATM   14  C10 UNL     1       1.856   5.158  11.454  1.00  0.00     0.218 C 
HETATM   15 CL1  UNL     1       1.485   6.824  10.893  1.00  0.00    -0.102 Cl
HETATM   16 CL2  UNL     1       3.562   5.101  11.922  1.00  0.00    -0.102 Cl
ENDBRANCH  12  14
ENDBRANCH   7  11
BRANCH   1  17
HETATM   17  C1  UNL     1      -5.674   3.139  14.990  1.00  0.00     0.222 C 
HETATM   18  O1  UNL     1      -6.547   3.976  15.361  1.00  0.00    -0.273 OA
HETATM   19  N1  UNL     1      -5.401   2.048  15.850  1.00  0.00    -0.356 N 
ATOM     20  H1  UNL     1      -4.702   1.355  15.578  1.00  0.00     0.162 HD
BRANCH  19  21
HETATM   21  C2  UNL     1      -6.104   1.900  17.118  1.00  0.00     0.084 A 
HETATM   22  C3  UNL     1      -7.379   1.146  17.158  1.00  0.00     0.027 A 
HETATM   23  C4  UNL     1      -6.135   0.461  17.653  1.00  0.00     0.027 A 
ENDBRANCH  19  21
ENDBRANCH   1  17
TORSDOF 4
ENDMDL
MODEL 5
REMARK VINA RESULT: -6.558056141      1.196      1.459
REMARK  4 active torsions:
REMARK  status: ('A' for Active; 'I' for Inactive)
REMARK       I    between atoms: C1_2  and  N1_3 
REMARK    1  A    between atoms: C1_2  and  C5_8 
REMARK    2  A    between atoms: N1_3  and  C2_5 
REMARK       I    between atoms: N2_11  and  C8_12 
REMARK       I    between atoms: C8_12  and  N3_14 
REMARK    3  A    between atoms: N3_14  and  N4_16 
REMARK    4  A    between atoms: C9_18  and  C10_19 
ROOT
HETATM    1  C5  UNL     1      -3.492   3.948  11.024  1.00  0.00     0.081 C 
HETATM    2  C6  UNL     1      -3.310   4.302  12.451  1.00  0.00     0.034 C 
HETATM    3  C7  UNL     1      -3.844   3.347  13.441  1.00  0.00     0.128 C 
HETATM    4  N2  UNL     1      -4.081   2.023  12.990  1.00  0.00    -0.333 N 
HETATM    5  C8  UNL     1      -4.372   1.004  13.927  1.00  0.00     0.336 C 
HETATM    6  O2  UNL     1      -4.588  -0.182  13.570  1.00  0.00    -0.245 OA
HETATM    7  N3  UNL     1      -4.425   1.319  15.301  1.00  0.00    -0.252 N 
ATOM      8  H3  UNL     1      -4.253   2.275  15.613  1.00  0.00     0.191 HD
HETATM    9  C11 UNL     1      -4.035   1.664  11.589  1.00  0.00     0.128 C 
HETATM   10  C12 UNL     1      -4.565   2.897  10.842  1.00  0.00     0.034 C 
ENDROOT
BRANCH   7  11
HETATM   11  N4  UNL     1      -4.709   0.327  16.222  1.00  0.00    -0.309 N 
HETATM   12  C9  UNL     1      -5.568   0.449  17.157  1.00  0.00     0.116 C 
ATOM     13  H4  UNL     1      -4.201  -0.554  16.150  1.00  0.00     0.185 HD
BRANCH  12  14
HETATM   14  C10 UNL     1      -6.349   1.687  17.338  1.00  0.00     0.218 C 
HETATM   15 CL1  UNL     1      -6.286   2.207  19.056  1.00  0.00    -0.102 Cl
HETATM   16 CL2  UNL     1      -8.043   1.398  16.911  1.00  0.00    -0.102 Cl
ENDBRANCH  12  14
ENDBRANCH   7  11
BRANCH   1  17
HETATM   17  C1  UNL     1      -3.778   5.076  10.138  1.00  0.00     0.222 C 
HETATM   18  O1  UNL     1      -3.648   6.282  10.499  1.00  0.00    -0.273 OA
HETATM   19  N1  UNL     1      -4.218   4.830   8.814  1.00  0.00    -0.356 N 
ATOM     20  H1  UNL     1      -4.332   3.869   8.492  1.00  0.00     0.162 HD
BRANCH  19  21
HETATM   21  C2  UNL     1      -4.511   5.932   7.906  1.00  0.00     0.084 A 
HETATM   22  C3  UNL     1      -3.664   6.129   6.707  1.00  0.00     0.027 A 
HETATM   23  C4  UNL     1      -5.011   5.487   6.524  1.00  0.00     0.027 A 
ENDBRANCH  19  21
ENDBRANCH   1  17
TORSDOF 4
ENDMDL
