MODEL 1
REMARK VINA RESULT: -7.607239189      0.000      0.000
REMARK  7 active torsions:
REMARK  status: ('A' for Active; 'I' for Inactive)
REMARK    1  A    between atoms: C3_4  and  C4_5 
REMARK    2  A    between atoms: C4_5  and  C5_6 
REMARK    3  A    between atoms: C5_6  and  N2_7 
REMARK    4  A    between atoms: C8_10  and  O1_11 
REMARK    5  A    between atoms: C8_10  and  C9_13 
REMARK    6  A    between atoms: C10_17  and  C11_18 
REMARK    7  A    between atoms: C11_18  and  O2_19 
ROOT
HETATM    1  N2  UNL     1      -3.707   2.431  11.421  1.00  0.00     0.099 N 
HETATM    2  C6  UNL     1      -5.067   1.952  11.339  1.00  0.00     0.276 C 
HETATM    3  C7  UNL     1      -4.993   0.768  10.462  1.00  0.00     0.079 C 
HETATM    4  C8  UNL     1      -3.681   0.125  10.833  1.00  0.00     0.190 C 
HETATM    5  C10 UNL     1      -2.897   1.263  11.393  1.00  0.00     0.289 C 
ENDROOT
BRANCH   1   6
HETATM    6  C5  UNL     1      -3.649   3.232  12.603  1.00  0.00     0.277 C 
BRANCH   6   7
HETATM    7  C4  UNL     1      -4.893   3.939  13.001  1.00  0.00     0.070 C 
BRANCH   7   8
HETATM    8  C3  UNL     1      -5.264   3.482  14.391  1.00  0.00    -0.039 A 
HETATM    9  C2  UNL     1      -4.900   2.229  14.852  1.00  0.00     0.098 A 
HETATM   10  N1  UNL     1      -5.213   1.788  16.091  1.00  0.00    -0.350 N 
HETATM   11  C1  UNL     1      -4.813   0.460  16.541  1.00  0.00     0.156 C 
HETATM   12  C14 UNL     1      -5.907   2.578  16.936  1.00  0.00     0.127 A 
HETATM   13  C13 UNL     1      -6.300   3.839  16.539  1.00  0.00     0.073 A 
HETATM   14 CL2  UNL     1      -6.345   2.065  18.558  1.00  0.00    -0.062 Cl
HETATM   15  C12 UNL     1      -5.973   4.280  15.267  1.00  0.00     0.035 A 
HETATM   16 CL1  UNL     1      -7.200   4.878  17.621  1.00  0.00    -0.081 Cl
ENDBRANCH   7   8
ENDBRANCH   6   7
ENDBRANCH   1   6
BRANCH   5  17
HETATM   17  C11 UNL     1      -1.611   1.517  10.641  1.00  0.00     0.203 C 
BRANCH  17  18
HETATM   18  O2  UNL     1      -1.780   2.192   9.463  1.00  0.00    -0.399 OA
ATOM     19  H2  UNL     1      -1.066   2.782   9.251  1.00  0.00     0.209 HD
ENDBRANCH  17  18
ENDBRANCH   5  17
BRANCH   4  20
HETATM   20  O1  UNL     1      -3.154  -0.371   9.638  1.00  0.00    -0.379 OA
ATOM     21  H1  UNL     1      -2.221  -0.197   9.678  1.00  0.00     0.211 HD
ENDBRANCH   4  20
BRANCH   4  22
HETATM   22  C9  UNL     1      -3.926  -0.995  11.807  1.00  0.00     0.420 C 
HETATM   23  F1  UNL     1      -4.091  -0.504  13.108  1.00  0.00    -0.168 F 
HETATM   24  F2  UNL     1      -5.047  -1.735  11.553  1.00  0.00    -0.168 F 
HETATM   25  F3  UNL     1      -2.862  -1.873  11.869  1.00  0.00    -0.168 F 
ENDBRANCH   4  22
TORSDOF 7
ENDMDL
MODEL 2
REMARK VINA RESULT: -7.198170270      0.918      1.974
REMARK  7 active torsions:
REMARK  status: ('A' for Active; 'I' for Inactive)
REMARK    1  A    between atoms: C3_4  and  C4_5 
REMARK    2  A    between atoms: C4_5  and  C5_6 
REMARK    3  A    between atoms: C5_6  and  N2_7 
REMARK    4  A    between atoms: C8_10  and  O1_11 
REMARK    5  A    between atoms: C8_10  and  C9_13 
REMARK    6  A    between atoms: C10_17  and  C11_18 
REMARK    7  A    between atoms: C11_18  and  O2_19 
ROOT
HETATM    1  N2  UNL     1      -3.637   2.477  11.420  1.00  0.00     0.099 N 
HETATM    2  C6  UNL     1      -5.011   2.036  11.369  1.00  0.00     0.276 C 
HETATM    3  C7  UNL     1      -4.988   0.845  10.500  1.00  0.00     0.079 C 
HETATM    4  C8  UNL     1      -3.687   0.167  10.849  1.00  0.00     0.190 C 
HETATM    5  C10 UNL     1      -2.861   1.286  11.384  1.00  0.00     0.289 C 
ENDROOT
BRANCH   1   6
HETATM    6  C5  UNL     1      -3.531   3.285  12.594  1.00  0.00     0.277 C 
BRANCH   6   7
HETATM    7  C4  UNL     1      -4.750   4.022  13.017  1.00  0.00     0.070 C 
BRANCH   7   8
HETATM    8  C3  UNL     1      -5.150   3.515  14.381  1.00  0.00    -0.039 A 
HETATM    9  C2  UNL     1      -5.875   4.306  15.255  1.00  0.00     0.098 A 
HETATM   10  N1  UNL     1      -6.253   3.884  16.482  1.00  0.00    -0.350 N 
HETATM   11  C1  UNL     1      -7.017   4.748  17.373  1.00  0.00     0.156 C 
HETATM   12  C14 UNL     1      -5.924   2.645  16.902  1.00  0.00     0.127 A 
HETATM   13  C13 UNL     1      -5.202   1.804  16.082  1.00  0.00     0.073 A 
HETATM   14 CL2  UNL     1      -6.384   2.035  18.485  1.00  0.00    -0.062 Cl
HETATM   15  C12 UNL     1      -4.821   2.249  14.825  1.00  0.00     0.035 A 
HETATM   16 CL1  UNL     1      -4.767   0.194  16.609  1.00  0.00    -0.081 Cl
ENDBRANCH   7   8
ENDBRANCH   6   7
ENDBRANCH   1   6
BRANCH   5  17
HETATM   17  C11 UNL     1      -1.583   1.499  10.605  1.00  0.00     0.203 C 
BRANCH  17  18
HETATM   18  O2  UNL     1      -1.744   2.239   9.465  1.00  0.00    -0.399 OA
ATOM     19  H2  UNL     1      -2.313   2.991   9.571  1.00  0.00     0.209 HD
ENDBRANCH  17  18
ENDBRANCH   5  17
BRANCH   4  20
HETATM   20  O1  UNL     1      -3.199  -0.352   9.647  1.00  0.00    -0.379 OA
ATOM     21  H1  UNL     1      -2.273  -0.142   9.636  1.00  0.00     0.211 HD
ENDBRANCH   4  20
BRANCH   4  22
HETATM   22  C9  UNL     1      -3.944  -0.938  11.836  1.00  0.00     0.420 C 
HETATM   23  F1  UNL     1      -2.865  -1.829  11.888  1.00  0.00    -0.168 F 
HETATM   24  F2  UNL     1      -4.130  -0.519  13.125  1.00  0.00    -0.168 F 
HETATM   25  F3  UNL     1      -5.043  -1.699  11.492  1.00  0.00    -0.168 F 
ENDBRANCH   4  22
TORSDOF 7
ENDMDL
MODEL 3
REMARK VINA RESULT: -7.171622471      3.268      4.425
REMARK  7 active torsions:
REMARK  status: ('A' for Active; 'I' for Inactive)
REMARK    1  A    between atoms: C3_4  and  C4_5 
REMARK    2  A    between atoms: C4_5  and  C5_6 
REMARK    3  A    between atoms: C5_6  and  N2_7 
REMARK    4  A    between atoms: C8_10  and  O1_11 
REMARK    5  A    between atoms: C8_10  and  C9_13 
REMARK    6  A    between atoms: C10_17  and  C11_18 
REMARK    7  A    between atoms: C11_18  and  O2_19 
ROOT
HETATM    1  N2  UNL     1      -4.748   1.831  13.279  1.00  0.00     0.099 N 
HETATM    2  C6  UNL     1      -4.298   0.493  13.581  1.00  0.00     0.276 C 
HETATM    3  C7  UNL     1      -4.246  -0.186  12.273  1.00  0.00     0.079 C 
HETATM    4  C8  UNL     1      -3.769   0.887  11.327  1.00  0.00     0.190 C 
HETATM    5  C10 UNL     1      -4.172   2.145  12.018  1.00  0.00     0.289 C 
ENDROOT
BRANCH   1   6
HETATM    6  C5  UNL     1      -4.349   2.635  14.392  1.00  0.00     0.277 C 
BRANCH   6   7
HETATM    7  C4  UNL     1      -5.257   3.744  14.783  1.00  0.00     0.070 C 
BRANCH   7   8
HETATM    8  C3  UNL     1      -4.849   4.974  14.010  1.00  0.00    -0.039 A 
HETATM    9  C2  UNL     1      -3.530   5.393  13.976  1.00  0.00     0.098 A 
HETATM   10  N1  UNL     1      -3.128   6.488  13.293  1.00  0.00    -0.350 N 
HETATM   11  C1  UNL     1      -1.729   6.897  13.282  1.00  0.00     0.156 C 
HETATM   12  C14 UNL     1      -4.026   7.224  12.607  1.00  0.00     0.127 A 
HETATM   13  C13 UNL     1      -5.357   6.863  12.598  1.00  0.00     0.073 A 
HETATM   14 CL2  UNL     1      -3.570   8.658  11.699  1.00  0.00    -0.062 Cl
HETATM   15  C12 UNL     1      -5.756   5.738  13.302  1.00  0.00     0.035 A 
HETATM   16 CL1  UNL     1      -6.535   7.805  11.713  1.00  0.00    -0.081 Cl
ENDBRANCH   7   8
ENDBRANCH   6   7
ENDBRANCH   1   6
BRANCH   5  17
HETATM   17  C11 UNL     1      -5.110   2.995  11.193  1.00  0.00     0.203 C 
BRANCH  17  18
HETATM   18  O2  UNL     1      -6.407   2.559  11.200  1.00  0.00    -0.399 OA
ATOM     19  H2  UNL     1      -6.755   2.398  12.069  1.00  0.00     0.209 HD
ENDBRANCH  17  18
ENDBRANCH   5  17
BRANCH   4  20
HETATM   20  O1  UNL     1      -4.461   0.669  10.132  1.00  0.00    -0.379 OA
ATOM     21  H1  UNL     1      -3.800   0.673   9.450  1.00  0.00     0.211 HD
ENDBRANCH   4  20
BRANCH   4  22
HETATM   22  C9  UNL     1      -2.287   0.747  11.112  1.00  0.00     0.420 C 
HETATM   23  F1  UNL     1      -1.942   1.023   9.783  1.00  0.00    -0.168 F 
HETATM   24  F2  UNL     1      -1.520   1.589  11.868  1.00  0.00    -0.168 F 
HETATM   25  F3  UNL     1      -1.845  -0.538  11.356  1.00  0.00    -0.168 F 
ENDBRANCH   4  22
TORSDOF 7
ENDMDL
MODEL 4
REMARK VINA RESULT: -7.085509193      3.671      4.685
REMARK  7 active torsions:
REMARK  status: ('A' for Active; 'I' for Inactive)
REMARK    1  A    between atoms: C3_4  and  C4_5 
REMARK    2  A    between atoms: C4_5  and  C5_6 
REMARK    3  A    between atoms: C5_6  and  N2_7 
REMARK    4  A    between atoms: C8_10  and  O1_11 
REMARK    5  A    between atoms: C8_10  and  C9_13 
REMARK    6  A    between atoms: C10_17  and  C11_18 
REMARK    7  A    between atoms: C11_18  and  O2_19 
ROOT
HETATM    1  N2  UNL     1      -4.580   2.308  13.387  1.00  0.00     0.099 N 
HETATM    2  C6  UNL     1      -4.223   0.958  13.757  1.00  0.00     0.276 C 
HETATM    3  C7  UNL     1      -4.320   0.191  12.502  1.00  0.00     0.079 C 
HETATM    4  C8  UNL     1      -3.823   1.150  11.451  1.00  0.00     0.190 C 
HETATM    5  C10 UNL     1      -4.069   2.483  12.072  1.00  0.00     0.289 C 
ENDROOT
BRANCH   1   6
HETATM    6  C5  UNL     1      -4.038   3.147  14.410  1.00  0.00     0.277 C 
BRANCH   6   7
HETATM    7  C4  UNL     1      -4.596   4.519  14.523  1.00  0.00     0.070 C 
BRANCH   7   8
HETATM    8  C3  UNL     1      -3.470   5.499  14.301  1.00  0.00    -0.039 A 
HETATM    9  C2  UNL     1      -2.513   5.281  13.326  1.00  0.00     0.098 A 
HETATM   10  N1  UNL     1      -1.493   6.138  13.098  1.00  0.00    -0.350 N 
HETATM   11  C1  UNL     1      -0.504   5.873  12.061  1.00  0.00     0.156 C 
HETATM   12  C14 UNL     1      -1.376   7.262  13.835  1.00  0.00     0.127 A 
HETATM   13  C13 UNL     1      -2.296   7.541  14.824  1.00  0.00     0.073 A 
HETATM   14 CL2  UNL     1      -0.075   8.417  13.590  1.00  0.00    -0.062 Cl
HETATM   15  C12 UNL     1      -3.338   6.654  15.047  1.00  0.00     0.035 A 
HETATM   16 CL1  UNL     1      -2.161   8.993  15.790  1.00  0.00    -0.081 Cl
ENDBRANCH   7   8
ENDBRANCH   6   7
ENDBRANCH   1   6
BRANCH   5  17
HETATM   17  C11 UNL     1      -4.989   3.355  11.249  1.00  0.00     0.203 C 
BRANCH  17  18
HETATM   18  O2  UNL     1      -6.309   3.003  11.330  1.00  0.00    -0.399 OA
ATOM     19  H2  UNL     1      -6.755   3.355  12.091  1.00  0.00     0.209 HD
ENDBRANCH  17  18
ENDBRANCH   5  17
BRANCH   4  20
HETATM   20  O1  UNL     1      -4.613   0.914  10.323  1.00  0.00    -0.379 OA
ATOM     21  H1  UNL     1      -5.246   1.623  10.302  1.00  0.00     0.211 HD
ENDBRANCH   4  20
BRANCH   4  22
HETATM   22  C9  UNL     1      -2.377   0.866  11.152  1.00  0.00     0.420 C 
HETATM   23  F1  UNL     1      -2.094   1.063   9.795  1.00  0.00    -0.168 F 
HETATM   24  F2  UNL     1      -1.489   1.658  11.826  1.00  0.00    -0.168 F 
HETATM   25  F3  UNL     1      -2.038  -0.446  11.420  1.00  0.00    -0.168 F 
ENDBRANCH   4  22
TORSDOF 7
ENDMDL
MODEL 5
REMARK VINA RESULT: -7.073188783      3.363      4.581
REMARK  7 active torsions:
REMARK  status: ('A' for Active; 'I' for Inactive)
REMARK    1  A    between atoms: C3_4  and  C4_5 
REMARK    2  A    between atoms: C4_5  and  C5_6 
REMARK    3  A    between atoms: C5_6  and  N2_7 
REMARK    4  A    between atoms: C8_10  and  O1_11 
REMARK    5  A    between atoms: C8_10  and  C9_13 
REMARK    6  A    between atoms: C10_17  and  C11_18 
REMARK    7  A    between atoms: C11_18  and  O2_19 
ROOT
HETATM    1  N2  UNL     1      -4.746   1.892  13.289  1.00  0.00     0.099 N 
HETATM    2  C6  UNL     1      -4.293   0.561  13.615  1.00  0.00     0.276 C 
HETATM    3  C7  UNL     1      -4.244  -0.143  12.320  1.00  0.00     0.079 C 
HETATM    4  C8  UNL     1      -3.772   0.912  11.352  1.00  0.00     0.190 C 
HETATM    5  C10 UNL     1      -4.174   2.182  12.020  1.00  0.00     0.289 C 
ENDROOT
BRANCH   1   6
HETATM    6  C5  UNL     1      -4.345   2.718  14.384  1.00  0.00     0.277 C 
BRANCH   6   7
HETATM    7  C4  UNL     1      -5.242   3.848  14.741  1.00  0.00     0.070 C 
BRANCH   7   8
HETATM    8  C3  UNL     1      -4.675   5.104  14.125  1.00  0.00    -0.039 A 
HETATM    9  C2  UNL     1      -5.347   5.771  13.115  1.00  0.00     0.098 A 
HETATM   10  N1  UNL     1      -4.871   6.899  12.542  1.00  0.00    -0.350 N 
HETATM   11  C1  UNL     1      -5.608   7.573  11.481  1.00  0.00     0.156 C 
HETATM   12  C14 UNL     1      -3.696   7.421  12.949  1.00  0.00     0.127 A 
HETATM   13  C13 UNL     1      -2.975   6.807  13.952  1.00  0.00     0.073 A 
HETATM   14 CL2  UNL     1      -3.022   8.884  12.247  1.00  0.00    -0.062 Cl
HETATM   15  C12 UNL     1      -3.474   5.651  14.531  1.00  0.00     0.035 A 
HETATM   16 CL1  UNL     1      -1.450   7.469  14.494  1.00  0.00    -0.081 Cl
ENDBRANCH   7   8
ENDBRANCH   6   7
ENDBRANCH   1   6
BRANCH   5  17
HETATM   17  C11 UNL     1      -5.116   3.015  11.182  1.00  0.00     0.203 C 
BRANCH  17  18
HETATM   18  O2  UNL     1      -6.408   2.563  11.182  1.00  0.00    -0.399 OA
ATOM     19  H2  UNL     1      -6.627   2.021  10.433  1.00  0.00     0.209 HD
ENDBRANCH  17  18
ENDBRANCH   5  17
BRANCH   4  20
HETATM   20  O1  UNL     1      -4.467   0.670  10.164  1.00  0.00    -0.379 OA
ATOM     21  H1  UNL     1      -4.158   1.326   9.550  1.00  0.00     0.211 HD
ENDBRANCH   4  20
BRANCH   4  22
HETATM   22  C9  UNL     1      -2.290   0.770  11.135  1.00  0.00     0.420 C 
HETATM   23  F1  UNL     1      -1.950   1.016   9.799  1.00  0.00    -0.168 F 
HETATM   24  F2  UNL     1      -1.522   1.632  11.869  1.00  0.00    -0.168 F 
HETATM   25  F3  UNL     1      -1.844  -0.508  11.407  1.00  0.00    -0.168 F 
ENDBRANCH   4  22
TORSDOF 7
ENDMDL
