MODEL 1
REMARK VINA RESULT: -7.674533681      0.000      0.000
REMARK  6 active torsions:
REMARK  status: ('A' for Active; 'I' for Inactive)
REMARK    1  A    between atoms: C3_4  and  O1_5 
REMARK    2  A    between atoms: C3_4  and  C4_7 
REMARK    3  A    between atoms: C4_7  and  N1_9 
REMARK    4  A    between atoms: C6_10  and  C7_11 
REMARK       I    between atoms: C7_11  and  N2_13 
REMARK    5  A    between atoms: C14_24  and  C15_25 
REMARK    6  A    between atoms: C15_25  and  O3_27 
ROOT
HETATM    1  N1  UNL     1      -3.896   3.825  12.485  1.00  0.00    -0.258 NA
HETATM    2  C6  UNL     1      -5.321   4.205  12.350  1.00  0.00     0.161 C 
HETATM    3  C12 UNL     1      -5.221   5.649  11.831  1.00  0.00     0.110 C 
HETATM    4  C13 UNL     1      -4.084   6.130  12.744  1.00  0.00     0.264 C 
HETATM    5  F4  UNL     1      -4.707   6.700  13.818  1.00  0.00    -0.204 F 
HETATM    6  F5  UNL     1      -3.368   7.015  11.979  1.00  0.00    -0.204 F 
HETATM    7  C14 UNL     1      -3.309   4.877  13.099  1.00  0.00     0.164 C 
ENDROOT
BRANCH   2   8
HETATM    8  C7  UNL     1      -6.068   4.226  13.589  1.00  0.00     0.238 C 
HETATM    9  O2  UNL     1      -6.933   5.101  13.915  1.00  0.00    -0.272 OA
HETATM   10  N2  UNL     1      -5.857   3.207  14.559  1.00  0.00    -0.345 N 
HETATM   11  C8  UNL     1      -6.487   3.014  15.853  1.00  0.00     0.132 C 
HETATM   12  C11 UNL     1      -4.911   2.127  14.424  1.00  0.00     0.204 C 
HETATM   13  C9  UNL     1      -5.350   2.531  16.708  1.00  0.00     0.100 C 
HETATM   14  C10 UNL     1      -4.248   2.081  15.787  1.00  0.00     0.261 C 
HETATM   15  F2  UNL     1      -3.783   0.820  16.095  1.00  0.00    -0.204 F 
HETATM   16  F3  UNL     1      -3.240   3.024  15.846  1.00  0.00    -0.204 F 
ENDBRANCH   2   8
BRANCH   1  17
HETATM   17  C4  UNL     1      -3.576   3.139  11.350  1.00  0.00     0.021 C 
HETATM   18  C5  UNL     1      -2.972   3.692  10.128  1.00  0.00     0.065 C 
BRANCH  17  19
HETATM   19  C3  UNL     1      -2.874   1.853  11.627  1.00  0.00     0.116 C 
HETATM   20  C2  UNL     1      -3.396   0.654  11.514  1.00  0.00     0.124 C 
HETATM   21  C1  UNL     1      -4.791   0.359  11.087  1.00  0.00     0.085 C 
HETATM   22  F1  UNL     1      -2.623  -0.437  11.806  1.00  0.00    -0.208 F 
BRANCH  19  23
HETATM   23  O1  UNL     1      -1.529   1.839  12.055  1.00  0.00    -0.357 OA
ATOM     24  H1  UNL     1      -0.948   2.336  11.490  1.00  0.00     0.218 HD
ENDBRANCH  19  23
ENDBRANCH  17  19
ENDBRANCH   1  17
BRANCH   7  25
HETATM   25  C15 UNL     1      -1.852   5.219  12.943  1.00  0.00     0.138 C 
HETATM   26  C16 UNL     1      -1.476   6.388  13.873  1.00  0.00     0.041 C 
BRANCH  25  27
HETATM   27  O3  UNL     1      -1.127   4.143  13.467  1.00  0.00    -0.394 OA
ATOM     28  H3  UNL     1      -0.225   4.434  13.545  1.00  0.00     0.210 HD
ENDBRANCH  25  27
ENDBRANCH   7  25
TORSDOF 6
ENDMDL
MODEL 2
REMARK VINA RESULT: -7.443744287      2.775      5.078
REMARK  6 active torsions:
REMARK  status: ('A' for Active; 'I' for Inactive)
REMARK    1  A    between atoms: C3_4  and  O1_5 
REMARK    2  A    between atoms: C3_4  and  C4_7 
REMARK    3  A    between atoms: C4_7  and  N1_9 
REMARK    4  A    between atoms: C6_10  and  C7_11 
REMARK       I    between atoms: C7_11  and  N2_13 
REMARK    5  A    between atoms: C14_24  and  C15_25 
REMARK    6  A    between atoms: C15_25  and  O3_27 
ROOT
HETATM    1  N1  UNL     1      -4.037   3.675  12.489  1.00  0.00    -0.258 NA
HETATM    2  C6  UNL     1      -2.603   4.037  12.408  1.00  0.00     0.161 C 
HETATM    3  C12 UNL     1      -2.326   4.570  13.824  1.00  0.00     0.110 C 
HETATM    4  C13 UNL     1      -3.612   5.391  14.003  1.00  0.00     0.264 C 
HETATM    5  F4  UNL     1      -3.285   6.657  13.605  1.00  0.00    -0.204 F 
HETATM    6  F5  UNL     1      -3.916   5.285  15.336  1.00  0.00    -0.204 F 
HETATM    7  C14 UNL     1      -4.631   4.726  13.098  1.00  0.00     0.164 C 
ENDROOT
BRANCH   2   8
HETATM    8  C7  UNL     1      -2.290   5.089  11.465  1.00  0.00     0.238 C 
HETATM    9  O2  UNL     1      -3.140   5.741  10.777  1.00  0.00    -0.272 OA
HETATM   10  N2  UNL     1      -0.935   5.465  11.250  1.00  0.00    -0.345 N 
HETATM   11  C8  UNL     1      -0.383   6.484  10.375  1.00  0.00     0.132 C 
HETATM   12  C11 UNL     1       0.200   4.852  11.894  1.00  0.00     0.204 C 
HETATM   13  C9  UNL     1       0.866   5.834   9.854  1.00  0.00     0.100 C 
HETATM   14  C10 UNL     1       1.183   4.670  10.753  1.00  0.00     0.261 C 
HETATM   15  F2  UNL     1       2.491   4.679  11.190  1.00  0.00    -0.204 F 
HETATM   16  F3  UNL     1       0.885   3.511  10.062  1.00  0.00    -0.204 F 
ENDBRANCH   2   8
BRANCH   1  17
HETATM   17  C4  UNL     1      -4.078   2.335  12.740  1.00  0.00     0.021 C 
HETATM   18  C5  UNL     1      -4.487   1.687  13.997  1.00  0.00     0.065 C 
BRANCH  17  19
HETATM   19  C3  UNL     1      -4.706   1.555  11.636  1.00  0.00     0.116 C 
HETATM   20  C2  UNL     1      -4.158   0.543  11.004  1.00  0.00     0.124 C 
HETATM   21  C1  UNL     1      -2.805  -0.013  11.277  1.00  0.00     0.085 C 
HETATM   22  F1  UNL     1      -4.862  -0.075  10.006  1.00  0.00    -0.208 F 
BRANCH  19  23
HETATM   23  O1  UNL     1      -6.000   1.873  11.169  1.00  0.00    -0.357 OA
ATOM     24  H1  UNL     1      -6.085   2.773  10.878  1.00  0.00     0.218 HD
ENDBRANCH  19  23
ENDBRANCH  17  19
ENDBRANCH   1  17
BRANCH   7  25
HETATM   25  C15 UNL     1      -5.899   4.611  13.899  1.00  0.00     0.138 C 
HETATM   26  C16 UNL     1      -6.551   5.995  14.069  1.00  0.00     0.041 C 
BRANCH  25  27
HETATM   27  O3  UNL     1      -6.817   3.917  13.102  1.00  0.00    -0.394 OA
ATOM     28  H3  UNL     1      -7.681   4.117  13.443  1.00  0.00     0.210 HD
ENDBRANCH  25  27
ENDBRANCH   7  25
TORSDOF 6
ENDMDL
MODEL 3
REMARK VINA RESULT: -7.214307452      2.346      4.577
REMARK  6 active torsions:
REMARK  status: ('A' for Active; 'I' for Inactive)
REMARK    1  A    between atoms: C3_4  and  O1_5 
REMARK    2  A    between atoms: C3_4  and  C4_7 
REMARK    3  A    between atoms: C4_7  and  N1_9 
REMARK    4  A    between atoms: C6_10  and  C7_11 
REMARK       I    between atoms: C7_11  and  N2_13 
REMARK    5  A    between atoms: C14_24  and  C15_25 
REMARK    6  A    between atoms: C15_25  and  O3_27 
ROOT
HETATM    1  N1  UNL     1      -3.878   4.685  13.462  1.00  0.00    -0.258 NA
HETATM    2  C6  UNL     1      -4.279   3.561  12.585  1.00  0.00     0.161 C 
HETATM    3  C12 UNL     1      -5.782   3.823  12.392  1.00  0.00     0.110 C 
HETATM    4  C13 UNL     1      -6.124   4.204  13.841  1.00  0.00     0.264 C 
HETATM    5  F4  UNL     1      -6.537   3.041  14.427  1.00  0.00    -0.204 F 
HETATM    6  F5  UNL     1      -7.106   5.155  13.733  1.00  0.00    -0.204 F 
HETATM    7  C14 UNL     1      -4.830   4.738  14.422  1.00  0.00     0.164 C 
ENDROOT
BRANCH   2   8
HETATM    8  C7  UNL     1      -4.126   2.246  13.168  1.00  0.00     0.238 C 
HETATM    9  O2  UNL     1      -3.857   2.006  14.389  1.00  0.00    -0.272 OA
HETATM   10  N2  UNL     1      -4.277   1.090  12.353  1.00  0.00    -0.345 N 
HETATM   11  C8  UNL     1      -4.181  -0.315  12.710  1.00  0.00     0.132 C 
HETATM   12  C11 UNL     1      -4.556   1.112  10.939  1.00  0.00     0.204 C 
HETATM   13  C9  UNL     1      -3.493  -0.915  11.518  1.00  0.00     0.100 C 
HETATM   14  C10 UNL     1      -3.601   0.071  10.387  1.00  0.00     0.261 C 
HETATM   15  F2  UNL     1      -4.076  -0.504   9.227  1.00  0.00    -0.204 F 
HETATM   16  F3  UNL     1      -2.354   0.636  10.200  1.00  0.00    -0.204 F 
ENDBRANCH   2   8
BRANCH   1  17
HETATM   17  C4  UNL     1      -3.360   5.643  12.640  1.00  0.00     0.021 C 
HETATM   18  C5  UNL     1      -3.984   6.926  12.281  1.00  0.00     0.065 C 
BRANCH  17  19
HETATM   19  C3  UNL     1      -1.924   5.931  12.917  1.00  0.00     0.116 C 
HETATM   20  C2  UNL     1      -0.903   5.454  12.245  1.00  0.00     0.124 C 
HETATM   21  C1  UNL     1      -0.993   4.535  11.078  1.00  0.00     0.085 C 
HETATM   22  F1  UNL     1       0.364   5.811  12.621  1.00  0.00    -0.208 F 
BRANCH  19  23
HETATM   23  O1  UNL     1      -1.547   6.780  13.981  1.00  0.00    -0.357 OA
ATOM     24  H1  UNL     1      -0.643   7.068  13.930  1.00  0.00     0.218 HD
ENDBRANCH  19  23
ENDBRANCH  17  19
ENDBRANCH   1  17
BRANCH   7  25
HETATM   25  C15 UNL     1      -5.185   5.995  15.167  1.00  0.00     0.138 C 
HETATM   26  C16 UNL     1      -6.021   5.658  16.415  1.00  0.00     0.041 C 
BRANCH  25  27
HETATM   27  O3  UNL     1      -3.993   6.498  15.702  1.00  0.00    -0.394 OA
ATOM     28  H3  UNL     1      -3.989   7.432  15.529  1.00  0.00     0.210 HD
ENDBRANCH  25  27
ENDBRANCH   7  25
TORSDOF 6
ENDMDL
MODEL 4
REMARK VINA RESULT: -7.132399353      2.289      5.837
REMARK  6 active torsions:
REMARK  status: ('A' for Active; 'I' for Inactive)
REMARK    1  A    between atoms: C3_4  and  O1_5 
REMARK    2  A    between atoms: C3_4  and  C4_7 
REMARK    3  A    between atoms: C4_7  and  N1_9 
REMARK    4  A    between atoms: C6_10  and  C7_11 
REMARK       I    between atoms: C7_11  and  N2_13 
REMARK    5  A    between atoms: C14_24  and  C15_25 
REMARK    6  A    between atoms: C15_25  and  O3_27 
ROOT
HETATM    1  N1  UNL     1      -3.573   2.680  13.123  1.00  0.00    -0.258 NA
HETATM    2  C6  UNL     1      -2.964   3.830  12.416  1.00  0.00     0.161 C 
HETATM    3  C12 UNL     1      -3.629   3.746  11.032  1.00  0.00     0.110 C 
HETATM    4  C13 UNL     1      -3.541   2.225  10.840  1.00  0.00     0.264 C 
HETATM    5  F4  UNL     1      -2.381   2.019  10.149  1.00  0.00    -0.204 F 
HETATM    6  F5  UNL     1      -4.675   1.891  10.143  1.00  0.00    -0.204 F 
HETATM    7  C14 UNL     1      -3.508   1.654  12.244  1.00  0.00     0.164 C 
ENDROOT
BRANCH   2   8
HETATM    8  C7  UNL     1      -1.532   3.744  12.229  1.00  0.00     0.238 C 
HETATM    9  O2  UNL     1      -0.822   2.706  12.426  1.00  0.00    -0.272 OA
HETATM   10  N2  UNL     1      -0.806   4.887  11.791  1.00  0.00    -0.345 N 
HETATM   11  C8  UNL     1       0.614   5.038  11.526  1.00  0.00     0.132 C 
HETATM   12  C11 UNL     1      -1.388   6.179  11.529  1.00  0.00     0.204 C 
HETATM   13  C9  UNL     1       0.903   6.419  12.042  1.00  0.00     0.100 C 
HETATM   14  C10 UNL     1      -0.412   7.134  12.190  1.00  0.00     0.261 C 
HETATM   15  F2  UNL     1      -0.411   8.374  11.586  1.00  0.00    -0.204 F 
HETATM   16  F3  UNL     1      -0.693   7.225  13.540  1.00  0.00    -0.204 F 
ENDBRANCH   2   8
BRANCH   1  17
HETATM   17  C4  UNL     1      -4.606   3.188  13.855  1.00  0.00     0.021 C 
HETATM   18  C5  UNL     1      -6.010   3.308  13.432  1.00  0.00     0.065 C 
BRANCH  17  19
HETATM   19  C3  UNL     1      -4.626   2.684  15.258  1.00  0.00     0.116 C 
HETATM   20  C2  UNL     1      -5.338   3.182  16.242  1.00  0.00     0.124 C 
HETATM   21  C1  UNL     1      -6.259   4.346  16.136  1.00  0.00     0.085 C 
HETATM   22  F1  UNL     1      -5.250   2.608  17.481  1.00  0.00    -0.208 F 
BRANCH  19  23
HETATM   23  O1  UNL     1      -3.836   1.579  15.642  1.00  0.00    -0.357 OA
ATOM     24  H1  UNL     1      -4.158   1.137  16.419  1.00  0.00     0.218 HD
ENDBRANCH  19  23
ENDBRANCH  17  19
ENDBRANCH   1  17
BRANCH   7  25
HETATM   25  C15 UNL     1      -4.466   0.494  12.254  1.00  0.00     0.138 C 
HETATM   26  C16 UNL     1      -3.906  -0.668  11.414  1.00  0.00     0.041 C 
BRANCH  25  27
HETATM   27  O3  UNL     1      -4.465  -0.019  13.557  1.00  0.00    -0.394 OA
ATOM     28  H3  UNL     1      -5.209  -0.606  13.620  1.00  0.00     0.210 HD
ENDBRANCH  25  27
ENDBRANCH   7  25
TORSDOF 6
ENDMDL
MODEL 5
REMARK VINA RESULT: -7.033144924      2.128      4.875
REMARK  6 active torsions:
REMARK  status: ('A' for Active; 'I' for Inactive)
REMARK    1  A    between atoms: C3_4  and  O1_5 
REMARK    2  A    between atoms: C3_4  and  C4_7 
REMARK    3  A    between atoms: C4_7  and  N1_9 
REMARK    4  A    between atoms: C6_10  and  C7_11 
REMARK       I    between atoms: C7_11  and  N2_13 
REMARK    5  A    between atoms: C14_24  and  C15_25 
REMARK    6  A    between atoms: C15_25  and  O3_27 
ROOT
HETATM    1  N1  UNL     1      -3.865   3.731  12.869  1.00  0.00    -0.258 NA
HETATM    2  C6  UNL     1      -2.469   4.090  13.210  1.00  0.00     0.161 C 
HETATM    3  C12 UNL     1      -2.589   4.478  14.693  1.00  0.00     0.110 C 
HETATM    4  C13 UNL     1      -3.892   5.286  14.601  1.00  0.00     0.264 C 
HETATM    5  F4  UNL     1      -3.497   6.582  14.431  1.00  0.00    -0.204 F 
HETATM    6  F5  UNL     1      -4.538   5.049  15.788  1.00  0.00    -0.204 F 
HETATM    7  C14 UNL     1      -4.620   4.721  13.397  1.00  0.00     0.164 C 
ENDROOT
BRANCH   2   8
HETATM    8  C7  UNL     1      -1.937   5.228  12.492  1.00  0.00     0.238 C 
HETATM    9  O2  UNL     1      -1.283   6.189  13.011  1.00  0.00    -0.272 OA
HETATM   10  N2  UNL     1      -2.133   5.332  11.087  1.00  0.00    -0.345 N 
HETATM   11  C8  UNL     1      -1.690   6.360  10.162  1.00  0.00     0.132 C 
HETATM   12  C11 UNL     1      -2.863   4.380  10.286  1.00  0.00     0.204 C 
HETATM   13  C9  UNL     1      -2.855   6.487   9.223  1.00  0.00     0.100 C 
HETATM   14  C10 UNL     1      -3.715   5.265   9.396  1.00  0.00     0.261 C 
HETATM   15  F2  UNL     1      -4.017   4.655   8.197  1.00  0.00    -0.204 F 
HETATM   16  F3  UNL     1      -4.856   5.646  10.075  1.00  0.00    -0.204 F 
ENDBRANCH   2   8
BRANCH   1  17
HETATM   17  C4  UNL     1      -3.944   2.373  12.969  1.00  0.00     0.021 C 
HETATM   18  C5  UNL     1      -4.527   1.605  14.080  1.00  0.00     0.065 C 
BRANCH  17  19
HETATM   19  C3  UNL     1      -4.413   1.725  11.711  1.00  0.00     0.116 C 
HETATM   20  C2  UNL     1      -3.716   0.895  10.970  1.00  0.00     0.124 C 
HETATM   21  C1  UNL     1      -2.325   0.448  11.252  1.00  0.00     0.085 C 
HETATM   22  F1  UNL     1      -4.285   0.379   9.838  1.00  0.00    -0.208 F 
BRANCH  19  23
HETATM   23  O1  UNL     1      -5.706   1.976  11.204  1.00  0.00    -0.357 OA
ATOM     24  H1  UNL     1      -6.347   2.159  11.881  1.00  0.00     0.218 HD
ENDBRANCH  19  23
ENDBRANCH  17  19
ENDBRANCH   1  17
BRANCH   7  25
HETATM   25  C15 UNL     1      -6.053   4.535  13.816  1.00  0.00     0.138 C 
HETATM   26  C16 UNL     1      -6.741   5.902  13.985  1.00  0.00     0.041 C 
BRANCH  25  27
HETATM   27  O3  UNL     1      -6.722   3.969  12.724  1.00  0.00    -0.394 OA
ATOM     28  H3  UNL     1      -6.982   4.689  12.160  1.00  0.00     0.210 HD
ENDBRANCH  25  27
ENDBRANCH   7  25
TORSDOF 6
ENDMDL
