MODEL 1
REMARK VINA RESULT: -8.545696597      0.000      0.000
REMARK  5 active torsions:
REMARK  status: ('A' for Active; 'I' for Inactive)
REMARK    1  A    between atoms: C2_2  and  N1_3 
REMARK    2  A    between atoms: C6_7  and  C7_8 
REMARK       I    between atoms: C7_8  and  N2_10 
REMARK    3  A    between atoms: N2_10  and  C8_12 
REMARK    4  A    between atoms: C8_12  and  C9_13 
REMARK    5  A    between atoms: C9_13  and  C10_14 
ROOT
HETATM    1  C9  UNL     1      -3.745   0.790  11.953  1.00  0.00     0.140 C 
HETATM    2  C11 UNL     1      -4.592   1.980  11.566  1.00  0.00     0.045 C 
HETATM    3  C12 UNL     1      -3.977   2.899  10.573  1.00  0.00     0.046 C 
HETATM    4  C13 UNL     1      -2.543   3.206  10.864  1.00  0.00     0.128 C 
HETATM    5 CL1  UNL     1      -2.463   4.170  12.363  1.00  0.00    -0.100 Cl
HETATM    6 CL2  UNL     1      -1.836   4.159   9.543  1.00  0.00    -0.100 Cl
HETATM    7  C14 UNL     1      -1.794   1.924  11.033  1.00  0.00     0.157 C 
HETATM    8  N3  UNL     1      -2.334   1.097  12.044  1.00  0.00    -0.401 N 
ATOM      9  H3  UNL     1      -1.756   0.733  12.802  1.00  0.00     0.154 HD
ENDROOT
BRANCH   1  10
HETATM   10  C8  UNL     1      -4.164   0.432  13.354  1.00  0.00     0.162 C 
BRANCH  10  11
HETATM   11  N2  UNL     1      -4.690   1.507  14.124  1.00  0.00    -0.357 N 
HETATM   12  C7  UNL     1      -4.476   1.599  15.527  1.00  0.00     0.251 C 
HETATM   13  O1  UNL     1      -3.804   0.707  16.109  1.00  0.00    -0.271 OA
ATOM     14  H2  UNL     1      -5.235   2.232  13.657  1.00  0.00     0.162 HD
BRANCH  12  15
HETATM   15  C6  UNL     1      -5.016   2.706  16.333  1.00  0.00     0.314 C 
HETATM   16  N1  UNL     1      -6.447   2.636  16.460  1.00  0.00     0.101 N 
HETATM   17  C3  UNL     1      -6.735   3.987  16.973  1.00  0.00     0.273 C 
HETATM   18  C4  UNL     1      -6.056   4.812  15.876  1.00  0.00     0.033 C 
HETATM   19  C5  UNL     1      -4.877   3.963  15.456  1.00  0.00     0.047 C 
BRANCH  16  20
HETATM   20  C2  UNL     1      -6.904   1.631  17.376  1.00  0.00     0.269 C 
HETATM   21  C1  UNL     1      -6.229   1.896  18.723  1.00  0.00     0.037 C 
ENDBRANCH  16  20
ENDBRANCH  12  15
ENDBRANCH  10  11
ENDBRANCH   1  10
BRANCH   1  22
HETATM   22  C10 UNL     1      -3.940  -0.311  10.957  1.00  0.00     0.413 C 
HETATM   23  F1  UNL     1      -3.510  -1.538  11.447  1.00  0.00    -0.168 F 
HETATM   24  F2  UNL     1      -3.370  -0.081   9.744  1.00  0.00    -0.168 F 
HETATM   25  F3  UNL     1      -5.307  -0.507  10.698  1.00  0.00    -0.168 F 
ENDBRANCH   1  22
TORSDOF 5
ENDMDL
MODEL 2
REMARK VINA RESULT: -8.038682212      0.985      1.313
REMARK  5 active torsions:
REMARK  status: ('A' for Active; 'I' for Inactive)
REMARK    1  A    between atoms: C2_2  and  N1_3 
REMARK    2  A    between atoms: C6_7  and  C7_8 
REMARK       I    between atoms: C7_8  and  N2_10 
REMARK    3  A    between atoms: N2_10  and  C8_12 
REMARK    4  A    between atoms: C8_12  and  C9_13 
REMARK    5  A    between atoms: C9_13  and  C10_14 
ROOT
HETATM    1  C9  UNL     1      -3.392   1.675  11.671  1.00  0.00     0.140 C 
HETATM    2  C11 UNL     1      -4.278   2.662  10.945  1.00  0.00     0.045 C 
HETATM    3  C12 UNL     1      -3.563   3.773  10.265  1.00  0.00     0.046 C 
HETATM    4  C13 UNL     1      -2.487   4.382  11.105  1.00  0.00     0.128 C 
HETATM    5 CL1  UNL     1      -3.249   5.219  12.483  1.00  0.00    -0.100 Cl
HETATM    6 CL2  UNL     1      -1.568   5.573  10.160  1.00  0.00    -0.100 Cl
HETATM    7  C14 UNL     1      -1.578   3.301  11.593  1.00  0.00     0.157 C 
HETATM    8  N3  UNL     1      -2.256   2.295  12.319  1.00  0.00    -0.401 N 
ATOM      9  H3  UNL     1      -1.958   2.019  13.254  1.00  0.00     0.154 HD
ENDROOT
BRANCH   1  10
HETATM   10  C8  UNL     1      -4.232   1.122  12.791  1.00  0.00     0.162 C 
BRANCH  10  11
HETATM   11  N2  UNL     1      -4.712   2.085  13.723  1.00  0.00    -0.357 N 
HETATM   12  C7  UNL     1      -4.586   1.896  15.127  1.00  0.00     0.251 C 
HETATM   13  O1  UNL     1      -4.036   0.851  15.563  1.00  0.00    -0.271 OA
ATOM     14  H2  UNL     1      -5.159   2.933  13.374  1.00  0.00     0.162 HD
BRANCH  12  15
HETATM   15  C6  UNL     1      -5.080   2.885  16.099  1.00  0.00     0.314 C 
HETATM   16  N1  UNL     1      -6.504   2.799  16.284  1.00  0.00     0.101 N 
HETATM   17  C3  UNL     1      -6.758   4.070  16.987  1.00  0.00     0.273 C 
HETATM   18  C4  UNL     1      -6.125   5.034  15.980  1.00  0.00     0.033 C 
HETATM   19  C5  UNL     1      -4.973   4.248  15.394  1.00  0.00     0.047 C 
BRANCH  16  20
HETATM   20  C2  UNL     1      -6.924   1.681  17.076  1.00  0.00     0.269 C 
HETATM   21  C1  UNL     1      -6.262   1.816  18.449  1.00  0.00     0.037 C 
ENDBRANCH  16  20
ENDBRANCH  12  15
ENDBRANCH  10  11
ENDBRANCH   1  10
BRANCH   1  22
HETATM   22  C10 UNL     1      -2.898   0.640  10.708  1.00  0.00     0.413 C 
HETATM   23  F1  UNL     1      -1.959   1.158   9.825  1.00  0.00    -0.168 F 
HETATM   24  F2  UNL     1      -3.876   0.005  10.011  1.00  0.00    -0.168 F 
HETATM   25  F3  UNL     1      -2.202  -0.374  11.389  1.00  0.00    -0.168 F 
ENDBRANCH   1  22
TORSDOF 5
ENDMDL
MODEL 3
REMARK VINA RESULT: -7.960476645      3.908      6.677
REMARK  5 active torsions:
REMARK  status: ('A' for Active; 'I' for Inactive)
REMARK    1  A    between atoms: C2_2  and  N1_3 
REMARK    2  A    between atoms: C6_7  and  C7_8 
REMARK       I    between atoms: C7_8  and  N2_10 
REMARK    3  A    between atoms: N2_10  and  C8_12 
REMARK    4  A    between atoms: C8_12  and  C9_13 
REMARK    5  A    between atoms: C9_13  and  C10_14 
ROOT
HETATM    1  C9  UNL     1      -5.382   3.828  14.975  1.00  0.00     0.140 C 
HETATM    2  C11 UNL     1      -6.690   4.244  15.608  1.00  0.00     0.045 C 
HETATM    3  C12 UNL     1      -6.793   3.997  17.069  1.00  0.00     0.046 C 
HETATM    4  C13 UNL     1      -6.290   2.649  17.476  1.00  0.00     0.128 C 
HETATM    5 CL1  UNL     1      -7.388   1.410  16.810  1.00  0.00    -0.100 Cl
HETATM    6 CL2  UNL     1      -6.282   2.501  19.246  1.00  0.00    -0.100 Cl
HETATM    7  C14 UNL     1      -4.909   2.461  16.937  1.00  0.00     0.157 C 
HETATM    8  N3  UNL     1      -4.839   2.608  15.533  1.00  0.00    -0.401 N 
ATOM      9  H3  UNL     1      -4.425   1.888  14.940  1.00  0.00     0.154 HD
ENDROOT
BRANCH   1  10
HETATM   10  C8  UNL     1      -5.709   3.499  13.544  1.00  0.00     0.162 C 
BRANCH  10  11
HETATM   11  N2  UNL     1      -4.690   2.804  12.833  1.00  0.00    -0.357 N 
HETATM   12  C7  UNL     1      -4.977   2.039  11.669  1.00  0.00     0.251 C 
HETATM   13  O1  UNL     1      -6.163   1.971  11.251  1.00  0.00    -0.271 OA
ATOM     14  H2  UNL     1      -3.728   2.856  13.167  1.00  0.00     0.162 HD
BRANCH  12  15
HETATM   15  C6  UNL     1      -3.931   1.316  10.927  1.00  0.00     0.314 C 
HETATM   16  N1  UNL     1      -3.273   0.330  11.740  1.00  0.00     0.101 N 
HETATM   17  C3  UNL     1      -2.097   0.035  10.902  1.00  0.00     0.273 C 
HETATM   18  C4  UNL     1      -1.550   1.456  10.744  1.00  0.00     0.033 C 
HETATM   19  C5  UNL     1      -2.787   2.326  10.734  1.00  0.00     0.047 C 
BRANCH  16  20
HETATM   20  C2  UNL     1      -4.050  -0.853  11.970  1.00  0.00     0.269 C 
HETATM   21  C1  UNL     1      -3.196  -2.052  11.553  1.00  0.00     0.037 C 
ENDBRANCH  16  20
ENDBRANCH  12  15
ENDBRANCH  10  11
ENDBRANCH   1  10
BRANCH   1  22
HETATM   22  C10 UNL     1      -4.375   4.925  15.136  1.00  0.00     0.413 C 
HETATM   23  F1  UNL     1      -3.103   4.430  15.391  1.00  0.00    -0.168 F 
HETATM   24  F2  UNL     1      -4.697   5.854  16.074  1.00  0.00    -0.168 F 
HETATM   25  F3  UNL     1      -4.228   5.640  13.934  1.00  0.00    -0.168 F 
ENDBRANCH   1  22
TORSDOF 5
ENDMDL
MODEL 4
REMARK VINA RESULT: -7.943859400      0.595      1.661
REMARK  5 active torsions:
REMARK  status: ('A' for Active; 'I' for Inactive)
REMARK    1  A    between atoms: C2_2  and  N1_3 
REMARK    2  A    between atoms: C6_7  and  C7_8 
REMARK       I    between atoms: C7_8  and  N2_10 
REMARK    3  A    between atoms: N2_10  and  C8_12 
REMARK    4  A    between atoms: C8_12  and  C9_13 
REMARK    5  A    between atoms: C9_13  and  C10_14 
ROOT
HETATM    1  C9  UNL     1      -3.582   0.684  11.947  1.00  0.00     0.140 C 
HETATM    2  C11 UNL     1      -4.539   1.843  11.779  1.00  0.00     0.045 C 
HETATM    3  C12 UNL     1      -4.145   2.845  10.755  1.00  0.00     0.046 C 
HETATM    4  C13 UNL     1      -2.699   3.219  10.822  1.00  0.00     0.128 C 
HETATM    5 CL1  UNL     1      -2.413   4.107  12.342  1.00  0.00    -0.100 Cl
HETATM    6 CL2  UNL     1      -2.272   4.278   9.461  1.00  0.00    -0.100 Cl
HETATM    7  C14 UNL     1      -1.872   1.975  10.785  1.00  0.00     0.157 C 
HETATM    8  N3  UNL     1      -2.192   1.067  11.820  1.00  0.00    -0.401 N 
ATOM      9  H3  UNL     1      -1.477   0.698  12.447  1.00  0.00     0.154 HD
ENDROOT
BRANCH   1  10
HETATM   10  C8  UNL     1      -3.739   0.230  13.373  1.00  0.00     0.162 C 
BRANCH  10  11
HETATM   11  N2  UNL     1      -4.790   0.861  14.098  1.00  0.00    -0.357 N 
HETATM   12  C7  UNL     1      -4.742   1.006  15.512  1.00  0.00     0.251 C 
HETATM   13  O1  UNL     1      -3.745   0.566  16.145  1.00  0.00    -0.271 OA
ATOM     14  H2  UNL     1      -5.598   1.218  13.590  1.00  0.00     0.162 HD
BRANCH  12  15
HETATM   15  C6  UNL     1      -5.822   1.654  16.272  1.00  0.00     0.314 C 
HETATM   16  N1  UNL     1      -5.536   3.036  16.551  1.00  0.00     0.101 N 
HETATM   17  C3  UNL     1      -6.555   3.317  17.578  1.00  0.00     0.273 C 
HETATM   18  C4  UNL     1      -6.215   2.200  18.568  1.00  0.00     0.033 C 
HETATM   19  C5  UNL     1      -5.743   1.063  17.690  1.00  0.00     0.047 C 
BRANCH  16  20
HETATM   20  C2  UNL     1      -5.691   3.904  15.421  1.00  0.00     0.269 C 
HETATM   21  C1  UNL     1      -5.905   5.321  15.957  1.00  0.00     0.037 C 
ENDBRANCH  16  20
ENDBRANCH  12  15
ENDBRANCH  10  11
ENDBRANCH   1  10
BRANCH   1  22
HETATM   22  C10 UNL     1      -3.889  -0.373  10.931  1.00  0.00     0.413 C 
HETATM   23  F1  UNL     1      -3.542  -1.641  11.379  1.00  0.00    -0.168 F 
HETATM   24  F2  UNL     1      -3.339  -0.156   9.707  1.00  0.00    -0.168 F 
HETATM   25  F3  UNL     1      -5.275  -0.457  10.710  1.00  0.00    -0.168 F 
ENDBRANCH   1  22
TORSDOF 5
ENDMDL
MODEL 5
REMARK VINA RESULT: -7.388231646      1.172      1.997
REMARK  5 active torsions:
REMARK  status: ('A' for Active; 'I' for Inactive)
REMARK    1  A    between atoms: C2_2  and  N1_3 
REMARK    2  A    between atoms: C6_7  and  C7_8 
REMARK       I    between atoms: C7_8  and  N2_10 
REMARK    3  A    between atoms: N2_10  and  C8_12 
REMARK    4  A    between atoms: C8_12  and  C9_13 
REMARK    5  A    between atoms: C9_13  and  C10_14 
ROOT
HETATM    1  C9  UNL     1      -3.254   1.551  11.919  1.00  0.00     0.140 C 
HETATM    2  C11 UNL     1      -4.510   2.260  11.466  1.00  0.00     0.045 C 
HETATM    3  C12 UNL     1      -4.289   3.530  10.727  1.00  0.00     0.046 C 
HETATM    4  C13 UNL     1      -3.256   4.407  11.359  1.00  0.00     0.128 C 
HETATM    5 CL1  UNL     1      -3.887   4.991  12.921  1.00  0.00    -0.100 Cl
HETATM    6 CL2  UNL     1      -2.923   5.812  10.324  1.00  0.00    -0.100 Cl
HETATM    7  C14 UNL     1      -2.006   3.615  11.568  1.00  0.00     0.157 C 
HETATM    8  N3  UNL     1      -2.210   2.456  12.351  1.00  0.00    -0.401 N 
ATOM      9  H3  UNL     1      -1.649   2.266  13.181  1.00  0.00     0.154 HD
ENDROOT
BRANCH   1  10
HETATM   10  C8  UNL     1      -3.645   0.779  13.150  1.00  0.00     0.162 C 
BRANCH  10  11
HETATM   11  N2  UNL     1      -4.711   1.343  13.907  1.00  0.00    -0.357 N 
HETATM   12  C7  UNL     1      -4.766   1.228  15.324  1.00  0.00     0.251 C 
HETATM   13  O1  UNL     1      -3.850   0.613  15.930  1.00  0.00    -0.271 OA
ATOM     14  H2  UNL     1      -5.455   1.842  13.421  1.00  0.00     0.162 HD
BRANCH  12  15
HETATM   15  C6  UNL     1      -5.864   1.806  16.116  1.00  0.00     0.314 C 
HETATM   16  N1  UNL     1      -5.607   3.171  16.485  1.00  0.00     0.101 N 
HETATM   17  C3  UNL     1      -6.638   3.366  17.520  1.00  0.00     0.273 C 
HETATM   18  C4  UNL     1      -6.282   2.194  18.439  1.00  0.00     0.033 C 
HETATM   19  C5  UNL     1      -5.782   1.125  17.494  1.00  0.00     0.047 C 
BRANCH  16  20
HETATM   20  C2  UNL     1      -5.773   4.108  15.412  1.00  0.00     0.269 C 
HETATM   21  C1  UNL     1      -5.924   5.497  16.035  1.00  0.00     0.037 C 
ENDBRANCH  16  20
ENDBRANCH  12  15
ENDBRANCH  10  11
ENDBRANCH   1  10
BRANCH   1  22
HETATM   22  C10 UNL     1      -2.728   0.700  10.805  1.00  0.00     0.413 C 
HETATM   23  F1  UNL     1      -1.979  -0.370  11.277  1.00  0.00    -0.168 F 
HETATM   24  F2  UNL     1      -2.014   1.376   9.867  1.00  0.00    -0.168 F 
HETATM   25  F3  UNL     1      -3.786   0.092  10.106  1.00  0.00    -0.168 F 
ENDBRANCH   1  22
TORSDOF 5
ENDMDL
