MODEL 1
REMARK VINA RESULT: -7.909593659      0.000      0.000
REMARK  5 active torsions:
REMARK  status: ('A' for Active; 'I' for Inactive)
REMARK    1  A    between atoms: C2_2  and  N1_3 
REMARK    2  A    between atoms: N1_3  and  C3_5 
REMARK    3  A    between atoms: C3_5  and  C4_6 
REMARK    4  A    between atoms: C3_5  and  C10_18 
REMARK       I    between atoms: C4_6  and  N2_8 
REMARK    5  A    between atoms: C8_14  and  C9_15 
ROOT
HETATM    1  C4  UNL     1      -3.580   3.682  14.377  1.00  0.00     0.247 C 
HETATM    2  O1  UNL     1      -2.543   3.728  15.078  1.00  0.00    -0.271 OA
HETATM    3  N2  UNL     1      -3.385   3.505  12.972  1.00  0.00    -0.330 N 
HETATM    4  C5  UNL     1      -2.040   3.507  12.364  1.00  0.00     0.206 C 
HETATM    5  C6  UNL     1      -2.178   2.750  11.072  1.00  0.00     0.262 C 
HETATM    6  F1  UNL     1      -2.223   1.399  11.327  1.00  0.00    -0.204 F 
HETATM    7  F2  UNL     1      -1.201   3.078  10.170  1.00  0.00    -0.204 F 
HETATM    8  C7  UNL     1      -3.562   3.193  10.609  1.00  0.00     0.117 C 
HETATM    9  C8  UNL     1      -4.320   3.224  11.945  1.00  0.00     0.194 C 
ENDROOT
BRANCH   1  10
HETATM   10  C3  UNL     1      -4.950   3.793  14.935  1.00  0.00     0.225 C 
BRANCH  10  11
HETATM   11  N1  UNL     1      -5.168   3.185  16.137  1.00  0.00    -0.398 N 
ATOM     12  H1  UNL     1      -4.926   3.806  16.909  1.00  0.00     0.155 HD
BRANCH  11  13
HETATM   13  C2  UNL     1      -5.618   1.979  16.603  1.00  0.00     0.023 A 
HETATM   14  C1  UNL     1      -4.946   0.621  16.426  1.00  0.00     0.038 C 
HETATM   15  C11 UNL     1      -7.119   1.841  16.999  1.00  0.00     0.032 A 
HETATM   16  C12 UNL     1      -6.170   2.109  18.071  1.00  0.00     0.032 A 
ENDBRANCH  11  13
ENDBRANCH  10  11
BRANCH  10  17
HETATM   17  C10 UNL     1      -5.391   5.258  14.944  1.00  0.00     0.216 C 
HETATM   18 CL1  UNL     1      -3.987   6.323  15.143  1.00  0.00    -0.081 Cl
HETATM   19 CL2  UNL     1      -6.393   5.575  16.437  1.00  0.00    -0.081 Cl
HETATM   20 CL3  UNL     1      -6.392   5.772  13.629  1.00  0.00    -0.081 Cl
ENDBRANCH  10  17
ENDBRANCH   1  10
BRANCH   9  21
HETATM   21  C9  UNL     1      -4.929   1.871  12.064  1.00  0.00     0.197 C 
HETATM   22  O2  UNL     1      -4.681   1.166  13.045  1.00  0.00    -0.646 OA
HETATM   23  O3  UNL     1      -5.762   1.437  11.068  1.00  0.00    -0.646 OA
ENDBRANCH   9  21
TORSDOF 5
ENDMDL
MODEL 2
REMARK VINA RESULT: -7.869269685      0.169      1.250
REMARK  5 active torsions:
REMARK  status: ('A' for Active; 'I' for Inactive)
REMARK    1  A    between atoms: C2_2  and  N1_3 
REMARK    2  A    between atoms: N1_3  and  C3_5 
REMARK    3  A    between atoms: C3_5  and  C4_6 
REMARK    4  A    between atoms: C3_5  and  C10_18 
REMARK       I    between atoms: C4_6  and  N2_8 
REMARK    5  A    between atoms: C8_14  and  C9_15 
ROOT
HETATM    1  C4  UNL     1      -3.490   3.758  14.372  1.00  0.00     0.247 C 
HETATM    2  O1  UNL     1      -2.443   3.763  15.059  1.00  0.00    -0.271 OA
HETATM    3  N2  UNL     1      -3.317   3.625  12.959  1.00  0.00    -0.330 N 
HETATM    4  C5  UNL     1      -1.980   3.626  12.333  1.00  0.00     0.206 C 
HETATM    5  C6  UNL     1      -2.148   2.915  11.019  1.00  0.00     0.262 C 
HETATM    6  F1  UNL     1      -2.212   1.557  11.229  1.00  0.00    -0.204 F 
HETATM    7  F2  UNL     1      -1.179   3.257  10.114  1.00  0.00    -0.204 F 
HETATM    8  C7  UNL     1      -3.531   3.396  10.590  1.00  0.00     0.117 C 
HETATM    9  C8  UNL     1      -4.270   3.394  11.936  1.00  0.00     0.194 C 
ENDROOT
BRANCH   1  10
HETATM   10  C3  UNL     1      -4.850   3.872  14.953  1.00  0.00     0.225 C 
BRANCH  10  11
HETATM   11  N1  UNL     1      -5.066   3.212  16.128  1.00  0.00    -0.398 N 
ATOM     12  H1  UNL     1      -4.785   3.783  16.924  1.00  0.00     0.155 HD
BRANCH  11  13
HETATM   13  C2  UNL     1      -5.554   2.001  16.543  1.00  0.00     0.023 A 
HETATM   14  C1  UNL     1      -4.914   0.634  16.324  1.00  0.00     0.038 C 
HETATM   15  C11 UNL     1      -7.063   1.889  16.914  1.00  0.00     0.032 A 
HETATM   16  C12 UNL     1      -6.123   2.092  18.008  1.00  0.00     0.032 A 
ENDBRANCH  11  13
ENDBRANCH  10  11
BRANCH  10  17
HETATM   17  C10 UNL     1      -5.258   5.344  15.037  1.00  0.00     0.216 C 
HETATM   18 CL1  UNL     1      -6.303   5.613  16.445  1.00  0.00    -0.081 Cl
HETATM   19 CL2  UNL     1      -6.329   5.753  13.615  1.00  0.00    -0.081 Cl
HETATM   20 CL3  UNL     1      -3.979   6.507  14.969  1.00  0.00    -0.081 Cl
ENDBRANCH  10  17
ENDBRANCH   1  10
BRANCH   9  21
HETATM   21  C9  UNL     1      -4.900   2.048  12.019  1.00  0.00     0.197 C 
HETATM   22  O2  UNL     1      -5.799   1.737  11.234  1.00  0.00    -0.646 OA
HETATM   23  O3  UNL     1      -4.459   1.176  12.978  1.00  0.00    -0.646 OA
ENDBRANCH   9  21
TORSDOF 5
ENDMDL
MODEL 3
REMARK VINA RESULT: -7.513821233      3.127      5.549
REMARK  5 active torsions:
REMARK  status: ('A' for Active; 'I' for Inactive)
REMARK    1  A    between atoms: C2_2  and  N1_3 
REMARK    2  A    between atoms: N1_3  and  C3_5 
REMARK    3  A    between atoms: C3_5  and  C4_6 
REMARK    4  A    between atoms: C3_5  and  C10_18 
REMARK       I    between atoms: C4_6  and  N2_8 
REMARK    5  A    between atoms: C8_14  and  C9_15 
ROOT
HETATM    1  C4  UNL     1      -5.181   3.452  13.392  1.00  0.00     0.247 C 
HETATM    2  O1  UNL     1      -6.188   3.925  12.817  1.00  0.00    -0.271 OA
HETATM    3  N2  UNL     1      -5.327   3.161  14.784  1.00  0.00    -0.330 N 
HETATM    4  C5  UNL     1      -6.550   3.516  15.532  1.00  0.00     0.206 C 
HETATM    5  C6  UNL     1      -6.584   2.589  16.715  1.00  0.00     0.262 C 
HETATM    6  F1  UNL     1      -7.012   1.344  16.318  1.00  0.00    -0.204 F 
HETATM    7  F2  UNL     1      -7.331   3.091  17.747  1.00  0.00    -0.204 F 
HETATM    8  C7  UNL     1      -5.103   2.494  17.068  1.00  0.00     0.117 C 
HETATM    9  C8  UNL     1      -4.472   2.457  15.668  1.00  0.00     0.194 C 
ENDROOT
BRANCH   1  10
HETATM   10  C3  UNL     1      -3.895   3.187  12.703  1.00  0.00     0.225 C 
BRANCH  10  11
HETATM   11  N1  UNL     1      -3.959   2.442  11.562  1.00  0.00    -0.398 N 
ATOM     12  H1  UNL     1      -4.540   2.899  10.860  1.00  0.00     0.155 HD
BRANCH  11  13
HETATM   13  C2  UNL     1      -3.466   1.254  11.090  1.00  0.00     0.023 A 
HETATM   14  C1  UNL     1      -4.273   0.091  10.520  1.00  0.00     0.038 C 
HETATM   15  C11 UNL     1      -2.029   0.821  11.507  1.00  0.00     0.032 A 
HETATM   16  C12 UNL     1      -2.177   1.482  10.217  1.00  0.00     0.032 A 
ENDBRANCH  11  13
ENDBRANCH  10  11
BRANCH  10  17
HETATM   17  C10 UNL     1      -3.139   4.500  12.490  1.00  0.00     0.216 C 
HETATM   18 CL1  UNL     1      -3.334   5.058  10.817  1.00  0.00    -0.081 Cl
HETATM   19 CL2  UNL     1      -1.345   4.192  12.639  1.00  0.00    -0.081 Cl
HETATM   20 CL3  UNL     1      -3.459   5.770  13.620  1.00  0.00    -0.081 Cl
ENDBRANCH  10  17
ENDBRANCH   1  10
BRANCH   9  21
HETATM   21  C9  UNL     1      -4.361   1.009  15.343  1.00  0.00     0.197 C 
HETATM   22  O2  UNL     1      -4.769   0.585  14.260  1.00  0.00    -0.646 OA
HETATM   23  O3  UNL     1      -3.798   0.171  16.268  1.00  0.00    -0.646 OA
ENDBRANCH   9  21
TORSDOF 5
ENDMDL
MODEL 4
REMARK VINA RESULT: -7.417221232      3.099      5.447
REMARK  5 active torsions:
REMARK  status: ('A' for Active; 'I' for Inactive)
REMARK    1  A    between atoms: C2_2  and  N1_3 
REMARK    2  A    between atoms: N1_3  and  C3_5 
REMARK    3  A    between atoms: C3_5  and  C4_6 
REMARK    4  A    between atoms: C3_5  and  C10_18 
REMARK       I    between atoms: C4_6  and  N2_8 
REMARK    5  A    between atoms: C8_14  and  C9_15 
ROOT
HETATM    1  C4  UNL     1      -5.206   3.455  13.404  1.00  0.00     0.247 C 
HETATM    2  O1  UNL     1      -6.218   3.925  12.835  1.00  0.00    -0.271 OA
HETATM    3  N2  UNL     1      -5.344   3.161  14.796  1.00  0.00    -0.330 N 
HETATM    4  C5  UNL     1      -6.564   3.511  15.551  1.00  0.00     0.206 C 
HETATM    5  C6  UNL     1      -6.590   2.582  16.732  1.00  0.00     0.262 C 
HETATM    6  F1  UNL     1      -7.016   1.336  16.335  1.00  0.00    -0.204 F 
HETATM    7  F2  UNL     1      -7.332   3.080  17.770  1.00  0.00    -0.204 F 
HETATM    8  C7  UNL     1      -5.107   2.491  17.078  1.00  0.00     0.117 C 
HETATM    9  C8  UNL     1      -4.482   2.458  15.675  1.00  0.00     0.194 C 
ENDROOT
BRANCH   1  10
HETATM   10  C3  UNL     1      -3.923   3.195  12.707  1.00  0.00     0.225 C 
BRANCH  10  11
HETATM   11  N1  UNL     1      -3.987   2.428  11.580  1.00  0.00    -0.398 N 
ATOM     12  H1  UNL     1      -4.583   2.864  10.877  1.00  0.00     0.155 HD
BRANCH  11  13
HETATM   13  C2  UNL     1      -3.481   1.240  11.123  1.00  0.00     0.023 A 
HETATM   14  C1  UNL     1      -4.276   0.043  10.613  1.00  0.00     0.038 C 
HETATM   15  C11 UNL     1      -2.019   0.854  11.503  1.00  0.00     0.032 A 
HETATM   16  C12 UNL     1      -2.227   1.476  10.202  1.00  0.00     0.032 A 
ENDBRANCH  11  13
ENDBRANCH  10  11
BRANCH  10  17
HETATM   17  C10 UNL     1      -3.186   4.513  12.464  1.00  0.00     0.216 C 
HETATM   18 CL1  UNL     1      -1.431   4.255  12.509  1.00  0.00    -0.081 Cl
HETATM   19 CL2  UNL     1      -3.496   5.643  13.865  1.00  0.00    -0.081 Cl
HETATM   20 CL3  UNL     1      -3.656   5.415  11.064  1.00  0.00    -0.081 Cl
ENDBRANCH  10  17
ENDBRANCH   1  10
BRANCH   9  21
HETATM   21  C9  UNL     1      -4.369   1.010  15.347  1.00  0.00     0.197 C 
HETATM   22  O2  UNL     1      -4.783   0.587  14.265  1.00  0.00    -0.646 OA
HETATM   23  O3  UNL     1      -3.797   0.173  16.267  1.00  0.00    -0.646 OA
ENDBRANCH   9  21
TORSDOF 5
ENDMDL
MODEL 5
REMARK VINA RESULT: -7.194824456      1.231      2.052
REMARK  5 active torsions:
REMARK  status: ('A' for Active; 'I' for Inactive)
REMARK    1  A    between atoms: C2_2  and  N1_3 
REMARK    2  A    between atoms: N1_3  and  C3_5 
REMARK    3  A    between atoms: C3_5  and  C4_6 
REMARK    4  A    between atoms: C3_5  and  C10_18 
REMARK       I    between atoms: C4_6  and  N2_8 
REMARK    5  A    between atoms: C8_14  and  C9_15 
ROOT
HETATM    1  C4  UNL     1      -3.314   3.937  13.516  1.00  0.00     0.247 C 
HETATM    2  O1  UNL     1      -2.505   4.082  14.462  1.00  0.00    -0.271 OA
HETATM    3  N2  UNL     1      -2.746   3.630  12.241  1.00  0.00    -0.330 N 
HETATM    4  C5  UNL     1      -1.286   3.614  12.020  1.00  0.00     0.206 C 
HETATM    5  C6  UNL     1      -1.067   2.731  10.823  1.00  0.00     0.262 C 
HETATM    6  F1  UNL     1      -1.175   1.411  11.193  1.00  0.00    -0.204 F 
HETATM    7  F2  UNL     1       0.115   3.000  10.188  1.00  0.00    -0.204 F 
HETATM    8  C7  UNL     1      -2.276   3.085   9.962  1.00  0.00     0.117 C 
HETATM    9  C8  UNL     1      -3.367   3.222  11.034  1.00  0.00     0.194 C 
ENDROOT
BRANCH   1  10
HETATM   10  C3  UNL     1      -4.784   4.059  13.672  1.00  0.00     0.225 C 
BRANCH  10  11
HETATM   11  N1  UNL     1      -5.393   3.122  14.455  1.00  0.00    -0.398 N 
ATOM     12  H1  UNL     1      -5.974   2.500  13.893  1.00  0.00     0.155 HD
BRANCH  11  13
HETATM   13  C2  UNL     1      -5.447   2.777  15.779  1.00  0.00     0.023 A 
HETATM   14  C1  UNL     1      -6.372   3.366  16.840  1.00  0.00     0.038 C 
HETATM   15  C11 UNL     1      -4.232   2.033  16.410  1.00  0.00     0.032 A 
HETATM   16  C12 UNL     1      -5.353   1.217  15.963  1.00  0.00     0.032 A 
ENDBRANCH  11  13
ENDBRANCH  10  11
BRANCH  10  17
HETATM   17  C10 UNL     1      -5.146   5.484  14.094  1.00  0.00     0.216 C 
HETATM   18 CL1  UNL     1      -6.906   5.708  14.061  1.00  0.00    -0.081 Cl
HETATM   19 CL2  UNL     1      -4.534   6.658  12.837  1.00  0.00    -0.081 Cl
HETATM   20 CL3  UNL     1      -4.467   6.045  15.583  1.00  0.00    -0.081 Cl
ENDBRANCH  10  17
ENDBRANCH   1  10
BRANCH   9  21
HETATM   21  C9  UNL     1      -3.981   1.869  11.123  1.00  0.00     0.197 C 
HETATM   22  O2  UNL     1      -4.478   1.349  10.121  1.00  0.00    -0.646 OA
HETATM   23  O3  UNL     1      -3.979   1.226  12.332  1.00  0.00    -0.646 OA
ENDBRANCH   9  21
TORSDOF 5
ENDMDL
