MODEL 1
REMARK VINA RESULT: -7.861441549      0.000      0.000
REMARK  10 active torsions:
REMARK  status: ('A' for Active; 'I' for Inactive)
REMARK    1  A    between atoms: C2_2  and  O1_4 
REMARK    2  A    between atoms: C2_2  and  C4_6 
REMARK    3  A    between atoms: C4_6  and  C5_7 
REMARK    4  A    between atoms: C5_7  and  N1_8 
REMARK    5  A    between atoms: N2_11  and  C7_12 
REMARK    6  A    between atoms: C7_12  and  C8_13 
REMARK    7  A    between atoms: C10_19  and  C11_20 
REMARK    8  A    between atoms: C10_19  and  C16_25 
REMARK    9  A    between atoms: C12_21  and  C13_22 
REMARK   10  A    between atoms: C16_25  and  O4_26 
ROOT
HETATM    1  N1  UNL     1      -3.230   3.490  12.384  1.00  0.00    -0.300 N 
HETATM    2  C6  UNL     1      -2.555   2.322  11.893  1.00  0.00     0.329 C 
HETATM    3  O2  UNL     1      -1.317   2.099  11.845  1.00  0.00    -0.246 OA
HETATM    4  N2  UNL     1      -3.547   1.394  11.439  1.00  0.00    -0.258 N 
HETATM    5  C9  UNL     1      -4.823   1.986  11.650  1.00  0.00     0.275 C 
HETATM    6  O3  UNL     1      -5.925   1.677  11.154  1.00  0.00    -0.269 OA
HETATM    7  C10 UNL     1      -4.586   3.101  12.623  1.00  0.00     0.236 C 
ENDROOT
BRANCH   7   8
HETATM    8  C11 UNL     1      -4.614   2.552  14.009  1.00  0.00    -0.059 C 
HETATM    9  C12 UNL     1      -4.643   2.122  15.128  1.00  0.00    -0.098 C 
BRANCH   9  10
HETATM   10  C13 UNL     1      -4.680   1.621  16.506  1.00  0.00     0.065 A 
HETATM   11  C14 UNL     1      -5.644   2.222  17.460  1.00  0.00     0.018 A 
HETATM   12  C15 UNL     1      -5.897   0.853  16.871  1.00  0.00     0.018 A 
ENDBRANCH   9  10
ENDBRANCH   7   8
BRANCH   7  13
HETATM   13  C16 UNL     1      -5.605   4.183  12.459  1.00  0.00     0.355 C 
HETATM   14  F4  UNL     1      -5.723   4.563  11.156  1.00  0.00    -0.215 F 
BRANCH  13  15
HETATM   15  O4  UNL     1      -6.781   3.817  13.085  1.00  0.00    -0.364 OA
ATOM     16  H4  UNL     1      -7.494   4.363  12.776  1.00  0.00     0.213 HD
ENDBRANCH  13  15
ENDBRANCH   7  13
BRANCH   1  17
HETATM   17  C5  UNL     1      -2.641   4.779  12.590  1.00  0.00     0.133 C 
BRANCH  17  18
HETATM   18  C4  UNL     1      -2.493   5.136  14.048  1.00  0.00     0.057 C 
BRANCH  18  19
HETATM   19  C2  UNL     1      -3.273   6.377  14.397  1.00  0.00     0.052 C 
HETATM   20  C1  UNL     1      -2.409   7.441  15.039  1.00  0.00     0.045 C 
HETATM   21  C3  UNL     1      -4.404   6.074  15.358  1.00  0.00     0.045 C 
BRANCH  19  22
HETATM   22  O1  UNL     1      -3.846   6.952  13.266  1.00  0.00    -0.391 OA
ATOM     23  H1  UNL     1      -4.763   7.099  13.466  1.00  0.00     0.210 HD
ENDBRANCH  19  22
ENDBRANCH  18  19
ENDBRANCH  17  18
ENDBRANCH   1  17
BRANCH   4  24
HETATM   24  C7  UNL     1      -3.354   0.087  10.862  1.00  0.00     0.254 C 
BRANCH  24  25
HETATM   25  C8  UNL     1      -3.882  -0.938  11.858  1.00  0.00     0.403 C 
HETATM   26  F1  UNL     1      -5.107  -1.393  11.481  1.00  0.00    -0.169 F 
HETATM   27  F2  UNL     1      -3.014  -2.020  11.859  1.00  0.00    -0.169 F 
HETATM   28  F3  UNL     1      -3.990  -0.378  13.119  1.00  0.00    -0.169 F 
ENDBRANCH  24  25
ENDBRANCH   4  24
TORSDOF 10
ENDMDL
MODEL 2
REMARK VINA RESULT: -7.776448385      1.505      2.305
REMARK  10 active torsions:
REMARK  status: ('A' for Active; 'I' for Inactive)
REMARK    1  A    between atoms: C2_2  and  O1_4 
REMARK    2  A    between atoms: C2_2  and  C4_6 
REMARK    3  A    between atoms: C4_6  and  C5_7 
REMARK    4  A    between atoms: C5_7  and  N1_8 
REMARK    5  A    between atoms: N2_11  and  C7_12 
REMARK    6  A    between atoms: C7_12  and  C8_13 
REMARK    7  A    between atoms: C10_19  and  C11_20 
REMARK    8  A    between atoms: C10_19  and  C16_25 
REMARK    9  A    between atoms: C12_21  and  C13_22 
REMARK   10  A    between atoms: C16_25  and  O4_26 
ROOT
HETATM    1  N1  UNL     1      -3.183   3.093  12.485  1.00  0.00    -0.300 N 
HETATM    2  C6  UNL     1      -2.791   1.837  11.911  1.00  0.00     0.329 C 
HETATM    3  O2  UNL     1      -1.635   1.348  11.820  1.00  0.00    -0.246 OA
HETATM    4  N2  UNL     1      -3.970   1.184  11.428  1.00  0.00    -0.258 N 
HETATM    5  C9  UNL     1      -5.079   2.031  11.703  1.00  0.00     0.275 C 
HETATM    6  O3  UNL     1      -6.227   2.006  11.217  1.00  0.00    -0.269 OA
HETATM    7  C10 UNL     1      -4.589   3.002  12.734  1.00  0.00     0.236 C 
ENDROOT
BRANCH   7   8
HETATM    8  C11 UNL     1      -4.725   2.388  14.085  1.00  0.00    -0.059 C 
HETATM    9  C12 UNL     1      -4.847   1.901  15.175  1.00  0.00    -0.098 C 
BRANCH   9  10
HETATM   10  C13 UNL     1      -5.011   1.326  16.513  1.00  0.00     0.065 A 
HETATM   11  C14 UNL     1      -5.656   2.144  17.569  1.00  0.00     0.018 A 
HETATM   12  C15 UNL     1      -6.408   1.013  16.905  1.00  0.00     0.018 A 
ENDBRANCH   9  10
ENDBRANCH   7   8
BRANCH   7  13
HETATM   13  C16 UNL     1      -5.342   4.292  12.657  1.00  0.00     0.355 C 
HETATM   14  F4  UNL     1      -5.220   4.868  11.429  1.00  0.00    -0.215 F 
BRANCH  13  15
HETATM   15  O4  UNL     1      -6.635   4.107  13.107  1.00  0.00    -0.364 OA
ATOM     16  H4  UNL     1      -6.847   4.764  13.759  1.00  0.00     0.213 HD
ENDBRANCH  13  15
ENDBRANCH   7  13
BRANCH   1  17
HETATM   17  C5  UNL     1      -2.318   4.204  12.752  1.00  0.00     0.133 C 
BRANCH  17  18
HETATM   18  C4  UNL     1      -1.774   4.845  11.500  1.00  0.00     0.057 C 
BRANCH  18  19
HETATM   19  C2  UNL     1      -0.301   4.573  11.334  1.00  0.00     0.052 C 
HETATM   20  C1  UNL     1       0.532   5.835  11.420  1.00  0.00     0.045 C 
HETATM   21  C3  UNL     1       0.001   3.926   9.999  1.00  0.00     0.045 C 
BRANCH  19  22
HETATM   22  O1  UNL     1       0.172   3.711  12.320  1.00  0.00    -0.391 OA
ATOM     23  H1  UNL     1       1.116   3.675  12.223  1.00  0.00     0.210 HD
ENDBRANCH  19  22
ENDBRANCH  18  19
ENDBRANCH  17  18
ENDBRANCH   1  17
BRANCH   4  24
HETATM   24  C7  UNL     1      -4.080  -0.095  10.771  1.00  0.00     0.254 C 
BRANCH  24  25
HETATM   25  C8  UNL     1      -3.996  -1.172  11.845  1.00  0.00     0.403 C 
HETATM   26  F1  UNL     1      -4.889  -2.168  11.604  1.00  0.00    -0.169 F 
HETATM   27  F2  UNL     1      -2.725  -1.726  11.795  1.00  0.00    -0.169 F 
HETATM   28  F3  UNL     1      -4.262  -0.635  13.092  1.00  0.00    -0.169 F 
ENDBRANCH  24  25
ENDBRANCH   4  24
TORSDOF 10
ENDMDL
MODEL 3
REMARK VINA RESULT: -7.389903704      1.693      2.081
REMARK  10 active torsions:
REMARK  status: ('A' for Active; 'I' for Inactive)
REMARK    1  A    between atoms: C2_2  and  O1_4 
REMARK    2  A    between atoms: C2_2  and  C4_6 
REMARK    3  A    between atoms: C4_6  and  C5_7 
REMARK    4  A    between atoms: C5_7  and  N1_8 
REMARK    5  A    between atoms: N2_11  and  C7_12 
REMARK    6  A    between atoms: C7_12  and  C8_13 
REMARK    7  A    between atoms: C10_19  and  C11_20 
REMARK    8  A    between atoms: C10_19  and  C16_25 
REMARK    9  A    between atoms: C12_21  and  C13_22 
REMARK   10  A    between atoms: C16_25  and  O4_26 
ROOT
HETATM    1  N1  UNL     1      -4.012   4.689  13.932  1.00  0.00    -0.300 N 
HETATM    2  C6  UNL     1      -3.088   3.833  13.244  1.00  0.00     0.329 C 
HETATM    3  O2  UNL     1      -1.833   3.802  13.341  1.00  0.00    -0.246 OA
HETATM    4  N2  UNL     1      -3.840   2.971  12.382  1.00  0.00    -0.258 N 
HETATM    5  C9  UNL     1      -5.216   3.294  12.539  1.00  0.00     0.275 C 
HETATM    6  O3  UNL     1      -6.179   3.012  11.797  1.00  0.00    -0.269 OA
HETATM    7  C10 UNL     1      -5.297   4.070  13.818  1.00  0.00     0.236 C 
ENDROOT
BRANCH   7   8
HETATM    8  C11 UNL     1      -5.393   3.116  14.960  1.00  0.00    -0.059 C 
HETATM    9  C12 UNL     1      -5.483   2.355  15.882  1.00  0.00    -0.098 C 
BRANCH   9  10
HETATM   10  C13 UNL     1      -5.610   1.439  17.021  1.00  0.00     0.065 A 
HETATM   11  C14 UNL     1      -6.217   1.941  18.278  1.00  0.00     0.018 A 
HETATM   12  C15 UNL     1      -6.997   1.030  17.357  1.00  0.00     0.018 A 
ENDBRANCH   9  10
ENDBRANCH   7   8
BRANCH   7  13
HETATM   13  C16 UNL     1      -6.464   5.004  13.806  1.00  0.00     0.355 C 
HETATM   14  F4  UNL     1      -6.566   5.689  14.980  1.00  0.00    -0.215 F 
BRANCH  13  15
HETATM   15  O4  UNL     1      -6.433   5.778  12.662  1.00  0.00    -0.364 OA
ATOM     16  H4  UNL     1      -6.093   6.641  12.866  1.00  0.00     0.213 HD
ENDBRANCH  13  15
ENDBRANCH   7  13
BRANCH   1  17
HETATM   17  C5  UNL     1      -3.689   5.915  14.598  1.00  0.00     0.133 C 
BRANCH  17  18
HETATM   18  C4  UNL     1      -3.444   7.060  13.646  1.00  0.00     0.057 C 
BRANCH  18  19
HETATM   19  C2  UNL     1      -2.080   7.667  13.849  1.00  0.00     0.052 C 
HETATM   20  C1  UNL     1      -1.860   8.129  15.274  1.00  0.00     0.045 C 
HETATM   21  C3  UNL     1      -1.862   8.864  12.948  1.00  0.00     0.045 C 
BRANCH  19  22
HETATM   22  O1  UNL     1      -1.069   6.753  13.561  1.00  0.00    -0.391 OA
ATOM     23  H1  UNL     1      -0.710   6.998  12.716  1.00  0.00     0.210 HD
ENDBRANCH  19  22
ENDBRANCH  18  19
ENDBRANCH  17  18
ENDBRANCH   1  17
BRANCH   4  24
HETATM   24  C7  UNL     1      -3.351   1.947  11.492  1.00  0.00     0.254 C 
BRANCH  24  25
HETATM   25  C8  UNL     1      -3.761   0.600  12.072  1.00  0.00     0.403 C 
HETATM   26  F1  UNL     1      -4.957   0.198  11.566  1.00  0.00    -0.169 F 
HETATM   27  F2  UNL     1      -2.810  -0.336  11.694  1.00  0.00    -0.169 F 
HETATM   28  F3  UNL     1      -3.871   0.678  13.449  1.00  0.00    -0.169 F 
ENDBRANCH  24  25
ENDBRANCH   4  24
TORSDOF 10
ENDMDL
MODEL 4
REMARK VINA RESULT: -7.345138325      2.782      5.543
REMARK  10 active torsions:
REMARK  status: ('A' for Active; 'I' for Inactive)
REMARK    1  A    between atoms: C2_2  and  O1_4 
REMARK    2  A    between atoms: C2_2  and  C4_6 
REMARK    3  A    between atoms: C4_6  and  C5_7 
REMARK    4  A    between atoms: C5_7  and  N1_8 
REMARK    5  A    between atoms: N2_11  and  C7_12 
REMARK    6  A    between atoms: C7_12  and  C8_13 
REMARK    7  A    between atoms: C10_19  and  C11_20 
REMARK    8  A    between atoms: C10_19  and  C16_25 
REMARK    9  A    between atoms: C12_21  and  C13_22 
REMARK   10  A    between atoms: C16_25  and  O4_26 
ROOT
HETATM    1  N1  UNL     1      -4.319   3.161  12.621  1.00  0.00    -0.300 N 
HETATM    2  C6  UNL     1      -4.721   2.429  13.789  1.00  0.00     0.329 C 
HETATM    3  O2  UNL     1      -4.236   1.360  14.243  1.00  0.00    -0.246 OA
HETATM    4  N2  UNL     1      -5.813   3.127  14.396  1.00  0.00    -0.258 N 
HETATM    5  C9  UNL     1      -6.082   4.281  13.609  1.00  0.00     0.275 C 
HETATM    6  O3  UNL     1      -7.100   5.002  13.592  1.00  0.00    -0.269 OA
HETATM    7  C10 UNL     1      -4.859   4.478  12.765  1.00  0.00     0.236 C 
ENDROOT
BRANCH   7   8
HETATM    8  C11 UNL     1      -3.849   5.249  13.546  1.00  0.00    -0.059 C 
HETATM    9  C12 UNL     1      -3.041   5.881  14.167  1.00  0.00    -0.098 C 
BRANCH   9  10
HETATM   10  C13 UNL     1      -2.055   6.673  14.909  1.00  0.00     0.065 A 
HETATM   11  C14 UNL     1      -1.515   7.907  14.288  1.00  0.00     0.018 A 
HETATM   12  C15 UNL     1      -2.535   7.989  15.401  1.00  0.00     0.018 A 
ENDBRANCH   9  10
ENDBRANCH   7   8
BRANCH   7  13
HETATM   13  C16 UNL     1      -5.194   5.181  11.489  1.00  0.00     0.355 C 
HETATM   14  F4  UNL     1      -4.078   5.428  10.748  1.00  0.00    -0.215 F 
BRANCH  13  15
HETATM   15  O4  UNL     1      -6.209   4.508  10.837  1.00  0.00    -0.364 OA
ATOM     16  H4  UNL     1      -5.842   3.830  10.282  1.00  0.00     0.213 HD
ENDBRANCH  13  15
ENDBRANCH   7  13
BRANCH   1  17
HETATM   17  C5  UNL     1      -3.531   2.653  11.538  1.00  0.00     0.133 C 
BRANCH  17  18
HETATM   18  C4  UNL     1      -4.252   1.615  10.716  1.00  0.00     0.057 C 
BRANCH  18  19
HETATM   19  C2  UNL     1      -3.534   0.291  10.740  1.00  0.00     0.052 C 
HETATM   20  C1  UNL     1      -4.234  -0.729  11.613  1.00  0.00     0.045 C 
HETATM   21  C3  UNL     1      -2.119   0.433  11.259  1.00  0.00     0.045 C 
BRANCH  19  22
HETATM   22  O1  UNL     1      -3.445  -0.264   9.465  1.00  0.00    -0.391 OA
ATOM     23  H1  UNL     1      -4.193   0.056   8.974  1.00  0.00     0.210 HD
ENDBRANCH  19  22
ENDBRANCH  18  19
ENDBRANCH  17  18
ENDBRANCH   1  17
BRANCH   4  24
HETATM   24  C7  UNL     1      -6.550   2.777  15.585  1.00  0.00     0.254 C 
BRANCH  24  25
HETATM   25  C8  UNL     1      -5.842   3.420  16.771  1.00  0.00     0.403 C 
HETATM   26  F1  UNL     1      -6.624   3.380  17.882  1.00  0.00    -0.169 F 
HETATM   27  F2  UNL     1      -4.698   2.681  17.037  1.00  0.00    -0.169 F 
HETATM   28  F3  UNL     1      -5.535   4.740  16.495  1.00  0.00    -0.169 F 
ENDBRANCH  24  25
ENDBRANCH   4  24
TORSDOF 10
ENDMDL
MODEL 5
REMARK VINA RESULT: -7.186100850      2.793      5.796
REMARK  10 active torsions:
REMARK  status: ('A' for Active; 'I' for Inactive)
REMARK    1  A    between atoms: C2_2  and  O1_4 
REMARK    2  A    between atoms: C2_2  and  C4_6 
REMARK    3  A    between atoms: C4_6  and  C5_7 
REMARK    4  A    between atoms: C5_7  and  N1_8 
REMARK    5  A    between atoms: N2_11  and  C7_12 
REMARK    6  A    between atoms: C7_12  and  C8_13 
REMARK    7  A    between atoms: C10_19  and  C11_20 
REMARK    8  A    between atoms: C10_19  and  C16_25 
REMARK    9  A    between atoms: C12_21  and  C13_22 
REMARK   10  A    between atoms: C16_25  and  O4_26 
ROOT
HETATM    1  N1  UNL     1      -3.928   3.943  13.204  1.00  0.00    -0.300 N 
HETATM    2  C6  UNL     1      -4.107   3.869  14.627  1.00  0.00     0.329 C 
HETATM    3  O2  UNL     1      -3.384   3.282  15.473  1.00  0.00    -0.246 OA
HETATM    4  N2  UNL     1      -5.292   4.599  14.963  1.00  0.00    -0.258 N 
HETATM    5  C9  UNL     1      -5.838   5.119  13.758  1.00  0.00     0.275 C 
HETATM    6  O3  UNL     1      -6.986   5.555  13.539  1.00  0.00    -0.269 OA
HETATM    7  C10 UNL     1      -4.728   5.041  12.754  1.00  0.00     0.236 C 
ENDROOT
BRANCH   7   8
HETATM    8  C11 UNL     1      -3.869   6.252  12.884  1.00  0.00    -0.059 C 
HETATM    9  C12 UNL     1      -3.167   7.218  12.994  1.00  0.00    -0.098 C 
BRANCH   9  10
HETATM   10  C13 UNL     1      -2.293   8.386  13.144  1.00  0.00     0.065 A 
HETATM   11  C14 UNL     1      -1.871   8.794  14.506  1.00  0.00     0.018 A 
HETATM   12  C15 UNL     1      -0.905   8.091  13.580  1.00  0.00     0.018 A 
ENDBRANCH   9  10
ENDBRANCH   7   8
BRANCH   7  13
HETATM   13  C16 UNL     1      -5.268   4.918  11.365  1.00  0.00     0.355 C 
HETATM   14  F4  UNL     1      -4.268   4.925  10.439  1.00  0.00    -0.215 F 
BRANCH  13  15
HETATM   15  O4  UNL     1      -6.141   3.850  11.294  1.00  0.00    -0.364 OA
ATOM     16  H4  UNL     1      -6.330   3.529  12.168  1.00  0.00     0.213 HD
ENDBRANCH  13  15
ENDBRANCH   7  13
BRANCH   1  17
HETATM   17  C5  UNL     1      -3.104   3.080  12.412  1.00  0.00     0.133 C 
BRANCH  17  18
HETATM   18  C4  UNL     1      -3.645   1.675  12.308  1.00  0.00     0.057 C 
BRANCH  18  19
HETATM   19  C2  UNL     1      -3.513   1.133  10.909  1.00  0.00     0.052 C 
HETATM   20  C1  UNL     1      -3.676  -0.372  10.856  1.00  0.00     0.045 C 
HETATM   21  C3  UNL     1      -2.163   1.461  10.307  1.00  0.00     0.045 C 
BRANCH  19  22
HETATM   22  O1  UNL     1      -4.478   1.672  10.061  1.00  0.00    -0.391 OA
ATOM     23  H1  UNL     1      -5.097   0.977   9.873  1.00  0.00     0.210 HD
ENDBRANCH  19  22
ENDBRANCH  18  19
ENDBRANCH  17  18
ENDBRANCH   1  17
BRANCH   4  24
HETATM   24  C7  UNL     1      -5.878   4.804  16.265  1.00  0.00     0.254 C 
BRANCH  24  25
HETATM   25  C8  UNL     1      -6.465   3.473  16.719  1.00  0.00     0.403 C 
HETATM   26  F1  UNL     1      -5.615   2.833  17.566  1.00  0.00    -0.169 F 
HETATM   27  F2  UNL     1      -7.633   3.738  17.418  1.00  0.00    -0.169 F 
HETATM   28  F3  UNL     1      -6.704   2.652  15.632  1.00  0.00    -0.169 F 
ENDBRANCH  24  25
ENDBRANCH   4  24
TORSDOF 10
ENDMDL
