MODEL 1
REMARK VINA RESULT: -8.028248689      0.000      0.000
REMARK  5 active torsions:
REMARK  status: ('A' for Active; 'I' for Inactive)
REMARK    1  A    between atoms: C1_2  and  C2_4 
REMARK    2  A    between atoms: N2_8  and  C5_9 
REMARK    3  A    between atoms: C5_9  and  N3_10 
REMARK    4  A    between atoms: C5_9  and  C12_20 
REMARK       I    between atoms: N3_10  and  C6_12 
REMARK    5  A    between atoms: C6_12  and  C7_14 
ROOT
HETATM    1  C5  UNL     1      -4.705   2.779  13.684  1.00  0.00     0.239 C 
ENDROOT
BRANCH   1   2
HETATM    2  N2  UNL     1      -5.009   2.729  15.005  1.00  0.00    -0.346 N 
HETATM    3  C2  UNL     1      -4.784   1.962  16.085  1.00  0.00     0.256 C 
HETATM    4  F1  UNL     1      -3.538   2.170  16.711  1.00  0.00    -0.209 F 
HETATM    5  C3  UNL     1      -5.761   2.901  16.872  1.00  0.00     0.096 C 
HETATM    6  C4  UNL     1      -6.232   3.338  15.496  1.00  0.00     0.128 C 
BRANCH   3   7
HETATM    7  C1  UNL     1      -5.232   0.574  16.266  1.00  0.00     0.291 C 
HETATM    8  N1  UNL     1      -6.038   0.072  17.311  1.00  0.00    -0.057 NA
HETATM    9  O1  UNL     1      -4.864  -0.282  15.400  1.00  0.00    -0.271 OA
ENDBRANCH   3   7
ENDBRANCH   1   2
BRANCH   1  10
HETATM   10  N3  UNL     1      -4.247   1.598  12.997  1.00  0.00    -0.336 N 
HETATM   11  C6  UNL     1      -4.859   1.124  11.815  1.00  0.00     0.223 C 
HETATM   12  O2  UNL     1      -5.837   1.764  11.358  1.00  0.00    -0.273 OA
ATOM     13  H3  UNL     1      -3.453   1.085  13.379  1.00  0.00     0.164 HD
BRANCH  11  14
HETATM   14  C7  UNL     1      -4.415  -0.081  11.085  1.00  0.00     0.080 C 
HETATM   15  C8  UNL     1      -4.433  -1.309  12.001  1.00  0.00     0.017 C 
HETATM   16  C9  UNL     1      -3.495  -2.281  11.307  1.00  0.00     0.038 C 
HETATM   17  C10 UNL     1      -2.389  -1.382  10.848  1.00  0.00     0.171 C 
HETATM   18  F2  UNL     1      -1.415  -1.369  11.834  1.00  0.00    -0.249 F 
HETATM   19  C11 UNL     1      -2.992  -0.020  10.610  1.00  0.00     0.051 C 
ENDBRANCH  11  14
ENDBRANCH   1  10
BRANCH   1  20
HETATM   20  C12 UNL     1      -3.766   3.906  13.321  1.00  0.00     0.225 C 
HETATM   21 CL1  UNL     1      -3.164   4.742  14.735  1.00  0.00    -0.080 Cl
HETATM   22 CL2  UNL     1      -2.454   3.329  12.266  1.00  0.00    -0.080 Cl
HETATM   23 CL3  UNL     1      -4.697   5.098  12.342  1.00  0.00    -0.080 Cl
ENDBRANCH   1  20
TORSDOF 5
ENDMDL
MODEL 2
REMARK VINA RESULT: -8.005414665      1.482      1.700
REMARK  5 active torsions:
REMARK  status: ('A' for Active; 'I' for Inactive)
REMARK    1  A    between atoms: C1_2  and  C2_4 
REMARK    2  A    between atoms: N2_8  and  C5_9 
REMARK    3  A    between atoms: C5_9  and  N3_10 
REMARK    4  A    between atoms: C5_9  and  C12_20 
REMARK       I    between atoms: N3_10  and  C6_12 
REMARK    5  A    between atoms: C6_12  and  C7_14 
ROOT
HETATM    1  C5  UNL     1      -4.926   3.646  14.410  1.00  0.00     0.239 C 
ENDROOT
BRANCH   1   2
HETATM    2  N2  UNL     1      -5.094   3.022  15.601  1.00  0.00    -0.346 N 
HETATM    3  C2  UNL     1      -4.696   1.913  16.249  1.00  0.00     0.256 C 
HETATM    4  F1  UNL     1      -3.419   1.998  16.841  1.00  0.00    -0.209 F 
HETATM    5  C3  UNL     1      -5.673   2.319  17.404  1.00  0.00     0.096 C 
HETATM    6  C4  UNL     1      -6.314   3.220  16.363  1.00  0.00     0.128 C 
BRANCH   3   7
HETATM    7  C1  UNL     1      -4.996   0.530  15.854  1.00  0.00     0.291 C 
HETATM    8  N1  UNL     1      -4.740  -0.070  14.601  1.00  0.00    -0.057 NA
HETATM    9  O1  UNL     1      -5.544  -0.225  16.719  1.00  0.00    -0.271 OA
ENDBRANCH   3   7
ENDBRANCH   1   2
BRANCH   1  10
HETATM   10  N3  UNL     1      -4.326   2.948  13.300  1.00  0.00    -0.336 N 
HETATM   11  C6  UNL     1      -5.044   2.635  12.124  1.00  0.00     0.223 C 
HETATM   12  O2  UNL     1      -6.249   2.981  12.058  1.00  0.00    -0.273 OA
ATOM     13  H3  UNL     1      -3.347   2.670  13.367  1.00  0.00     0.164 HD
BRANCH  11  14
HETATM   14  C7  UNL     1      -4.461   1.922  10.969  1.00  0.00     0.080 C 
HETATM   15  C8  UNL     1      -4.693   0.412  11.087  1.00  0.00     0.017 C 
HETATM   16  C9  UNL     1      -3.633  -0.180  10.176  1.00  0.00     0.038 C 
HETATM   17  C10 UNL     1      -2.445   0.683  10.467  1.00  0.00     0.171 C 
HETATM   18  F2  UNL     1      -1.714   0.073  11.474  1.00  0.00    -0.249 F 
HETATM   19  C11 UNL     1      -2.967   2.040  10.868  1.00  0.00     0.051 C 
ENDBRANCH  11  14
ENDBRANCH   1  10
BRANCH   1  20
HETATM   20  C12 UNL     1      -4.244   4.990  14.520  1.00  0.00     0.225 C 
HETATM   21 CL1  UNL     1      -4.937   5.977  15.786  1.00  0.00    -0.080 Cl
HETATM   22 CL2  UNL     1      -2.483   4.800  14.697  1.00  0.00    -0.080 Cl
HETATM   23 CL3  UNL     1      -4.492   5.857  12.960  1.00  0.00    -0.080 Cl
ENDBRANCH   1  20
TORSDOF 5
ENDMDL
MODEL 3
REMARK VINA RESULT: -7.988080981      1.472      2.027
REMARK  5 active torsions:
REMARK  status: ('A' for Active; 'I' for Inactive)
REMARK    1  A    between atoms: C1_2  and  C2_4 
REMARK    2  A    between atoms: N2_8  and  C5_9 
REMARK    3  A    between atoms: C5_9  and  N3_10 
REMARK    4  A    between atoms: C5_9  and  C12_20 
REMARK       I    between atoms: N3_10  and  C6_12 
REMARK    5  A    between atoms: C6_12  and  C7_14 
ROOT
HETATM    1  C5  UNL     1      -4.969   3.668  14.341  1.00  0.00     0.239 C 
ENDROOT
BRANCH   1   2
HETATM    2  N2  UNL     1      -5.132   3.070  15.547  1.00  0.00    -0.346 N 
HETATM    3  C2  UNL     1      -4.735   1.973  16.215  1.00  0.00     0.256 C 
HETATM    4  F1  UNL     1      -3.453   2.065  16.796  1.00  0.00    -0.209 F 
HETATM    5  C3  UNL     1      -5.701   2.408  17.369  1.00  0.00     0.096 C 
HETATM    6  C4  UNL     1      -6.345   3.290  16.313  1.00  0.00     0.128 C 
BRANCH   3   7
HETATM    7  C1  UNL     1      -5.043   0.583  15.852  1.00  0.00     0.291 C 
HETATM    8  N1  UNL     1      -4.723  -0.068  14.641  1.00  0.00    -0.057 NA
HETATM    9  O1  UNL     1      -5.665  -0.125  16.706  1.00  0.00    -0.271 OA
ENDBRANCH   3   7
ENDBRANCH   1   2
BRANCH   1  10
HETATM   10  N3  UNL     1      -4.354   2.954  13.252  1.00  0.00    -0.336 N 
HETATM   11  C6  UNL     1      -5.050   2.636  12.064  1.00  0.00     0.223 C 
HETATM   12  O2  UNL     1      -6.249   2.993  11.969  1.00  0.00    -0.273 OA
ATOM     13  H3  UNL     1      -3.379   2.667  13.342  1.00  0.00     0.164 HD
BRANCH  11  14
HETATM   14  C7  UNL     1      -4.449   1.907  10.928  1.00  0.00     0.080 C 
HETATM   15  C8  UNL     1      -4.661   0.397  11.077  1.00  0.00     0.017 C 
HETATM   16  C9  UNL     1      -3.588  -0.201  10.185  1.00  0.00     0.038 C 
HETATM   17  C10 UNL     1      -2.414   0.685  10.464  1.00  0.00     0.171 C 
HETATM   18  F2  UNL     1      -1.681   0.107  11.490  1.00  0.00    -0.249 F 
HETATM   19  C11 UNL     1      -2.957   2.043  10.833  1.00  0.00     0.051 C 
ENDBRANCH  11  14
ENDBRANCH   1  10
BRANCH   1  20
HETATM   20  C12 UNL     1      -4.310   5.025  14.422  1.00  0.00     0.225 C 
HETATM   21 CL1  UNL     1      -4.425   5.903  12.913  1.00  0.00    -0.080 Cl
HETATM   22 CL2  UNL     1      -4.939   5.960  15.799  1.00  0.00    -0.080 Cl
HETATM   23 CL3  UNL     1      -2.560   4.762  14.763  1.00  0.00    -0.080 Cl
ENDBRANCH   1  20
TORSDOF 5
ENDMDL
MODEL 4
REMARK VINA RESULT: -7.896356250      2.207      5.389
REMARK  5 active torsions:
REMARK  status: ('A' for Active; 'I' for Inactive)
REMARK    1  A    between atoms: C1_2  and  C2_4 
REMARK    2  A    between atoms: N2_8  and  C5_9 
REMARK    3  A    between atoms: C5_9  and  N3_10 
REMARK    4  A    between atoms: C5_9  and  C12_20 
REMARK       I    between atoms: N3_10  and  C6_12 
REMARK    5  A    between atoms: C6_12  and  C7_14 
ROOT
HETATM    1  C5  UNL     1      -3.929   2.823  13.014  1.00  0.00     0.239 C 
ENDROOT
BRANCH   1   2
HETATM    2  N2  UNL     1      -3.590   1.962  12.024  1.00  0.00    -0.346 N 
HETATM    3  C2  UNL     1      -4.002   0.804  11.479  1.00  0.00     0.256 C 
HETATM    4  F1  UNL     1      -5.068   0.927  10.565  1.00  0.00    -0.209 F 
HETATM    5  C3  UNL     1      -2.724   0.854  10.573  1.00  0.00     0.096 C 
HETATM    6  C4  UNL     1      -2.208   1.857  11.590  1.00  0.00     0.128 C 
BRANCH   3   7
HETATM    7  C1  UNL     1      -4.041  -0.501  12.153  1.00  0.00     0.291 C 
HETATM    8  N1  UNL     1      -3.542  -1.726  11.658  1.00  0.00    -0.057 NA
HETATM    9  O1  UNL     1      -4.578  -0.555  13.305  1.00  0.00    -0.271 OA
ENDBRANCH   3   7
ENDBRANCH   1   2
BRANCH   1  10
HETATM   10  N3  UNL     1      -4.597   2.345  14.198  1.00  0.00    -0.336 N 
HETATM   11  C6  UNL     1      -4.095   2.577  15.498  1.00  0.00     0.223 C 
HETATM   12  O2  UNL     1      -3.025   3.223  15.612  1.00  0.00    -0.273 OA
ATOM     13  H3  UNL     1      -5.465   1.819  14.093  1.00  0.00     0.164 HD
BRANCH  11  14
HETATM   14  C7  UNL     1      -4.755   2.102  16.732  1.00  0.00     0.080 C 
HETATM   15  C8  UNL     1      -5.117   0.617  16.619  1.00  0.00     0.017 C 
HETATM   16  C9  UNL     1      -6.200   0.437  17.667  1.00  0.00     0.038 C 
HETATM   17  C10 UNL     1      -7.009   1.687  17.507  1.00  0.00     0.171 C 
HETATM   18  F2  UNL     1      -8.032   1.419  16.612  1.00  0.00    -0.249 F 
HETATM   19  C11 UNL     1      -6.073   2.763  17.015  1.00  0.00     0.051 C 
ENDBRANCH  11  14
ENDBRANCH   1  10
BRANCH   1  20
HETATM   20  C12 UNL     1      -4.685   4.037  12.528  1.00  0.00     0.225 C 
HETATM   21 CL1  UNL     1      -4.641   4.186  10.786  1.00  0.00    -0.080 Cl
HETATM   22 CL2  UNL     1      -6.346   4.054  13.167  1.00  0.00    -0.080 Cl
HETATM   23 CL3  UNL     1      -3.878   5.494  13.217  1.00  0.00    -0.080 Cl
ENDBRANCH   1  20
TORSDOF 5
ENDMDL
MODEL 5
REMARK VINA RESULT: -7.709893562      2.951      5.697
REMARK  5 active torsions:
REMARK  status: ('A' for Active; 'I' for Inactive)
REMARK    1  A    between atoms: C1_2  and  C2_4 
REMARK    2  A    between atoms: N2_8  and  C5_9 
REMARK    3  A    between atoms: C5_9  and  N3_10 
REMARK    4  A    between atoms: C5_9  and  C12_20 
REMARK       I    between atoms: N3_10  and  C6_12 
REMARK    5  A    between atoms: C6_12  and  C7_14 
ROOT
HETATM    1  C5  UNL     1      -3.781   2.095  12.388  1.00  0.00     0.239 C 
ENDROOT
BRANCH   1   2
HETATM    2  N2  UNL     1      -2.935   3.047  11.924  1.00  0.00    -0.346 N 
HETATM    3  C2  UNL     1      -1.867   3.758  12.323  1.00  0.00     0.256 C 
HETATM    4  F1  UNL     1      -0.635   3.078  12.230  1.00  0.00    -0.209 F 
HETATM    5  C3  UNL     1      -1.966   4.539  10.968  1.00  0.00     0.096 C 
HETATM    6  C4  UNL     1      -3.378   3.985  10.908  1.00  0.00     0.128 C 
BRANCH   3   7
HETATM    7  C1  UNL     1      -1.841   4.735  13.420  1.00  0.00     0.291 C 
HETATM    8  N1  UNL     1      -1.748   6.139  13.303  1.00  0.00    -0.057 NA
HETATM    9  O1  UNL     1      -1.907   4.290  14.609  1.00  0.00    -0.271 OA
ENDBRANCH   3   7
ENDBRANCH   1   2
BRANCH   1  10
HETATM   10  N3  UNL     1      -3.946   1.894  13.805  1.00  0.00    -0.336 N 
HETATM   11  C6  UNL     1      -4.924   2.581  14.560  1.00  0.00     0.223 C 
HETATM   12  O2  UNL     1      -5.668   3.394  13.961  1.00  0.00    -0.273 OA
ATOM     13  H3  UNL     1      -3.333   1.232  14.282  1.00  0.00     0.164 HD
BRANCH  11  14
HETATM   14  C7  UNL     1      -5.119   2.398  16.013  1.00  0.00     0.080 C 
HETATM   15  C8  UNL     1      -4.986   0.922  16.399  1.00  0.00     0.017 C 
HETATM   16  C9  UNL     1      -5.706   0.839  17.733  1.00  0.00     0.038 C 
HETATM   17  C10 UNL     1      -6.897   1.717  17.506  1.00  0.00     0.171 C 
HETATM   18  F2  UNL     1      -7.936   0.917  17.057  1.00  0.00    -0.249 F 
HETATM   19  C11 UNL     1      -6.493   2.764  16.496  1.00  0.00     0.051 C 
ENDBRANCH  11  14
ENDBRANCH   1  10
BRANCH   1  20
HETATM   20  C12 UNL     1      -3.567   0.737  11.762  1.00  0.00     0.225 C 
HETATM   21 CL1  UNL     1      -1.906   0.494  11.270  1.00  0.00    -0.080 Cl
HETATM   22 CL2  UNL     1      -4.153  -0.560  12.830  1.00  0.00    -0.080 Cl
HETATM   23 CL3  UNL     1      -4.589   0.652  10.279  1.00  0.00    -0.080 Cl
ENDBRANCH   1  20
TORSDOF 5
ENDMDL
