MODEL 1
REMARK VINA RESULT: -7.686483714      0.000      0.000
REMARK  10 active torsions:
REMARK  status: ('A' for Active; 'I' for Inactive)
REMARK    1  A    between atoms: N1_1  and  C1_5 
REMARK    2  A    between atoms: N2_8  and  C4_9 
REMARK    3  A    between atoms: C4_9  and  O1_10 
REMARK    4  A    between atoms: C4_9  and  C5_12 
REMARK    5  A    between atoms: C5_12  and  N3_13 
REMARK    6  A    between atoms: N3_13  and  C6_16 
REMARK    7  A    between atoms: C6_16  and  C7_18 
REMARK    8  A    between atoms: C6_16  and  C10_22 
REMARK    9  A    between atoms: C8_19  and  C9_20 
REMARK   10  A    between atoms: C11_24  and  C12_25 
ROOT
HETATM    1  N3  UNL     1      -4.954   5.271  13.261  1.00  0.00    -0.028 N 
ATOM      2  H31 UNL     1      -5.847   4.788  13.361  1.00  0.00     0.281 HD
ATOM      3  H32 UNL     1      -5.292   6.225  13.140  1.00  0.00     0.281 HD
ENDROOT
BRANCH   1   4
HETATM    4  C5  UNL     1      -4.270   4.829  12.107  1.00  0.00     0.319 C 
BRANCH   4   5
HETATM    5  C4  UNL     1      -4.756   3.556  11.594  1.00  0.00     0.139 C 
BRANCH   5   6
HETATM    6  N2  UNL     1      -4.117   2.318  11.445  1.00  0.00    -0.364 N 
HETATM    7  C3  UNL     1      -2.785   2.188  10.964  1.00  0.00     0.127 C 
HETATM    8  C2  UNL     1      -2.121   0.854  11.359  1.00  0.00     0.052 C 
HETATM    9  C1  UNL     1      -3.065  -0.261  11.075  1.00  0.00     0.186 C 
HETATM   10  C16 UNL     1      -4.215  -0.091  12.061  1.00  0.00     0.052 C 
HETATM   11  C15 UNL     1      -4.948   1.159  11.798  1.00  0.00     0.127 C 
BRANCH   9  12
HETATM   12  N1  UNL     1      -3.576  -0.268   9.730  1.00  0.00    -0.075 N 
ATOM     13  H13 UNL     1      -3.219   0.533   9.207  1.00  0.00     0.274 HD
ATOM     14  H12 UNL     1      -3.156  -1.026   9.191  1.00  0.00     0.274 HD
ATOM     15  H11 UNL     1      -4.593  -0.308   9.671  1.00  0.00     0.274 HD
ENDBRANCH   9  12
ENDBRANCH   5   6
BRANCH   5  16
HETATM   16  O1  UNL     1      -6.012   3.571  11.203  1.00  0.00    -0.348 OA
ATOM     17  H1  UNL     1      -6.146   3.887  10.317  1.00  0.00     0.219 HD
ENDBRANCH   5  16
ENDBRANCH   4   5
ENDBRANCH   1   4
BRANCH   1  18
HETATM   18  C6  UNL     1      -4.162   5.151  14.481  1.00  0.00     0.317 C 
HETATM   19 CL1  UNL     1      -2.984   3.843  14.188  1.00  0.00    -0.066 Cl
BRANCH  18  20
HETATM   20  C7  UNL     1      -3.494   6.404  14.819  1.00  0.00    -0.041 C 
HETATM   21  C8  UNL     1      -2.917   7.444  15.090  1.00  0.00    -0.071 C 
BRANCH  21  22
HETATM   22  C9  UNL     1      -2.199   8.688  15.417  1.00  0.00     0.315 C 
HETATM   23  F1  UNL     1      -2.011   8.695  16.777  1.00  0.00    -0.242 F 
ENDBRANCH  21  22
ENDBRANCH  18  20
BRANCH  18  24
HETATM   24  C10 UNL     1      -5.108   4.816  15.565  1.00  0.00     0.157 C 
HETATM   25  F2  UNL     1      -5.574   5.855  16.315  1.00  0.00    -0.206 F 
HETATM   26  C11 UNL     1      -5.524   3.593  15.845  1.00  0.00     0.059 C 
BRANCH  26  27
HETATM   27  C12 UNL     1      -6.468   3.358  16.946  1.00  0.00     0.124 A 
HETATM   28  F3  UNL     1      -7.246   4.438  17.286  1.00  0.00    -0.238 F 
HETATM   29  C13 UNL     1      -7.097   1.979  16.952  1.00  0.00     0.051 A 
HETATM   30  C14 UNL     1      -6.149   2.404  18.040  1.00  0.00     0.051 A 
ENDBRANCH  26  27
ENDBRANCH  18  24
ENDBRANCH   1  18
TORSDOF 10
ENDMDL
MODEL 2
REMARK VINA RESULT: -7.521346676      2.782      4.258
REMARK  10 active torsions:
REMARK  status: ('A' for Active; 'I' for Inactive)
REMARK    1  A    between atoms: N1_1  and  C1_5 
REMARK    2  A    between atoms: N2_8  and  C4_9 
REMARK    3  A    between atoms: C4_9  and  O1_10 
REMARK    4  A    between atoms: C4_9  and  C5_12 
REMARK    5  A    between atoms: C5_12  and  N3_13 
REMARK    6  A    between atoms: N3_13  and  C6_16 
REMARK    7  A    between atoms: C6_16  and  C7_18 
REMARK    8  A    between atoms: C6_16  and  C10_22 
REMARK    9  A    between atoms: C8_19  and  C9_20 
REMARK   10  A    between atoms: C11_24  and  C12_25 
ROOT
HETATM    1  N3  UNL     1      -4.096   4.663  14.946  1.00  0.00    -0.028 N 
ATOM      2  H31 UNL     1      -4.186   5.213  15.800  1.00  0.00     0.281 HD
ATOM      3  H32 UNL     1      -3.568   3.871  15.311  1.00  0.00     0.281 HD
ENDROOT
BRANCH   1   4
HETATM    4  C5  UNL     1      -3.347   5.362  13.974  1.00  0.00     0.319 C 
BRANCH   4   5
HETATM    5  C4  UNL     1      -2.214   4.605  13.458  1.00  0.00     0.139 C 
BRANCH   5   6
HETATM    6  N2  UNL     1      -1.948   4.105  12.177  1.00  0.00    -0.364 N 
HETATM    7  C3  UNL     1      -1.114   2.976  11.945  1.00  0.00     0.127 C 
HETATM    8  C2  UNL     1      -1.366   2.301  10.581  1.00  0.00     0.052 C 
HETATM    9  C1  UNL     1      -1.415   3.347   9.524  1.00  0.00     0.186 C 
HETATM   10  C16 UNL     1      -2.678   4.154   9.799  1.00  0.00     0.052 C 
HETATM   11  C15 UNL     1      -2.576   4.862  11.087  1.00  0.00     0.127 C 
BRANCH   9  12
HETATM   12  N1  UNL     1      -0.273   4.222   9.512  1.00  0.00    -0.075 N 
ATOM     13  H13 UNL     1      -0.554   5.181   9.719  1.00  0.00     0.274 HD
ATOM     14  H12 UNL     1       0.326   4.041  10.318  1.00  0.00     0.274 HD
ATOM     15  H11 UNL     1       0.269   4.187   8.649  1.00  0.00     0.274 HD
ENDBRANCH   9  12
ENDBRANCH   5   6
BRANCH   5  16
HETATM   16  O1  UNL     1      -1.281   4.348  14.349  1.00  0.00    -0.348 OA
ATOM     17  H1  UNL     1      -1.593   3.905  15.129  1.00  0.00     0.219 HD
ENDBRANCH   5  16
ENDBRANCH   4   5
ENDBRANCH   1   4
BRANCH   1  18
HETATM   18  C6  UNL     1      -5.406   4.235  14.465  1.00  0.00     0.317 C 
HETATM   19 CL1  UNL     1      -6.268   5.717  13.974  1.00  0.00    -0.066 Cl
BRANCH  18  20
HETATM   20  C7  UNL     1      -5.295   3.291  13.358  1.00  0.00    -0.041 C 
HETATM   21  C8  UNL     1      -5.190   2.517  12.421  1.00  0.00    -0.071 C 
BRANCH  21  22
HETATM   22  C9  UNL     1      -5.060   1.600  11.274  1.00  0.00     0.315 C 
HETATM   23  F1  UNL     1      -4.926   0.335  11.788  1.00  0.00    -0.242 F 
ENDBRANCH  21  22
ENDBRANCH  18  20
BRANCH  18  24
HETATM   24  C10 UNL     1      -6.068   3.554  15.598  1.00  0.00     0.157 C 
HETATM   25  F2  UNL     1      -6.828   4.332  16.420  1.00  0.00    -0.206 F 
HETATM   26  C11 UNL     1      -5.972   2.261  15.853  1.00  0.00     0.059 C 
BRANCH  26  27
HETATM   27  C12 UNL     1      -6.669   1.674  17.006  1.00  0.00     0.124 A 
HETATM   28  F3  UNL     1      -8.031   1.550  16.862  1.00  0.00    -0.238 F 
HETATM   29  C13 UNL     1      -5.908   0.565  17.704  1.00  0.00     0.051 A 
HETATM   30  C14 UNL     1      -6.169   1.878  18.390  1.00  0.00     0.051 A 
ENDBRANCH  26  27
ENDBRANCH  18  24
ENDBRANCH   1  18
TORSDOF 10
ENDMDL
MODEL 3
REMARK VINA RESULT: -7.502089101      3.001      4.412
REMARK  10 active torsions:
REMARK  status: ('A' for Active; 'I' for Inactive)
REMARK    1  A    between atoms: N1_1  and  C1_5 
REMARK    2  A    between atoms: N2_8  and  C4_9 
REMARK    3  A    between atoms: C4_9  and  O1_10 
REMARK    4  A    between atoms: C4_9  and  C5_12 
REMARK    5  A    between atoms: C5_12  and  N3_13 
REMARK    6  A    between atoms: N3_13  and  C6_16 
REMARK    7  A    between atoms: C6_16  and  C7_18 
REMARK    8  A    between atoms: C6_16  and  C10_22 
REMARK    9  A    between atoms: C8_19  and  C9_20 
REMARK   10  A    between atoms: C11_24  and  C12_25 
ROOT
HETATM    1  N3  UNL     1      -2.791   3.788  14.808  1.00  0.00    -0.028 N 
ATOM      2  H31 UNL     1      -2.494   3.533  15.750  1.00  0.00     0.281 HD
ATOM      3  H32 UNL     1      -2.224   3.133  14.270  1.00  0.00     0.281 HD
ENDROOT
BRANCH   1   4
HETATM    4  C5  UNL     1      -2.433   5.123  14.512  1.00  0.00     0.319 C 
BRANCH   4   5
HETATM    5  C4  UNL     1      -1.664   5.259  13.283  1.00  0.00     0.139 C 
BRANCH   5   6
HETATM    6  N2  UNL     1      -1.622   4.465  12.130  1.00  0.00    -0.364 N 
HETATM    7  C3  UNL     1      -0.781   3.324  12.007  1.00  0.00     0.127 C 
HETATM    8  C2  UNL     1      -1.250   2.334  10.923  1.00  0.00     0.052 C 
HETATM    9  C1  UNL     1      -1.568   3.088   9.681  1.00  0.00     0.186 C 
HETATM   10  C16 UNL     1      -2.801   3.922  10.007  1.00  0.00     0.052 C 
HETATM   11  C15 UNL     1      -2.495   4.924  11.042  1.00  0.00     0.127 C 
BRANCH   9  12
HETATM   12  N1  UNL     1      -0.506   3.949   9.229  1.00  0.00    -0.075 N 
ATOM     13  H13 UNL     1       0.390   3.638   9.604  1.00  0.00     0.274 HD
ATOM     14  H12 UNL     1      -0.334   3.812   8.233  1.00  0.00     0.274 HD
ATOM     15  H11 UNL     1      -0.656   4.936   9.434  1.00  0.00     0.274 HD
ENDBRANCH   9  12
ENDBRANCH   5   6
BRANCH   5  16
HETATM   16  O1  UNL     1      -0.875   6.311  13.250  1.00  0.00    -0.348 OA
ATOM     17  H1  UNL     1      -1.024   6.939  13.947  1.00  0.00     0.219 HD
ENDBRANCH   5  16
ENDBRANCH   4   5
ENDBRANCH   1   4
BRANCH   1  18
HETATM   18  C6  UNL     1      -4.212   3.518  14.622  1.00  0.00     0.317 C 
HETATM   19 CL1  UNL     1      -5.010   5.108  14.474  1.00  0.00    -0.066 Cl
BRANCH  18  20
HETATM   20  C7  UNL     1      -4.458   2.688  13.447  1.00  0.00    -0.041 C 
HETATM   21  C8  UNL     1      -4.665   1.976  12.479  1.00  0.00    -0.071 C 
BRANCH  21  22
HETATM   22  C9  UNL     1      -4.907   1.096  11.321  1.00  0.00     0.315 C 
HETATM   23  F1  UNL     1      -3.843   0.233  11.248  1.00  0.00    -0.242 F 
ENDBRANCH  21  22
ENDBRANCH  18  20
BRANCH  18  24
HETATM   24  C10 UNL     1      -4.661   2.780  15.821  1.00  0.00     0.157 C 
HETATM   25  F2  UNL     1      -3.711   2.071  16.495  1.00  0.00    -0.206 F 
HETATM   26  C11 UNL     1      -5.904   2.769  16.272  1.00  0.00     0.059 C 
BRANCH  26  27
HETATM   27  C12 UNL     1      -6.255   2.003  17.475  1.00  0.00     0.124 A 
HETATM   28  F3  UNL     1      -6.133   2.690  18.659  1.00  0.00    -0.238 F 
HETATM   29  C13 UNL     1      -7.427   1.058  17.301  1.00  0.00     0.051 A 
HETATM   30  C14 UNL     1      -6.037   0.534  17.540  1.00  0.00     0.051 A 
ENDBRANCH  26  27
ENDBRANCH  18  24
ENDBRANCH   1  18
TORSDOF 10
ENDMDL
MODEL 4
REMARK VINA RESULT: -7.439291095      3.984      6.017
REMARK  10 active torsions:
REMARK  status: ('A' for Active; 'I' for Inactive)
REMARK    1  A    between atoms: N1_1  and  C1_5 
REMARK    2  A    between atoms: N2_8  and  C4_9 
REMARK    3  A    between atoms: C4_9  and  O1_10 
REMARK    4  A    between atoms: C4_9  and  C5_12 
REMARK    5  A    between atoms: C5_12  and  N3_13 
REMARK    6  A    between atoms: N3_13  and  C6_16 
REMARK    7  A    between atoms: C6_16  and  C7_18 
REMARK    8  A    between atoms: C6_16  and  C10_22 
REMARK    9  A    between atoms: C8_19  and  C9_20 
REMARK   10  A    between atoms: C11_24  and  C12_25 
ROOT
HETATM    1  N3  UNL     1      -2.971   2.152  12.345  1.00  0.00    -0.028 N 
ATOM      2  H31 UNL     1      -2.818   2.734  13.168  1.00  0.00     0.281 HD
ATOM      3  H32 UNL     1      -2.127   1.582  12.383  1.00  0.00     0.281 HD
ENDROOT
BRANCH   1   4
HETATM    4  C5  UNL     1      -2.994   2.938  11.171  1.00  0.00     0.319 C 
BRANCH   4   5
HETATM    5  C4  UNL     1      -1.903   2.642  10.252  1.00  0.00     0.139 C 
BRANCH   5   6
HETATM    6  N2  UNL     1      -0.827   3.426   9.818  1.00  0.00    -0.364 N 
HETATM    7  C3  UNL     1       0.239   3.821  10.673  1.00  0.00     0.127 C 
HETATM    8  C2  UNL     1       1.521   4.212   9.911  1.00  0.00     0.052 C 
HETATM    9  C1  UNL     1       1.162   5.128   8.795  1.00  0.00     0.186 C 
HETATM   10  C16 UNL     1       0.363   4.285   7.808  1.00  0.00     0.052 C 
HETATM   11  C15 UNL     1      -0.904   3.837   8.409  1.00  0.00     0.127 C 
BRANCH   9  12
HETATM   12  N1  UNL     1       0.384   6.268   9.200  1.00  0.00    -0.075 N 
ATOM     13  H13 UNL     1      -0.044   6.105  10.111  1.00  0.00     0.274 HD
ATOM     14  H12 UNL     1       0.993   7.053   9.433  1.00  0.00     0.274 HD
ATOM     15  H11 UNL     1      -0.321   6.553   8.520  1.00  0.00     0.274 HD
ENDBRANCH   9  12
ENDBRANCH   5   6
BRANCH   5  16
HETATM   16  O1  UNL     1      -1.934   1.429   9.744  1.00  0.00    -0.348 OA
ATOM     17  H1  UNL     1      -2.691   1.249   9.199  1.00  0.00     0.219 HD
ENDBRANCH   5  16
ENDBRANCH   4   5
ENDBRANCH   1   4
BRANCH   1  18
HETATM   18  C6  UNL     1      -4.163   1.326  12.508  1.00  0.00     0.317 C 
HETATM   19 CL1  UNL     1      -5.424   2.057  11.480  1.00  0.00    -0.066 Cl
BRANCH  18  20
HETATM   20  C7  UNL     1      -3.914  -0.064  12.140  1.00  0.00    -0.041 C 
HETATM   21  C8  UNL     1      -3.710  -1.232  11.854  1.00  0.00    -0.071 C 
BRANCH  21  22
HETATM   22  C9  UNL     1      -3.456  -2.647  11.531  1.00  0.00     0.315 C 
HETATM   23  F1  UNL     1      -2.120  -2.754  11.234  1.00  0.00    -0.242 F 
ENDBRANCH  21  22
ENDBRANCH  18  20
BRANCH  18  24
HETATM   24  C10 UNL     1      -4.515   1.376  13.942  1.00  0.00     0.157 C 
HETATM   25  F2  UNL     1      -4.482   0.195  14.623  1.00  0.00    -0.206 F 
HETATM   26  C11 UNL     1      -4.851   2.477  14.593  1.00  0.00     0.059 C 
BRANCH  26  27
HETATM   27  C12 UNL     1      -5.186   2.427  16.023  1.00  0.00     0.124 A 
HETATM   28  F3  UNL     1      -4.165   2.019  16.847  1.00  0.00    -0.238 F 
HETATM   29  C13 UNL     1      -6.101   3.539  16.494  1.00  0.00     0.051 A 
HETATM   30  C14 UNL     1      -6.566   2.109  16.476  1.00  0.00     0.051 A 
ENDBRANCH  26  27
ENDBRANCH  18  24
ENDBRANCH   1  18
TORSDOF 10
ENDMDL
MODEL 5
REMARK VINA RESULT: -7.428261728      1.877      4.753
REMARK  10 active torsions:
REMARK  status: ('A' for Active; 'I' for Inactive)
REMARK    1  A    between atoms: N1_1  and  C1_5 
REMARK    2  A    between atoms: N2_8  and  C4_9 
REMARK    3  A    between atoms: C4_9  and  O1_10 
REMARK    4  A    between atoms: C4_9  and  C5_12 
REMARK    5  A    between atoms: C5_12  and  N3_13 
REMARK    6  A    between atoms: N3_13  and  C6_16 
REMARK    7  A    between atoms: C6_16  and  C7_18 
REMARK    8  A    between atoms: C6_16  and  C10_22 
REMARK    9  A    between atoms: C8_19  and  C9_20 
REMARK   10  A    between atoms: C11_24  and  C12_25 
ROOT
HETATM    1  N3  UNL     1      -2.509   4.987  14.043  1.00  0.00    -0.028 N 
ATOM      2  H31 UNL     1      -1.681   5.359  14.509  1.00  0.00     0.281 HD
ATOM      3  H32 UNL     1      -2.607   4.107  14.550  1.00  0.00     0.281 HD
ENDROOT
BRANCH   1   4
HETATM    4  C5  UNL     1      -2.253   4.753  12.674  1.00  0.00     0.319 C 
BRANCH   4   5
HETATM    5  C4  UNL     1      -2.017   3.351  12.358  1.00  0.00     0.139 C 
BRANCH   5   6
HETATM    6  N2  UNL     1      -2.899   2.331  11.980  1.00  0.00    -0.364 N 
HETATM    7  C3  UNL     1      -4.295   2.376  12.249  1.00  0.00     0.127 C 
HETATM    8  C2  UNL     1      -5.123   1.456  11.329  1.00  0.00     0.052 C 
HETATM    9  C1  UNL     1      -4.479   0.116  11.275  1.00  0.00     0.186 C 
HETATM   10  C16 UNL     1      -3.161   0.320  10.537  1.00  0.00     0.052 C 
HETATM   11  C15 UNL     1      -2.259   1.191  11.310  1.00  0.00     0.127 C 
BRANCH   9  12
HETATM   12  N1  UNL     1      -4.226  -0.466  12.567  1.00  0.00    -0.075 N 
ATOM     13  H13 UNL     1      -5.101  -0.617  13.069  1.00  0.00     0.274 HD
ATOM     14  H12 UNL     1      -3.914  -1.433  12.469  1.00  0.00     0.274 HD
ATOM     15  H11 UNL     1      -3.571   0.065  13.141  1.00  0.00     0.274 HD
ENDBRANCH   9  12
ENDBRANCH   5   6
BRANCH   5  16
HETATM   16  O1  UNL     1      -0.758   2.979  12.444  1.00  0.00    -0.348 OA
ATOM     17  H1  UNL     1      -0.500   2.312  11.818  1.00  0.00     0.219 HD
ENDBRANCH   5  16
ENDBRANCH   4   5
ENDBRANCH   1   4
BRANCH   1  18
HETATM   18  C6  UNL     1      -3.664   5.849  14.274  1.00  0.00     0.317 C 
HETATM   19 CL1  UNL     1      -4.293   6.287  12.662  1.00  0.00    -0.066 Cl
BRANCH  18  20
HETATM   20  C7  UNL     1      -4.683   5.186  15.081  1.00  0.00    -0.041 C 
HETATM   21  C8  UNL     1      -5.518   4.621  15.768  1.00  0.00    -0.071 C 
BRANCH  21  22
HETATM   22  C9  UNL     1      -6.512   3.922  16.601  1.00  0.00     0.315 C 
HETATM   23  F1  UNL     1      -7.023   4.848  17.475  1.00  0.00    -0.242 F 
ENDBRANCH  21  22
ENDBRANCH  18  20
BRANCH  18  24
HETATM   24  C10 UNL     1      -3.168   7.026  15.017  1.00  0.00     0.157 C 
HETATM   25  F2  UNL     1      -3.872   7.391  16.126  1.00  0.00    -0.206 F 
HETATM   26  C11 UNL     1      -2.102   7.731  14.678  1.00  0.00     0.059 C 
BRANCH  26  27
HETATM   27  C12 UNL     1      -1.686   8.889  15.481  1.00  0.00     0.124 A 
HETATM   28  F3  UNL     1      -1.851   8.746  16.838  1.00  0.00    -0.238 F 
HETATM   29  C13 UNL     1      -0.448   9.597  14.970  1.00  0.00     0.051 A 
HETATM   30  C14 UNL     1      -1.792  10.271  14.946  1.00  0.00     0.051 A 
ENDBRANCH  26  27
ENDBRANCH  18  24
ENDBRANCH   1  18
TORSDOF 10
ENDMDL
