MODEL 1
REMARK VINA RESULT: -7.008098318      0.000      0.000
REMARK  10 active torsions:
REMARK  status: ('A' for Active; 'I' for Inactive)
REMARK    1  A    between atoms: C3_3  and  C4_4 
REMARK    2  A    between atoms: C3_3  and  C9_11 
REMARK    3  A    between atoms: C4_4  and  O2_6 
REMARK    4  A    between atoms: O2_6  and  C5_7 
REMARK    5  A    between atoms: C5_7  and  C6_8 
REMARK    6  A    between atoms: C9_11  and  C15_17 
REMARK    7  A    between atoms: C10_12  and  C11_13 
REMARK    8  A    between atoms: C11_13  and  C12_14 
REMARK    9  A    between atoms: C15_17  and  C16_18 
REMARK   10  A    between atoms: C16_18  and  C17_19 
ROOT
HETATM    1  C1  UNL     1     -44.967  69.107 -10.300  1.00  0.00     0.037 C 
HETATM    2  C2  UNL     1     -45.284  69.837  -9.069  1.00  0.00    -0.013 C 
HETATM    3  C3  UNL     1     -46.230  69.433  -8.216  1.00  0.00     0.041 C 
ENDROOT
BRANCH   3   4
HETATM    4  C4  UNL     1     -46.973  68.229  -8.502  1.00  0.00     0.293 C 
HETATM    5  O1  UNL     1     -46.494  67.085  -8.158  1.00  0.00    -0.259 OA
BRANCH   4   6
HETATM    6  O2  UNL     1     -48.194  68.102  -9.127  1.00  0.00    -0.317 OA
BRANCH   6   7
HETATM    7  C5  UNL     1     -48.503  67.027  -9.994  1.00  0.00     0.183 C 
BRANCH   7   8
HETATM    8  C6  UNL     1     -48.755  67.465 -11.394  1.00  0.00     0.002 C 
HETATM    9  C7  UNL     1     -50.064  66.901 -11.902  1.00  0.00     0.011 C 
HETATM   10  C8  UNL     1     -47.591  66.972 -12.243  1.00  0.00     0.011 C 
ENDBRANCH   7   8
ENDBRANCH   6   7
ENDBRANCH   4   6
ENDBRANCH   3   4
BRANCH   3  11
HETATM   11  C9  UNL     1     -46.517  70.303  -7.052  1.00  0.00    -0.046 C 
HETATM   12  C10 UNL     1     -47.265  71.356  -7.185  1.00  0.00    -0.018 C 
BRANCH  12  13
HETATM   13  C11 UNL     1     -47.575  72.262  -6.053  1.00  0.00     0.031 C 
BRANCH  13  14
HETATM   14  C12 UNL     1     -49.069  72.420  -5.870  1.00  0.00    -0.019 C 
HETATM   15  C13 UNL     1     -49.377  73.678  -5.106  1.00  0.00     0.010 C 
HETATM   16  C14 UNL     1     -49.815  72.468  -7.176  1.00  0.00     0.010 C 
ENDBRANCH  13  14
ENDBRANCH  12  13
BRANCH  11  17
HETATM   17  C15 UNL     1     -45.990  69.949  -5.732  1.00  0.00     0.039 C 
BRANCH  17  18
HETATM   18  C16 UNL     1     -44.515  70.179  -5.531  1.00  0.00     0.004 C 
BRANCH  18  19
HETATM   19  C17 UNL     1     -43.895  68.801  -5.326  1.00  0.00    -0.004 C 
HETATM   20  C18 UNL     1     -44.934  67.783  -4.939  1.00  0.00     0.005 C 
ENDBRANCH  18  19
ENDBRANCH  17  18
ENDBRANCH  11  17
ENDBRANCH   3  11
TORSDOF 10
ENDMDL
MODEL 2
REMARK VINA RESULT: -6.965147280      1.354      1.928
REMARK  10 active torsions:
REMARK  status: ('A' for Active; 'I' for Inactive)
REMARK    1  A    between atoms: C3_3  and  C4_4 
REMARK    2  A    between atoms: C3_3  and  C9_11 
REMARK    3  A    between atoms: C4_4  and  O2_6 
REMARK    4  A    between atoms: O2_6  and  C5_7 
REMARK    5  A    between atoms: C5_7  and  C6_8 
REMARK    6  A    between atoms: C9_11  and  C15_17 
REMARK    7  A    between atoms: C10_12  and  C11_13 
REMARK    8  A    between atoms: C11_13  and  C12_14 
REMARK    9  A    between atoms: C15_17  and  C16_18 
REMARK   10  A    between atoms: C16_18  and  C17_19 
ROOT
HETATM    1  C1  UNL     1     -46.016  66.398  -7.808  1.00  0.00     0.037 C 
HETATM    2  C2  UNL     1     -46.245  67.798  -7.441  1.00  0.00    -0.013 C 
HETATM    3  C3  UNL     1     -46.134  68.799  -8.319  1.00  0.00     0.041 C 
ENDROOT
BRANCH   3   4
HETATM    4  C4  UNL     1     -45.781  68.505  -9.688  1.00  0.00     0.293 C 
HETATM    5  O1  UNL     1     -44.545  68.358 -10.012  1.00  0.00    -0.259 OA
BRANCH   4   6
HETATM    6  O2  UNL     1     -46.615  68.348 -10.774  1.00  0.00    -0.317 OA
BRANCH   6   7
HETATM    7  C5  UNL     1     -47.619  67.352 -10.830  1.00  0.00     0.183 C 
BRANCH   7   8
HETATM    8  C6  UNL     1     -48.995  67.910 -10.720  1.00  0.00     0.002 C 
HETATM    9  C7  UNL     1     -49.507  67.792  -9.301  1.00  0.00     0.011 C 
HETATM   10  C8  UNL     1     -49.882  67.127 -11.679  1.00  0.00     0.011 C 
ENDBRANCH   7   8
ENDBRANCH   6   7
ENDBRANCH   4   6
ENDBRANCH   3   4
BRANCH   3  11
HETATM   11  C9  UNL     1     -46.304  70.179  -7.807  1.00  0.00    -0.046 C 
HETATM   12  C10 UNL     1     -47.450  70.570  -7.337  1.00  0.00    -0.018 C 
BRANCH  12  13
HETATM   13  C11 UNL     1     -47.674  71.941  -6.821  1.00  0.00     0.031 C 
BRANCH  13  14
HETATM   14  C12 UNL     1     -49.121  72.151  -6.431  1.00  0.00    -0.019 C 
HETATM   15  C13 UNL     1     -49.253  73.331  -5.507  1.00  0.00     0.010 C 
HETATM   16  C14 UNL     1     -50.018  72.380  -7.617  1.00  0.00     0.010 C 
ENDBRANCH  13  14
ENDBRANCH  12  13
BRANCH  11  17
HETATM   17  C15 UNL     1     -45.163  71.095  -7.789  1.00  0.00     0.039 C 
BRANCH  17  18
HETATM   18  C16 UNL     1     -43.891  70.547  -7.196  1.00  0.00     0.004 C 
BRANCH  18  19
HETATM   19  C17 UNL     1     -44.129  70.453  -5.692  1.00  0.00    -0.004 C 
HETATM   20  C18 UNL     1     -43.687  69.121  -5.149  1.00  0.00     0.005 C 
ENDBRANCH  18  19
ENDBRANCH  17  18
ENDBRANCH  11  17
ENDBRANCH   3  11
TORSDOF 10
ENDMDL
MODEL 3
REMARK VINA RESULT: -6.937982830      0.923      1.253
REMARK  10 active torsions:
REMARK  status: ('A' for Active; 'I' for Inactive)
REMARK    1  A    between atoms: C3_3  and  C4_4 
REMARK    2  A    between atoms: C3_3  and  C9_11 
REMARK    3  A    between atoms: C4_4  and  O2_6 
REMARK    4  A    between atoms: O2_6  and  C5_7 
REMARK    5  A    between atoms: C5_7  and  C6_8 
REMARK    6  A    between atoms: C9_11  and  C15_17 
REMARK    7  A    between atoms: C10_12  and  C11_13 
REMARK    8  A    between atoms: C11_13  and  C12_14 
REMARK    9  A    between atoms: C15_17  and  C16_18 
REMARK   10  A    between atoms: C16_18  and  C17_19 
ROOT
HETATM    1  C1  UNL     1     -45.251  68.703 -10.208  1.00  0.00     0.037 C 
HETATM    2  C2  UNL     1     -45.545  69.563  -9.058  1.00  0.00    -0.013 C 
HETATM    3  C3  UNL     1     -46.112  69.101  -7.940  1.00  0.00     0.041 C 
ENDROOT
BRANCH   3   4
HETATM    4  C4  UNL     1     -46.449  67.701  -7.844  1.00  0.00     0.293 C 
HETATM    5  O1  UNL     1     -45.537  66.843  -7.549  1.00  0.00    -0.259 OA
BRANCH   4   6
HETATM    6  O2  UNL     1     -47.674  67.098  -8.031  1.00  0.00    -0.317 OA
BRANCH   6   7
HETATM    7  C5  UNL     1     -48.156  66.723  -9.308  1.00  0.00     0.183 C 
BRANCH   7   8
HETATM    8  C6  UNL     1     -48.806  67.848 -10.034  1.00  0.00     0.002 C 
HETATM    9  C7  UNL     1     -49.653  68.674  -9.090  1.00  0.00     0.011 C 
HETATM   10  C8  UNL     1     -49.664  67.243 -11.137  1.00  0.00     0.011 C 
ENDBRANCH   7   8
ENDBRANCH   6   7
ENDBRANCH   4   6
ENDBRANCH   3   4
BRANCH   3  11
HETATM   11  C9  UNL     1     -46.439  70.086  -6.883  1.00  0.00    -0.046 C 
HETATM   12  C10 UNL     1     -47.240  71.078  -7.131  1.00  0.00    -0.018 C 
BRANCH  12  13
HETATM   13  C11 UNL     1     -47.592  72.093  -6.110  1.00  0.00     0.031 C 
BRANCH  13  14
HETATM   14  C12 UNL     1     -49.089  72.287  -6.022  1.00  0.00    -0.019 C 
HETATM   15  C13 UNL     1     -49.415  73.552  -5.276  1.00  0.00     0.010 C 
HETATM   16  C14 UNL     1     -49.749  72.353  -7.372  1.00  0.00     0.010 C 
ENDBRANCH  13  14
ENDBRANCH  12  13
BRANCH  11  17
HETATM   17  C15 UNL     1     -45.891  69.916  -5.536  1.00  0.00     0.039 C 
BRANCH  17  18
HETATM   18  C16 UNL     1     -44.440  70.280  -5.367  1.00  0.00     0.004 C 
BRANCH  18  19
HETATM   19  C17 UNL     1     -43.719  68.991  -4.989  1.00  0.00    -0.004 C 
HETATM   20  C18 UNL     1     -42.934  68.441  -6.149  1.00  0.00     0.005 C 
ENDBRANCH  18  19
ENDBRANCH  17  18
ENDBRANCH  11  17
ENDBRANCH   3  11
TORSDOF 10
ENDMDL
MODEL 4
REMARK VINA RESULT: -6.798248555      1.499      2.842
REMARK  10 active torsions:
REMARK  status: ('A' for Active; 'I' for Inactive)
REMARK    1  A    between atoms: C3_3  and  C4_4 
REMARK    2  A    between atoms: C3_3  and  C9_11 
REMARK    3  A    between atoms: C4_4  and  O2_6 
REMARK    4  A    between atoms: O2_6  and  C5_7 
REMARK    5  A    between atoms: C5_7  and  C6_8 
REMARK    6  A    between atoms: C9_11  and  C15_17 
REMARK    7  A    between atoms: C10_12  and  C11_13 
REMARK    8  A    between atoms: C11_13  and  C12_14 
REMARK    9  A    between atoms: C15_17  and  C16_18 
REMARK   10  A    between atoms: C16_18  and  C17_19 
ROOT
HETATM    1  C1  UNL     1     -43.110  68.200  -5.673  1.00  0.00     0.037 C 
HETATM    2  C2  UNL     1     -43.978  69.352  -5.936  1.00  0.00    -0.013 C 
HETATM    3  C3  UNL     1     -45.191  69.229  -6.483  1.00  0.00     0.041 C 
ENDROOT
BRANCH   3   4
HETATM    4  C4  UNL     1     -45.682  67.916  -6.829  1.00  0.00     0.293 C 
HETATM    5  O1  UNL     1     -46.375  67.248  -5.975  1.00  0.00    -0.259 OA
BRANCH   4   6
HETATM    6  O2  UNL     1     -45.513  67.219  -8.005  1.00  0.00    -0.317 OA
BRANCH   6   7
HETATM    7  C5  UNL     1     -46.599  66.822  -8.823  1.00  0.00     0.183 C 
BRANCH   7   8
HETATM    8  C6  UNL     1     -47.258  67.969  -9.506  1.00  0.00     0.002 C 
HETATM    9  C7  UNL     1     -48.675  68.145  -9.006  1.00  0.00     0.011 C 
HETATM   10  C8  UNL     1     -47.247  67.676 -11.000  1.00  0.00     0.011 C 
ENDBRANCH   7   8
ENDBRANCH   6   7
ENDBRANCH   4   6
ENDBRANCH   3   4
BRANCH   3  11
HETATM   11  C9  UNL     1     -45.936  70.474  -6.779  1.00  0.00    -0.046 C 
HETATM   12  C10 UNL     1     -46.483  71.158  -5.820  1.00  0.00    -0.018 C 
BRANCH  12  13
HETATM   13  C11 UNL     1     -47.246  72.405  -6.064  1.00  0.00     0.031 C 
BRANCH  13  14
HETATM   14  C12 UNL     1     -48.734  72.179  -5.910  1.00  0.00    -0.019 C 
HETATM   15  C13 UNL     1     -49.390  73.382  -5.290  1.00  0.00     0.010 C 
HETATM   16  C14 UNL     1     -49.418  71.890  -7.218  1.00  0.00     0.010 C 
ENDBRANCH  13  14
ENDBRANCH  12  13
BRANCH  11  17
HETATM   17  C15 UNL     1     -46.020  70.963  -8.157  1.00  0.00     0.039 C 
BRANCH  17  18
HETATM   18  C16 UNL     1     -44.714  71.363  -8.791  1.00  0.00     0.004 C 
BRANCH  18  19
HETATM   19  C17 UNL     1     -44.546  70.470 -10.017  1.00  0.00    -0.004 C 
HETATM   20  C18 UNL     1     -43.502  69.411  -9.785  1.00  0.00     0.005 C 
ENDBRANCH  18  19
ENDBRANCH  17  18
ENDBRANCH  11  17
ENDBRANCH   3  11
TORSDOF 10
ENDMDL
MODEL 5
REMARK VINA RESULT: -6.797756510      2.284      5.307
REMARK  10 active torsions:
REMARK  status: ('A' for Active; 'I' for Inactive)
REMARK    1  A    between atoms: C3_3  and  C4_4 
REMARK    2  A    between atoms: C3_3  and  C9_11 
REMARK    3  A    between atoms: C4_4  and  O2_6 
REMARK    4  A    between atoms: O2_6  and  C5_7 
REMARK    5  A    between atoms: C5_7  and  C6_8 
REMARK    6  A    between atoms: C9_11  and  C15_17 
REMARK    7  A    between atoms: C10_12  and  C11_13 
REMARK    8  A    between atoms: C11_13  and  C12_14 
REMARK    9  A    between atoms: C15_17  and  C16_18 
REMARK   10  A    between atoms: C16_18  and  C17_19 
ROOT
HETATM    1  C1  UNL     1     -43.553  71.566 -10.214  1.00  0.00     0.037 C 
HETATM    2  C2  UNL     1     -44.492  70.440 -10.222  1.00  0.00    -0.013 C 
HETATM    3  C3  UNL     1     -44.630  69.611  -9.183  1.00  0.00     0.041 C 
ENDROOT
BRANCH   3   4
HETATM    4  C4  UNL     1     -43.834  69.825  -7.997  1.00  0.00     0.293 C 
HETATM    5  O1  UNL     1     -42.656  69.313  -7.916  1.00  0.00    -0.259 OA
BRANCH   4   6
HETATM    6  O2  UNL     1     -44.160  70.536  -6.862  1.00  0.00    -0.317 OA
BRANCH   6   7
HETATM    7  C5  UNL     1     -44.883  71.752  -6.901  1.00  0.00     0.183 C 
BRANCH   7   8
HETATM    8  C6  UNL     1     -46.174  71.682  -6.165  1.00  0.00     0.002 C 
HETATM    9  C7  UNL     1     -46.041  70.810  -4.935  1.00  0.00     0.011 C 
HETATM   10  C8  UNL     1     -47.213  71.109  -7.120  1.00  0.00     0.011 C 
ENDBRANCH   7   8
ENDBRANCH   6   7
ENDBRANCH   4   6
ENDBRANCH   3   4
BRANCH   3  11
HETATM   11  C9  UNL     1     -45.547  68.459  -9.344  1.00  0.00    -0.046 C 
HETATM   12  C10 UNL     1     -46.352  68.397 -10.361  1.00  0.00    -0.018 C 
BRANCH  12  13
HETATM   13  C11 UNL     1     -47.294  67.270 -10.564  1.00  0.00     0.031 C 
BRANCH  13  14
HETATM   14  C12 UNL     1     -48.718  67.763 -10.699  1.00  0.00    -0.019 C 
HETATM   15  C13 UNL     1     -49.547  66.778 -11.476  1.00  0.00     0.010 C 
HETATM   16  C14 UNL     1     -49.384  67.992  -9.369  1.00  0.00     0.010 C 
ENDBRANCH  13  14
ENDBRANCH  12  13
BRANCH  11  17
HETATM   17  C15 UNL     1     -45.514  67.362  -8.376  1.00  0.00     0.039 C 
BRANCH  17  18
HETATM   18  C16 UNL     1     -46.432  67.505  -7.191  1.00  0.00     0.004 C 
BRANCH  18  19
HETATM   19  C17 UNL     1     -45.554  67.356  -5.953  1.00  0.00    -0.004 C 
HETATM   20  C18 UNL     1     -44.303  66.576  -6.258  1.00  0.00     0.005 C 
ENDBRANCH  18  19
ENDBRANCH  17  18
ENDBRANCH  11  17
ENDBRANCH   3  11
TORSDOF 10
ENDMDL
