MODEL 1
REMARK VINA RESULT: -7.060114938      0.000      0.000
REMARK  10 active torsions:
REMARK  status: ('A' for Active; 'I' for Inactive)
REMARK    1  A    between atoms: C2_2  and  C3_3 
REMARK    2  A    between atoms: C3_3  and  C4_4 
REMARK    3  A    between atoms: C4_4  and  C5_5 
REMARK    4  A    between atoms: C9_9  and  C10_10 
REMARK    5  A    between atoms: C10_10  and  C11_11 
REMARK    6  A    between atoms: C11_11  and  C12_12 
REMARK    7  A    between atoms: C12_12  and  O1_13 
REMARK    8  A    between atoms: C13_15  and  C14_16 
REMARK    9  A    between atoms: C14_16  and  C15_17 
REMARK   10  A    between atoms: C15_17  and  O2_20 
ROOT
HETATM    1  C5  UNL     1     -46.865  68.521  -8.791  1.00  0.00    -0.057 A 
HETATM    2  C6  UNL     1     -45.861  68.872  -9.626  1.00  0.00     0.014 A 
HETATM    3  C7  UNL     1     -45.186  70.073  -9.398  1.00  0.00    -0.055 A 
HETATM    4  C8  UNL     1     -44.088  70.416 -10.353  1.00  0.00     0.049 C 
HETATM    5  C9  UNL     1     -45.504  70.913  -8.353  1.00  0.00    -0.046 A 
HETATM    6  C13 UNL     1     -46.532  70.515  -7.537  1.00  0.00    -0.048 A 
HETATM    7  C18 UNL     1     -47.231  69.315  -7.737  1.00  0.00     0.014 A 
ENDROOT
BRANCH   6   8
HETATM    8  C14 UNL     1     -47.053  71.371  -6.475  1.00  0.00     0.076 C 
BRANCH   8   9
HETATM    9  C15 UNL     1     -48.282  72.162  -6.824  1.00  0.00     0.054 C 
HETATM   10  C16 UNL     1     -49.333  71.503  -7.617  1.00  0.00     0.045 C 
HETATM   11  C17 UNL     1     -48.936  72.753  -5.586  1.00  0.00     0.045 C 
BRANCH   9  12
HETATM   12  O2  UNL     1     -47.833  73.284  -7.563  1.00  0.00    -0.390 OA
ATOM     13  H2  UNL     1     -48.348  74.023  -7.262  1.00  0.00     0.210 HD
ENDBRANCH   9  12
ENDBRANCH   8   9
ENDBRANCH   6   8
BRANCH   5  14
HETATM   14  C10 UNL     1     -44.720  72.111  -8.116  1.00  0.00     0.042 C 
BRANCH  14  15
HETATM   15  C11 UNL     1     -43.571  71.851  -7.127  1.00  0.00     0.030 C 
BRANCH  15  16
HETATM   16  C12 UNL     1     -42.228  71.995  -7.810  1.00  0.00     0.164 C 
BRANCH  16  17
HETATM   17  O1  UNL     1     -41.491  73.057  -7.336  1.00  0.00    -0.401 OA
ATOM     18  H1  UNL     1     -40.554  72.902  -7.363  1.00  0.00     0.209 HD
ENDBRANCH  16  17
ENDBRANCH  15  16
ENDBRANCH  14  15
ENDBRANCH   5  14
BRANCH   1  19
HETATM   19  C4  UNL     1     -47.588  67.244  -9.024  1.00  0.00     0.038 C 
BRANCH  19  20
HETATM   20  C3  UNL     1     -49.095  67.476  -9.064  1.00  0.00     0.004 C 
BRANCH  20  21
HETATM   21  C2  UNL     1     -49.435  68.018 -10.438  1.00  0.00    -0.004 C 
HETATM   22  C1  UNL     1     -49.527  66.887 -11.438  1.00  0.00     0.005 C 
ENDBRANCH  20  21
ENDBRANCH  19  20
ENDBRANCH   1  19
TORSDOF 10
ENDMDL
MODEL 2
REMARK VINA RESULT: -6.930709393      1.186      1.454
REMARK  10 active torsions:
REMARK  status: ('A' for Active; 'I' for Inactive)
REMARK    1  A    between atoms: C2_2  and  C3_3 
REMARK    2  A    between atoms: C3_3  and  C4_4 
REMARK    3  A    between atoms: C4_4  and  C5_5 
REMARK    4  A    between atoms: C9_9  and  C10_10 
REMARK    5  A    between atoms: C10_10  and  C11_11 
REMARK    6  A    between atoms: C11_11  and  C12_12 
REMARK    7  A    between atoms: C12_12  and  O1_13 
REMARK    8  A    between atoms: C13_15  and  C14_16 
REMARK    9  A    between atoms: C14_16  and  C15_17 
REMARK   10  A    between atoms: C15_17  and  O2_20 
ROOT
HETATM    1  C5  UNL     1     -46.843  68.656  -9.037  1.00  0.00    -0.057 A 
HETATM    2  C6  UNL     1     -45.574  68.573  -9.495  1.00  0.00     0.014 A 
HETATM    3  C7  UNL     1     -44.558  69.217  -8.784  1.00  0.00    -0.055 A 
HETATM    4  C8  UNL     1     -43.174  69.098  -9.336  1.00  0.00     0.049 C 
HETATM    5  C9  UNL     1     -44.803  69.933  -7.632  1.00  0.00    -0.046 A 
HETATM    6  C13 UNL     1     -46.107  69.990  -7.210  1.00  0.00    -0.048 A 
HETATM    7  C18 UNL     1     -47.150  69.355  -7.901  1.00  0.00     0.014 A 
ENDROOT
BRANCH   6   8
HETATM    8  C14 UNL     1     -46.519  70.819  -6.082  1.00  0.00     0.076 C 
BRANCH   8   9
HETATM    9  C15 UNL     1     -47.105  72.156  -6.438  1.00  0.00     0.054 C 
HETATM   10  C16 UNL     1     -46.894  72.668  -7.803  1.00  0.00     0.045 C 
HETATM   11  C17 UNL     1     -48.595  72.209  -6.148  1.00  0.00     0.045 C 
BRANCH   9  12
HETATM   12  O2  UNL     1     -46.531  73.091  -5.541  1.00  0.00    -0.390 OA
ATOM     13  H2  UNL     1     -46.190  73.797  -6.076  1.00  0.00     0.210 HD
ENDBRANCH   9  12
ENDBRANCH   8   9
ENDBRANCH   6   8
BRANCH   5  14
HETATM   14  C10 UNL     1     -43.701  70.517  -6.889  1.00  0.00     0.042 C 
BRANCH  14  15
HETATM   15  C11 UNL     1     -43.391  71.946  -7.364  1.00  0.00     0.030 C 
BRANCH  15  16
HETATM   16  C12 UNL     1     -41.945  72.070  -7.794  1.00  0.00     0.164 C 
BRANCH  16  17
HETATM   17  O1  UNL     1     -41.345  73.225  -7.344  1.00  0.00    -0.401 OA
ATOM     18  H1  UNL     1     -41.195  73.861  -8.034  1.00  0.00     0.209 HD
ENDBRANCH  16  17
ENDBRANCH  15  16
ENDBRANCH  14  15
ENDBRANCH   5  14
BRANCH   1  19
HETATM   19  C4  UNL     1     -47.930  67.973  -9.785  1.00  0.00     0.038 C 
BRANCH  19  20
HETATM   20  C3  UNL     1     -47.380  67.291 -11.034  1.00  0.00     0.004 C 
BRANCH  20  21
HETATM   21  C2  UNL     1     -48.551  67.019 -11.957  1.00  0.00    -0.004 C 
HETATM   22  C1  UNL     1     -49.808  67.658 -11.410  1.00  0.00     0.005 C 
ENDBRANCH  20  21
ENDBRANCH  19  20
ENDBRANCH   1  19
TORSDOF 10
ENDMDL
MODEL 3
REMARK VINA RESULT: -6.848545139      2.029      4.475
REMARK  10 active torsions:
REMARK  status: ('A' for Active; 'I' for Inactive)
REMARK    1  A    between atoms: C2_2  and  C3_3 
REMARK    2  A    between atoms: C3_3  and  C4_4 
REMARK    3  A    between atoms: C4_4  and  C5_5 
REMARK    4  A    between atoms: C9_9  and  C10_10 
REMARK    5  A    between atoms: C10_10  and  C11_11 
REMARK    6  A    between atoms: C11_11  and  C12_12 
REMARK    7  A    between atoms: C12_12  and  O1_13 
REMARK    8  A    between atoms: C13_15  and  C14_16 
REMARK    9  A    between atoms: C14_16  and  C15_17 
REMARK   10  A    between atoms: C15_17  and  O2_20 
ROOT
HETATM    1  C5  UNL     1     -45.727  69.016 -10.007  1.00  0.00    -0.057 A 
HETATM    2  C6  UNL     1     -46.120  68.859  -8.722  1.00  0.00     0.014 A 
HETATM    3  C7  UNL     1     -45.558  69.679  -7.742  1.00  0.00    -0.055 A 
HETATM    4  C8  UNL     1     -46.024  69.460  -6.338  1.00  0.00     0.049 C 
HETATM    5  C9  UNL     1     -44.619  70.644  -8.035  1.00  0.00    -0.046 A 
HETATM    6  C13 UNL     1     -44.251  70.762  -9.351  1.00  0.00    -0.048 A 
HETATM    7  C18 UNL     1     -44.796  69.955 -10.360  1.00  0.00     0.014 A 
ENDROOT
BRANCH   6   8
HETATM    8  C14 UNL     1     -43.175  71.653  -9.775  1.00  0.00     0.076 C 
BRANCH   8   9
HETATM    9  C15 UNL     1     -41.802  71.043  -9.809  1.00  0.00     0.054 C 
HETATM   10  C16 UNL     1     -41.688  69.579  -9.708  1.00  0.00     0.045 C 
HETATM   11  C17 UNL     1     -41.024  71.485 -11.037  1.00  0.00     0.045 C 
BRANCH   9  12
HETATM   12  O2  UNL     1     -41.095  71.601  -8.716  1.00  0.00    -0.390 OA
ATOM     13  H2  UNL     1     -41.195  70.990  -7.996  1.00  0.00     0.210 HD
ENDBRANCH   9  12
ENDBRANCH   8   9
ENDBRANCH   6   8
BRANCH   5  14
HETATM   14  C10 UNL     1     -44.125  71.522  -6.989  1.00  0.00     0.042 C 
BRANCH  14  15
HETATM   15  C11 UNL     1     -44.943  72.822  -6.905  1.00  0.00     0.030 C 
BRANCH  15  16
HETATM   16  C12 UNL     1     -45.714  72.891  -5.605  1.00  0.00     0.164 C 
BRANCH  16  17
HETATM   17  O1  UNL     1     -45.601  74.110  -4.974  1.00  0.00    -0.401 OA
ATOM     18  H1  UNL     1     -46.394  74.370  -4.520  1.00  0.00     0.209 HD
ENDBRANCH  16  17
ENDBRANCH  15  16
ENDBRANCH  14  15
ENDBRANCH   5  14
BRANCH   1  19
HETATM   19  C4  UNL     1     -46.320  68.150 -11.058  1.00  0.00     0.038 C 
BRANCH  19  20
HETATM   20  C3  UNL     1     -47.727  67.710 -10.665  1.00  0.00     0.004 C 
BRANCH  20  21
HETATM   21  C2  UNL     1     -48.349  67.042 -11.875  1.00  0.00    -0.004 C 
HETATM   22  C1  UNL     1     -49.844  67.269 -11.887  1.00  0.00     0.005 C 
ENDBRANCH  20  21
ENDBRANCH  19  20
ENDBRANCH   1  19
TORSDOF 10
ENDMDL
MODEL 4
REMARK VINA RESULT: -6.804814959      1.881      3.800
REMARK  10 active torsions:
REMARK  status: ('A' for Active; 'I' for Inactive)
REMARK    1  A    between atoms: C2_2  and  C3_3 
REMARK    2  A    between atoms: C3_3  and  C4_4 
REMARK    3  A    between atoms: C4_4  and  C5_5 
REMARK    4  A    between atoms: C9_9  and  C10_10 
REMARK    5  A    between atoms: C10_10  and  C11_11 
REMARK    6  A    between atoms: C11_11  and  C12_12 
REMARK    7  A    between atoms: C12_12  and  O1_13 
REMARK    8  A    between atoms: C13_15  and  C14_16 
REMARK    9  A    between atoms: C14_16  and  C15_17 
REMARK   10  A    between atoms: C15_17  and  O2_20 
ROOT
HETATM    1  C5  UNL     1     -48.743  68.599  -8.914  1.00  0.00    -0.057 A 
HETATM    2  C6  UNL     1     -49.466  69.682  -8.548  1.00  0.00     0.014 A 
HETATM    3  C7  UNL     1     -48.832  70.710  -7.847  1.00  0.00    -0.055 A 
HETATM    4  C8  UNL     1     -49.678  71.880  -7.463  1.00  0.00     0.049 C 
HETATM    5  C9  UNL     1     -47.495  70.661  -7.514  1.00  0.00    -0.046 A 
HETATM    6  C13 UNL     1     -46.806  69.541  -7.903  1.00  0.00    -0.048 A 
HETATM    7  C18 UNL     1     -47.413  68.491  -8.609  1.00  0.00     0.014 A 
ENDROOT
BRANCH   6   8
HETATM    8  C14 UNL     1     -45.422  69.307  -7.502  1.00  0.00     0.076 C 
BRANCH   8   9
HETATM    9  C15 UNL     1     -44.396  69.466  -8.589  1.00  0.00     0.054 C 
HETATM   10  C16 UNL     1     -44.805  70.123  -9.842  1.00  0.00     0.045 C 
HETATM   11  C17 UNL     1     -43.148  70.169  -8.082  1.00  0.00     0.045 C 
BRANCH   9  12
HETATM   12  O2  UNL     1     -43.963  68.157  -8.917  1.00  0.00    -0.390 OA
ATOM     13  H2  UNL     1     -44.405  67.573  -8.312  1.00  0.00     0.210 HD
ENDBRANCH   9  12
ENDBRANCH   8   9
ENDBRANCH   6   8
BRANCH   5  14
HETATM   14  C10 UNL     1     -46.868  71.791  -6.852  1.00  0.00     0.042 C 
BRANCH  14  15
HETATM   15  C11 UNL     1     -46.328  72.814  -7.865  1.00  0.00     0.030 C 
BRANCH  15  16
HETATM   16  C12 UNL     1     -44.948  73.291  -7.467  1.00  0.00     0.164 C 
BRANCH  16  17
HETATM   17  O1  UNL     1     -44.955  74.083  -6.340  1.00  0.00    -0.401 OA
ATOM     18  H1  UNL     1     -45.182  73.606  -5.551  1.00  0.00     0.209 HD
ENDBRANCH  16  17
ENDBRANCH  15  16
ENDBRANCH  14  15
ENDBRANCH   5  14
BRANCH   1  19
HETATM   19  C4  UNL     1     -49.408  67.501  -9.662  1.00  0.00     0.038 C 
BRANCH  19  20
HETATM   20  C3  UNL     1     -49.726  67.936 -11.089  1.00  0.00     0.004 C 
BRANCH  20  21
HETATM   21  C2  UNL     1     -49.160  66.883 -12.021  1.00  0.00    -0.004 C 
HETATM   22  C1  UNL     1     -47.658  67.027 -12.122  1.00  0.00     0.005 C 
ENDBRANCH  20  21
ENDBRANCH  19  20
ENDBRANCH   1  19
TORSDOF 10
ENDMDL
MODEL 5
REMARK VINA RESULT: -6.799983574      2.261      4.639
REMARK  10 active torsions:
REMARK  status: ('A' for Active; 'I' for Inactive)
REMARK    1  A    between atoms: C2_2  and  C3_3 
REMARK    2  A    between atoms: C3_3  and  C4_4 
REMARK    3  A    between atoms: C4_4  and  C5_5 
REMARK    4  A    between atoms: C9_9  and  C10_10 
REMARK    5  A    between atoms: C10_10  and  C11_11 
REMARK    6  A    between atoms: C11_11  and  C12_12 
REMARK    7  A    between atoms: C12_12  and  O1_13 
REMARK    8  A    between atoms: C13_15  and  C14_16 
REMARK    9  A    between atoms: C14_16  and  C15_17 
REMARK   10  A    between atoms: C15_17  and  O2_20 
ROOT
HETATM    1  C5  UNL     1     -46.690  71.290  -7.195  1.00  0.00    -0.057 A 
HETATM    2  C6  UNL     1     -45.934  72.226  -7.812  1.00  0.00     0.014 A 
HETATM    3  C7  UNL     1     -44.958  71.812  -8.721  1.00  0.00    -0.055 A 
HETATM    4  C8  UNL     1     -44.148  72.887  -9.371  1.00  0.00     0.049 C 
HETATM    5  C9  UNL     1     -44.737  70.483  -9.012  1.00  0.00    -0.046 A 
HETATM    6  C13 UNL     1     -45.526  69.572  -8.358  1.00  0.00    -0.048 A 
HETATM    7  C18 UNL     1     -46.515  69.954  -7.440  1.00  0.00     0.014 A 
ENDROOT
BRANCH   6   8
HETATM    8  C14 UNL     1     -45.307  68.134  -8.478  1.00  0.00     0.076 C 
BRANCH   8   9
HETATM    9  C15 UNL     1     -46.377  67.374  -9.211  1.00  0.00     0.054 C 
HETATM   10  C16 UNL     1     -47.638  67.091  -8.506  1.00  0.00     0.045 C 
HETATM   11  C17 UNL     1     -46.723  68.033 -10.536  1.00  0.00     0.045 C 
BRANCH   9  12
HETATM   12  O2  UNL     1     -45.802  66.129  -9.570  1.00  0.00    -0.390 OA
ATOM     13  H2  UNL     1     -45.461  65.754  -8.767  1.00  0.00     0.210 HD
ENDBRANCH   9  12
ENDBRANCH   8   9
ENDBRANCH   6   8
BRANCH   5  14
HETATM   14  C10 UNL     1     -43.762  70.112 -10.022  1.00  0.00     0.042 C 
BRANCH  14  15
HETATM   15  C11 UNL     1     -42.393  69.793  -9.400  1.00  0.00     0.030 C 
BRANCH  15  16
HETATM   16  C12 UNL     1     -41.320  70.699  -9.964  1.00  0.00     0.164 C 
BRANCH  16  17
HETATM   17  O1  UNL     1     -40.820  71.587  -9.038  1.00  0.00    -0.401 OA
ATOM     18  H1  UNL     1     -41.397  71.715  -8.294  1.00  0.00     0.209 HD
ENDBRANCH  16  17
ENDBRANCH  15  16
ENDBRANCH  14  15
ENDBRANCH   5  14
BRANCH   1  19
HETATM   19  C4  UNL     1     -47.733  71.721  -6.228  1.00  0.00     0.038 C 
BRANCH  19  20
HETATM   20  C3  UNL     1     -49.108  71.734  -6.887  1.00  0.00     0.004 C 
BRANCH  20  21
HETATM   21  C2  UNL     1     -49.739  73.081  -6.596  1.00  0.00    -0.004 C 
HETATM   22  C1  UNL     1     -49.395  73.528  -5.193  1.00  0.00     0.005 C 
ENDBRANCH  20  21
ENDBRANCH  19  20
ENDBRANCH   1  19
TORSDOF 10
ENDMDL
