MODEL 1
REMARK VINA RESULT: -6.160239361      0.000      0.000
REMARK  20 active torsions:
REMARK  status: ('A' for Active; 'I' for Inactive)
REMARK    1  A    between atoms: C2_2  and  N1_3 
REMARK       I    between atoms: C3_5  and  N3_7 
REMARK    2  A    between atoms: N3_7  and  C4_9 
REMARK    3  A    between atoms: C4_9  and  C5_10 
REMARK    4  A    between atoms: C5_10  and  C6_11 
REMARK    5  A    between atoms: C6_11  and  C7_12 
REMARK    6  A    between atoms: C7_12  and  C8_13 
REMARK    7  A    between atoms: N4_16  and  C11_17 
REMARK    8  A    between atoms: C11_17  and  O1_18 
REMARK    9  A    between atoms: C12_20  and  C13_21 
REMARK   10  A    between atoms: C12_20  and  N6_34 
REMARK   11  A    between atoms: C13_21  and  C14_22 
REMARK   12  A    between atoms: C18_26  and  C19_27 
REMARK   13  A    between atoms: C19_27  and  N5_28 
REMARK       I    between atoms: N6_34  and  C22_36 
REMARK   14  A    between atoms: C22_36  and  C23_38 
REMARK   15  A    between atoms: C23_38  and  N7_39 
REMARK   16  A    between atoms: C23_38  and  C24_43 
REMARK   17  A    between atoms: C24_43  and  C25_44 
REMARK   18  A    between atoms: C25_44  and  C26_45 
REMARK   19  A    between atoms: C26_45  and  C27_46 
REMARK   20  A    between atoms: C27_46  and  N8_47 
ROOT
HETATM    1  C11 UNL     1      11.934  17.826  12.003  1.00  0.00     0.161 C 
HETATM    2  C12 UNL     1      11.493  19.052  12.619  1.00  0.00     0.063 C 
ENDROOT
BRANCH   2   3
HETATM    3  C13 UNL     1      11.704  19.435  14.027  1.00  0.00     0.066 C 
BRANCH   3   4
HETATM    4  C14 UNL     1      13.088  19.917  14.350  1.00  0.00    -0.009 C 
HETATM    5  C15 UNL     1      13.347  21.351  14.416  1.00  0.00     0.005 C 
HETATM    6  C16 UNL     1      14.828  21.543  14.745  1.00  0.00     0.001 C 
HETATM    7  C17 UNL     1      15.056  21.843  16.199  1.00  0.00     0.006 C 
HETATM    8  C18 UNL     1      14.822  20.695  17.124  1.00  0.00     0.011 C 
HETATM    9  C20 UNL     1      13.560  19.932  16.814  1.00  0.00     0.006 C 
HETATM   10  C21 UNL     1      13.673  19.142  15.529  1.00  0.00     0.005 C 
BRANCH   8  11
HETATM   11  C19 UNL     1      14.646  21.274  18.522  1.00  0.00     0.234 C 
BRANCH  11  12
HETATM   12  N5  UNL     1      15.707  20.890  19.413  1.00  0.00    -0.079 N 
ATOM     13  H53 UNL     1      15.770  19.876  19.495  1.00  0.00     0.274 HD
ATOM     14  H52 UNL     1      16.621  21.077  18.998  1.00  0.00     0.274 HD
ATOM     15  H51 UNL     1      15.624  21.329  20.329  1.00  0.00     0.274 HD
ENDBRANCH  11  12
ENDBRANCH   8  11
ENDBRANCH   3   4
ENDBRANCH   2   3
BRANCH   2  16
HETATM   16  N6  UNL     1      11.194  20.085  11.665  1.00  0.00    -0.325 N 
HETATM   17  C22 UNL     1       9.985  20.320  10.981  1.00  0.00     0.252 C 
HETATM   18  O2  UNL     1       9.040  19.489  11.262  1.00  0.00    -0.271 OA
ATOM     19  H6  UNL     1      11.955  20.731  11.455  1.00  0.00     0.168 HD
BRANCH  17  20
HETATM   20  C23 UNL     1       9.704  21.368  10.018  1.00  0.00     0.275 C 
BRANCH  20  21
HETATM   21  N7  UNL     1       9.951  22.663  10.706  1.00  0.00    -0.066 N 
ATOM     22  H73 UNL     1       9.257  22.877  11.422  1.00  0.00     0.275 HD
ATOM     23  H72 UNL     1      10.766  22.643  11.319  1.00  0.00     0.275 HD
ATOM     24  H71 UNL     1      10.013  23.376   9.980  1.00  0.00     0.275 HD
ENDBRANCH  20  21
BRANCH  20  25
HETATM   25  C24 UNL     1      10.715  21.329   8.863  1.00  0.00     0.042 C 
BRANCH  25  26
HETATM   26  C25 UNL     1      10.349  20.305   7.873  1.00  0.00     0.004 C 
BRANCH  26  27
HETATM   27  C26 UNL     1      11.300  19.163   7.792  1.00  0.00     0.027 C 
BRANCH  27  28
HETATM   28  C27 UNL     1      10.695  17.808   7.817  1.00  0.00     0.229 C 
BRANCH  28  29
HETATM   29  N8  UNL     1       9.481  17.717   8.564  1.00  0.00    -0.079 N 
ATOM     30  H83 UNL     1       9.037  18.632   8.634  1.00  0.00     0.274 HD
ATOM     31  H82 UNL     1       8.770  17.219   8.028  1.00  0.00     0.274 HD
ATOM     32  H81 UNL     1       9.584  17.301   9.489  1.00  0.00     0.274 HD
ENDBRANCH  28  29
ENDBRANCH  27  28
ENDBRANCH  26  27
ENDBRANCH  25  26
ENDBRANCH  20  25
ENDBRANCH  17  20
ENDBRANCH   2  16
BRANCH   1  33
HETATM   33  N4  UNL     1      13.092  17.047  12.163  1.00  0.00    -0.360 N 
HETATM   34  C10 UNL     1      13.243  16.030  13.166  1.00  0.00     0.125 C 
HETATM   35  C9  UNL     1      14.661  16.147  13.744  1.00  0.00     0.024 C 
HETATM   36  C8  UNL     1      15.714  15.925  12.684  1.00  0.00    -0.012 C 
HETATM   37  C29 UNL     1      15.077  15.985  11.320  1.00  0.00     0.024 C 
HETATM   38  C28 UNL     1      14.248  17.233  11.253  1.00  0.00     0.125 C 
BRANCH  36  39
HETATM   39  C7  UNL     1      16.819  16.920  12.781  1.00  0.00     0.005 C 
BRANCH  39  40
HETATM   40  C6  UNL     1      16.667  17.759  14.025  1.00  0.00     0.002 C 
BRANCH  40  41
HETATM   41  C5  UNL     1      17.207  19.142  13.661  1.00  0.00     0.020 C 
BRANCH  41  42
HETATM   42  C4  UNL     1      18.210  19.654  14.637  1.00  0.00     0.122 C 
BRANCH  42  43
HETATM   43  N3  UNL     1      19.320  20.340  14.023  1.00  0.00    -0.365 N 
HETATM   44  C3  UNL     1      19.219  21.715  13.693  1.00  0.00     0.183 C 
HETATM   45  N1  UNL     1      19.869  22.214  12.712  1.00  0.00    -0.365 N 
HETATM   46  N2  UNL     1      18.373  22.535  14.485  1.00  0.00    -0.064 NA
ATOM     47  H1  UNL     1      20.469  21.606  12.155  1.00  0.00     0.162 HD
ATOM     48  H3  UNL     1      20.183  19.833  13.824  1.00  0.00     0.162 HD
BRANCH  45  49
HETATM   49  C2  UNL     1      19.776  23.631  12.362  1.00  0.00     0.118 C 
HETATM   50  C1  UNL     1      21.037  23.990  11.619  1.00  0.00     0.026 C 
ENDBRANCH  45  49
ENDBRANCH  42  43
ENDBRANCH  41  42
ENDBRANCH  40  41
ENDBRANCH  39  40
ENDBRANCH  36  39
ENDBRANCH   1  33
BRANCH   1  51
HETATM   51  O1  UNL     1      11.113  17.320  11.100  1.00  0.00    -0.345 OA
ATOM     52  H1  UNL     1      10.622  17.994  10.645  1.00  0.00     0.219 HD
ENDBRANCH   1  51
TORSDOF 20
ENDMDL
MODEL 2
REMARK VINA RESULT: -6.022686553      3.255      7.532
REMARK  20 active torsions:
REMARK  status: ('A' for Active; 'I' for Inactive)
REMARK    1  A    between atoms: C2_2  and  N1_3 
REMARK       I    between atoms: C3_5  and  N3_7 
REMARK    2  A    between atoms: N3_7  and  C4_9 
REMARK    3  A    between atoms: C4_9  and  C5_10 
REMARK    4  A    between atoms: C5_10  and  C6_11 
REMARK    5  A    between atoms: C6_11  and  C7_12 
REMARK    6  A    between atoms: C7_12  and  C8_13 
REMARK    7  A    between atoms: N4_16  and  C11_17 
REMARK    8  A    between atoms: C11_17  and  O1_18 
REMARK    9  A    between atoms: C12_20  and  C13_21 
REMARK   10  A    between atoms: C12_20  and  N6_34 
REMARK   11  A    between atoms: C13_21  and  C14_22 
REMARK   12  A    between atoms: C18_26  and  C19_27 
REMARK   13  A    between atoms: C19_27  and  N5_28 
REMARK       I    between atoms: N6_34  and  C22_36 
REMARK   14  A    between atoms: C22_36  and  C23_38 
REMARK   15  A    between atoms: C23_38  and  N7_39 
REMARK   16  A    between atoms: C23_38  and  C24_43 
REMARK   17  A    between atoms: C24_43  and  C25_44 
REMARK   18  A    between atoms: C25_44  and  C26_45 
REMARK   19  A    between atoms: C26_45  and  C27_46 
REMARK   20  A    between atoms: C27_46  and  N8_47 
ROOT
HETATM    1  C11 UNL     1      12.519  17.816  13.536  1.00  0.00     0.161 C 
HETATM    2  C12 UNL     1      13.752  18.052  14.244  1.00  0.00     0.063 C 
ENDROOT
BRANCH   2   3
HETATM    3  C13 UNL     1      15.014  17.317  14.049  1.00  0.00     0.066 C 
BRANCH   3   4
HETATM    4  C14 UNL     1      16.086  18.083  13.330  1.00  0.00    -0.009 C 
HETATM    5  C15 UNL     1      15.732  19.300  12.609  1.00  0.00     0.005 C 
HETATM    6  C16 UNL     1      17.006  19.853  11.970  1.00  0.00     0.001 C 
HETATM    7  C17 UNL     1      17.603  20.978  12.765  1.00  0.00     0.006 C 
HETATM    8  C18 UNL     1      18.223  20.574  14.063  1.00  0.00     0.011 C 
HETATM    9  C20 UNL     1      17.374  19.609  14.850  1.00  0.00     0.006 C 
HETATM   10  C21 UNL     1      17.326  18.239  14.209  1.00  0.00     0.005 C 
BRANCH   8  11
HETATM   11  C19 UNL     1      18.347  21.832  14.911  1.00  0.00     0.234 C 
BRANCH  11  12
HETATM   12  N5  UNL     1      18.442  21.541  16.316  1.00  0.00    -0.079 N 
ATOM     13  H53 UNL     1      17.770  22.090  16.852  1.00  0.00     0.274 HD
ATOM     14  H52 UNL     1      18.091  20.605  16.522  1.00  0.00     0.274 HD
ATOM     15  H51 UNL     1      19.388  21.665  16.676  1.00  0.00     0.274 HD
ENDBRANCH  11  12
ENDBRANCH   8  11
ENDBRANCH   3   4
ENDBRANCH   2   3
BRANCH   2  16
HETATM   16  N6  UNL     1      13.801  19.346  14.871  1.00  0.00    -0.325 N 
HETATM   17  C22 UNL     1      13.763  19.654  16.245  1.00  0.00     0.252 C 
HETATM   18  O2  UNL     1      13.669  18.629  17.022  1.00  0.00    -0.271 OA
ATOM     19  H6  UNL     1      13.873  20.143  14.239  1.00  0.00     0.168 HD
BRANCH  17  20
HETATM   20  C23 UNL     1      13.811  20.969  16.857  1.00  0.00     0.275 C 
BRANCH  20  21
HETATM   21  N7  UNL     1      14.371  20.787  18.223  1.00  0.00    -0.066 N 
ATOM     22  H73 UNL     1      14.142  19.882  18.634  1.00  0.00     0.275 HD
ATOM     23  H72 UNL     1      15.385  20.679  18.230  1.00  0.00     0.275 HD
ATOM     24  H71 UNL     1      14.047  21.576  18.782  1.00  0.00     0.275 HD
ENDBRANCH  20  21
BRANCH  20  25
HETATM   25  C24 UNL     1      14.819  21.870  16.129  1.00  0.00     0.042 C 
BRANCH  25  26
HETATM   26  C25 UNL     1      14.133  22.825  15.244  1.00  0.00     0.004 C 
BRANCH  26  27
HETATM   27  C26 UNL     1      14.560  22.756  13.821  1.00  0.00     0.027 C 
BRANCH  27  28
HETATM   28  C27 UNL     1      13.492  22.456  12.834  1.00  0.00     0.229 C 
BRANCH  28  29
HETATM   29  N8  UNL     1      12.242  22.079  13.413  1.00  0.00    -0.079 N 
ATOM     30  H83 UNL     1      12.393  21.531  14.259  1.00  0.00     0.274 HD
ATOM     31  H82 UNL     1      11.776  22.893  13.813  1.00  0.00     0.274 HD
ATOM     32  H81 UNL     1      11.614  21.586  12.778  1.00  0.00     0.274 HD
ENDBRANCH  28  29
ENDBRANCH  27  28
ENDBRANCH  26  27
ENDBRANCH  25  26
ENDBRANCH  20  25
ENDBRANCH  17  20
ENDBRANCH   2  16
BRANCH   1  33
HETATM   33  N4  UNL     1      12.243  17.463  12.204  1.00  0.00    -0.360 N 
HETATM   34  C10 UNL     1      13.015  16.518  11.448  1.00  0.00     0.125 C 
HETATM   35  C9  UNL     1      13.186  17.080  10.029  1.00  0.00     0.024 C 
HETATM   36  C8  UNL     1      11.856  17.263   9.338  1.00  0.00    -0.012 C 
HETATM   37  C29 UNL     1      10.744  17.157  10.350  1.00  0.00     0.024 C 
HETATM   38  C28 UNL     1      11.081  18.059  11.500  1.00  0.00     0.125 C 
BRANCH  36  39
HETATM   39  C7  UNL     1      11.777  18.565   8.619  1.00  0.00     0.005 C 
BRANCH  39  40
HETATM   40  C6  UNL     1      11.142  18.383   7.263  1.00  0.00     0.002 C 
BRANCH  40  41
HETATM   41  C5  UNL     1      11.820  17.158   6.648  1.00  0.00     0.020 C 
BRANCH  41  42
HETATM   42  C4  UNL     1      11.465  16.950   5.216  1.00  0.00     0.122 C 
BRANCH  42  43
HETATM   43  N3  UNL     1      12.357  16.055   4.521  1.00  0.00    -0.365 N 
HETATM   44  C3  UNL     1      13.480  16.563   3.822  1.00  0.00     0.183 C 
HETATM   45  N1  UNL     1      13.950  15.969   2.793  1.00  0.00    -0.365 N 
HETATM   46  N2  UNL     1      14.081  17.759   4.295  1.00  0.00    -0.064 NA
ATOM     47  H1  UNL     1      13.501  15.112   2.470  1.00  0.00     0.162 HD
ATOM     48  H3  UNL     1      12.179  15.051   4.533  1.00  0.00     0.162 HD
BRANCH  45  49
HETATM   49  C2  UNL     1      15.109  16.480   2.064  1.00  0.00     0.118 C 
HETATM   50  C1  UNL     1      14.613  16.982   0.733  1.00  0.00     0.026 C 
ENDBRANCH  45  49
ENDBRANCH  42  43
ENDBRANCH  41  42
ENDBRANCH  40  41
ENDBRANCH  39  40
ENDBRANCH  36  39
ENDBRANCH   1  33
BRANCH   1  51
HETATM   51  O1  UNL     1      11.419  17.964  14.252  1.00  0.00    -0.345 OA
ATOM     52  H1  UNL     1      10.643  17.686  13.779  1.00  0.00     0.219 HD
ENDBRANCH   1  51
TORSDOF 20
ENDMDL
MODEL 3
REMARK VINA RESULT: -5.875290446      3.045      8.263
REMARK  20 active torsions:
REMARK  status: ('A' for Active; 'I' for Inactive)
REMARK    1  A    between atoms: C2_2  and  N1_3 
REMARK       I    between atoms: C3_5  and  N3_7 
REMARK    2  A    between atoms: N3_7  and  C4_9 
REMARK    3  A    between atoms: C4_9  and  C5_10 
REMARK    4  A    between atoms: C5_10  and  C6_11 
REMARK    5  A    between atoms: C6_11  and  C7_12 
REMARK    6  A    between atoms: C7_12  and  C8_13 
REMARK    7  A    between atoms: N4_16  and  C11_17 
REMARK    8  A    between atoms: C11_17  and  O1_18 
REMARK    9  A    between atoms: C12_20  and  C13_21 
REMARK   10  A    between atoms: C12_20  and  N6_34 
REMARK   11  A    between atoms: C13_21  and  C14_22 
REMARK   12  A    between atoms: C18_26  and  C19_27 
REMARK   13  A    between atoms: C19_27  and  N5_28 
REMARK       I    between atoms: N6_34  and  C22_36 
REMARK   14  A    between atoms: C22_36  and  C23_38 
REMARK   15  A    between atoms: C23_38  and  N7_39 
REMARK   16  A    between atoms: C23_38  and  C24_43 
REMARK   17  A    between atoms: C24_43  and  C25_44 
REMARK   18  A    between atoms: C25_44  and  C26_45 
REMARK   19  A    between atoms: C26_45  and  C27_46 
REMARK   20  A    between atoms: C27_46  and  N8_47 
ROOT
HETATM    1  C11 UNL     1      10.738  21.118  12.983  1.00  0.00     0.161 C 
HETATM    2  C12 UNL     1      11.616  20.405  13.878  1.00  0.00     0.063 C 
ENDROOT
BRANCH   2   3
HETATM    3  C13 UNL     1      11.645  18.945  14.077  1.00  0.00     0.066 C 
BRANCH   3   4
HETATM    4  C14 UNL     1      12.121  18.156  12.892  1.00  0.00    -0.009 C 
HETATM    5  C15 UNL     1      13.198  18.690  12.066  1.00  0.00     0.005 C 
HETATM    6  C16 UNL     1      13.460  17.692  10.938  1.00  0.00     0.001 C 
HETATM    7  C17 UNL     1      14.649  16.817  11.213  1.00  0.00     0.006 C 
HETATM    8  C18 UNL     1      14.452  15.806  12.295  1.00  0.00     0.011 C 
HETATM    9  C20 UNL     1      13.770  16.370  13.515  1.00  0.00     0.006 C 
HETATM   10  C21 UNL     1      12.313  16.685  13.259  1.00  0.00     0.005 C 
BRANCH   8  11
HETATM   11  C19 UNL     1      15.835  15.353  12.742  1.00  0.00     0.234 C 
BRANCH  11  12
HETATM   12  N5  UNL     1      16.634  16.438  13.243  1.00  0.00    -0.079 N 
ATOM     13  H53 UNL     1      16.706  17.188  12.555  1.00  0.00     0.274 HD
ATOM     14  H52 UNL     1      16.147  16.942  13.984  1.00  0.00     0.274 HD
ATOM     15  H51 UNL     1      17.556  16.132  13.552  1.00  0.00     0.274 HD
ENDBRANCH  11  12
ENDBRANCH   8  11
ENDBRANCH   3   4
ENDBRANCH   2   3
BRANCH   2  16
HETATM   16  N6  UNL     1      12.767  21.174  14.267  1.00  0.00    -0.325 N 
HETATM   17  C22 UNL     1      13.077  21.703  15.535  1.00  0.00     0.252 C 
HETATM   18  O2  UNL     1      12.201  21.456  16.448  1.00  0.00    -0.271 OA
ATOM     19  H6  UNL     1      13.447  21.360  13.530  1.00  0.00     0.168 HD
BRANCH  17  20
HETATM   20  C23 UNL     1      14.245  22.480  15.907  1.00  0.00     0.275 C 
BRANCH  20  21
HETATM   21  N7  UNL     1      14.817  21.842  17.123  1.00  0.00    -0.066 N 
ATOM     22  H73 UNL     1      14.188  21.165  17.555  1.00  0.00     0.275 HD
ATOM     23  H72 UNL     1      15.579  21.197  16.917  1.00  0.00     0.275 HD
ATOM     24  H71 UNL     1      15.088  22.597  17.752  1.00  0.00     0.275 HD
ENDBRANCH  20  21
BRANCH  20  25
HETATM   25  C24 UNL     1      15.340  22.359  14.838  1.00  0.00     0.042 C 
BRANCH  25  26
HETATM   26  C25 UNL     1      16.481  23.234  15.147  1.00  0.00     0.004 C 
BRANCH  26  27
HETATM   27  C26 UNL     1      17.808  22.655  14.802  1.00  0.00     0.027 C 
BRANCH  27  28
HETATM   28  C27 UNL     1      18.121  21.337  15.409  1.00  0.00     0.229 C 
BRANCH  28  29
HETATM   29  N8  UNL     1      18.594  21.403  16.755  1.00  0.00    -0.079 N 
ATOM     30  H83 UNL     1      18.905  22.349  16.976  1.00  0.00     0.274 HD
ATOM     31  H82 UNL     1      17.816  21.317  17.410  1.00  0.00     0.274 HD
ATOM     32  H81 UNL     1      19.324  20.727  16.980  1.00  0.00     0.274 HD
ENDBRANCH  28  29
ENDBRANCH  27  28
ENDBRANCH  26  27
ENDBRANCH  25  26
ENDBRANCH  20  25
ENDBRANCH  17  20
ENDBRANCH   2  16
BRANCH   1  33
HETATM   33  N4  UNL     1      10.239  20.816  11.705  1.00  0.00    -0.360 N 
HETATM   34  C10 UNL     1       9.037  20.067  11.469  1.00  0.00     0.125 C 
HETATM   35  C9  UNL     1       9.306  19.102  10.305  1.00  0.00     0.024 C 
HETATM   36  C8  UNL     1       9.657  19.842   9.037  1.00  0.00    -0.012 C 
HETATM   37  C29 UNL     1       9.964  21.281   9.363  1.00  0.00     0.024 C 
HETATM   38  C28 UNL     1      10.948  21.298  10.494  1.00  0.00     0.125 C 
BRANCH  36  39
HETATM   39  C7  UNL     1      10.807  19.217   8.328  1.00  0.00     0.005 C 
BRANCH  39  40
HETATM   40  C6  UNL     1      10.821  17.726   8.553  1.00  0.00     0.002 C 
BRANCH  40  41
HETATM   41  C5  UNL     1      11.863  17.169   7.583  1.00  0.00     0.020 C 
BRANCH  41  42
HETATM   42  C4  UNL     1      11.534  17.435   6.155  1.00  0.00     0.122 C 
BRANCH  42  43
HETATM   43  N3  UNL     1      12.266  16.609   5.227  1.00  0.00    -0.365 N 
HETATM   44  C3  UNL     1      13.023  17.200   4.184  1.00  0.00     0.183 C 
HETATM   45  N1  UNL     1      13.209  16.597   3.072  1.00  0.00    -0.365 N 
HETATM   46  N2  UNL     1      13.575  18.489   4.402  1.00  0.00    -0.064 NA
ATOM     47  H1  UNL     1      12.801  15.672   2.937  1.00  0.00     0.162 HD
ATOM     48  H3  UNL     1      12.240  15.593   5.321  1.00  0.00     0.162 HD
BRANCH  45  49
HETATM   49  C2  UNL     1      13.990  17.193   1.989  1.00  0.00     0.118 C 
HETATM   50  C1  UNL     1      15.236  16.361   1.828  1.00  0.00     0.026 C 
ENDBRANCH  45  49
ENDBRANCH  42  43
ENDBRANCH  41  42
ENDBRANCH  40  41
ENDBRANCH  39  40
ENDBRANCH  36  39
ENDBRANCH   1  33
BRANCH   1  51
HETATM   51  O1  UNL     1      10.316  22.290  13.420  1.00  0.00    -0.345 OA
ATOM     52  H1  UNL     1      11.002  22.775  13.864  1.00  0.00     0.219 HD
ENDBRANCH   1  51
TORSDOF 20
ENDMDL
MODEL 4
REMARK VINA RESULT: -5.862698704      3.168      8.541
REMARK  20 active torsions:
REMARK  status: ('A' for Active; 'I' for Inactive)
REMARK    1  A    between atoms: C2_2  and  N1_3 
REMARK       I    between atoms: C3_5  and  N3_7 
REMARK    2  A    between atoms: N3_7  and  C4_9 
REMARK    3  A    between atoms: C4_9  and  C5_10 
REMARK    4  A    between atoms: C5_10  and  C6_11 
REMARK    5  A    between atoms: C6_11  and  C7_12 
REMARK    6  A    between atoms: C7_12  and  C8_13 
REMARK    7  A    between atoms: N4_16  and  C11_17 
REMARK    8  A    between atoms: C11_17  and  O1_18 
REMARK    9  A    between atoms: C12_20  and  C13_21 
REMARK   10  A    between atoms: C12_20  and  N6_34 
REMARK   11  A    between atoms: C13_21  and  C14_22 
REMARK   12  A    between atoms: C18_26  and  C19_27 
REMARK   13  A    between atoms: C19_27  and  N5_28 
REMARK       I    between atoms: N6_34  and  C22_36 
REMARK   14  A    between atoms: C22_36  and  C23_38 
REMARK   15  A    between atoms: C23_38  and  N7_39 
REMARK   16  A    between atoms: C23_38  and  C24_43 
REMARK   17  A    between atoms: C24_43  and  C25_44 
REMARK   18  A    between atoms: C25_44  and  C26_45 
REMARK   19  A    between atoms: C26_45  and  C27_46 
REMARK   20  A    between atoms: C27_46  and  N8_47 
ROOT
HETATM    1  C11 UNL     1      15.598  17.704  13.230  1.00  0.00     0.161 C 
HETATM    2  C12 UNL     1      16.349  18.928  13.103  1.00  0.00     0.063 C 
ENDROOT
BRANCH   2   3
HETATM    3  C13 UNL     1      16.553  19.690  11.858  1.00  0.00     0.066 C 
BRANCH   3   4
HETATM    4  C14 UNL     1      15.826  21.001  11.794  1.00  0.00    -0.009 C 
HETATM    5  C15 UNL     1      16.246  22.003  10.820  1.00  0.00     0.005 C 
HETATM    6  C16 UNL     1      15.346  23.227  10.992  1.00  0.00     0.001 C 
HETATM    7  C17 UNL     1      14.248  23.278   9.969  1.00  0.00     0.006 C 
HETATM    8  C18 UNL     1      13.177  22.252  10.143  1.00  0.00     0.011 C 
HETATM    9  C20 UNL     1      13.716  20.877  10.441  1.00  0.00     0.006 C 
HETATM   10  C21 UNL     1      14.313  20.788  11.828  1.00  0.00     0.005 C 
BRANCH   8  11
HETATM   11  C19 UNL     1      12.436  22.148   8.816  1.00  0.00     0.234 C 
BRANCH  11  12
HETATM   12  N5  UNL     1      13.329  22.130   7.689  1.00  0.00    -0.079 N 
ATOM     13  H53 UNL     1      12.813  22.175   6.811  1.00  0.00     0.274 HD
ATOM     14  H52 UNL     1      13.849  23.005   7.618  1.00  0.00     0.274 HD
ATOM     15  H51 UNL     1      13.959  21.329   7.704  1.00  0.00     0.274 HD
ENDBRANCH  11  12
ENDBRANCH   8  11
ENDBRANCH   3   4
ENDBRANCH   2   3
BRANCH   2  16
HETATM   16  N6  UNL     1      16.546  19.600  14.359  1.00  0.00    -0.325 N 
HETATM   17  C22 UNL     1      17.756  19.858  15.032  1.00  0.00     0.252 C 
HETATM   18  O2  UNL     1      18.809  19.426  14.427  1.00  0.00    -0.271 OA
ATOM     19  H6  UNL     1      15.700  19.932  14.822  1.00  0.00     0.168 HD
BRANCH  17  20
HETATM   20  C23 UNL     1      17.932  20.537  16.302  1.00  0.00     0.275 C 
BRANCH  20  21
HETATM   21  N7  UNL     1      19.155  19.967  16.928  1.00  0.00    -0.066 N 
ATOM     22  H73 UNL     1      19.203  18.951  16.865  1.00  0.00     0.275 HD
ATOM     23  H72 UNL     1      20.006  20.170  16.404  1.00  0.00     0.275 HD
ATOM     24  H71 UNL     1      19.183  20.312  17.888  1.00  0.00     0.275 HD
ENDBRANCH  20  21
BRANCH  20  25
HETATM   25  C24 UNL     1      18.250  22.023  16.084  1.00  0.00     0.042 C 
BRANCH  25  26
HETATM   26  C25 UNL     1      17.559  22.544  14.894  1.00  0.00     0.004 C 
BRANCH  26  27
HETATM   27  C26 UNL     1      16.451  23.491  15.195  1.00  0.00     0.027 C 
BRANCH  27  28
HETATM   28  C27 UNL     1      15.111  22.884  15.391  1.00  0.00     0.229 C 
BRANCH  28  29
HETATM   29  N8  UNL     1      14.839  22.470  16.731  1.00  0.00    -0.079 N 
ATOM     30  H83 UNL     1      15.028  23.231  17.383  1.00  0.00     0.274 HD
ATOM     31  H82 UNL     1      13.835  22.363  16.873  1.00  0.00     0.274 HD
ATOM     32  H81 UNL     1      15.332  21.625  17.020  1.00  0.00     0.274 HD
ENDBRANCH  28  29
ENDBRANCH  27  28
ENDBRANCH  26  27
ENDBRANCH  25  26
ENDBRANCH  20  25
ENDBRANCH  17  20
ENDBRANCH   2  16
BRANCH   1  33
HETATM   33  N4  UNL     1      14.418  17.248  12.620  1.00  0.00    -0.360 N 
HETATM   34  C10 UNL     1      14.388  16.384  11.473  1.00  0.00     0.125 C 
HETATM   35  C9  UNL     1      13.286  16.892  10.531  1.00  0.00     0.024 C 
HETATM   36  C8  UNL     1      11.928  16.849  11.189  1.00  0.00    -0.012 C 
HETATM   37  C29 UNL     1      12.093  16.639  12.672  1.00  0.00     0.024 C 
HETATM   38  C28 UNL     1      13.096  17.636  13.170  1.00  0.00     0.125 C 
BRANCH  36  39
HETATM   39  C7  UNL     1      11.144  18.088  10.928  1.00  0.00     0.005 C 
BRANCH  39  40
HETATM   40  C6  UNL     1      10.101  17.841   9.867  1.00  0.00     0.002 C 
BRANCH  40  41
HETATM   41  C5  UNL     1      10.163  19.051   8.935  1.00  0.00     0.020 C 
BRANCH  41  42
HETATM   42  C4  UNL     1      11.142  18.884   7.823  1.00  0.00     0.122 C 
BRANCH  42  43
HETATM   43  N3  UNL     1      11.040  17.614   7.148  1.00  0.00    -0.365 N 
HETATM   44  C3  UNL     1      11.541  17.461   5.830  1.00  0.00     0.183 C 
HETATM   45  N1  UNL     1      11.023  16.625   5.013  1.00  0.00    -0.365 N 
HETATM   46  N2  UNL     1      12.642  18.264   5.433  1.00  0.00    -0.064 NA
ATOM     47  H1  UNL     1      10.232  16.060   5.320  1.00  0.00     0.162 HD
ATOM     48  H3  UNL     1      10.606  16.821   7.620  1.00  0.00     0.162 HD
BRANCH  45  49
HETATM   49  C2  UNL     1      11.531  16.455   3.653  1.00  0.00     0.118 C 
HETATM   50  C1  UNL     1      12.252  15.132   3.609  1.00  0.00     0.026 C 
ENDBRANCH  45  49
ENDBRANCH  42  43
ENDBRANCH  41  42
ENDBRANCH  40  41
ENDBRANCH  39  40
ENDBRANCH  36  39
ENDBRANCH   1  33
BRANCH   1  51
HETATM   51  O1  UNL     1      16.087  16.828  14.089  1.00  0.00    -0.345 OA
ATOM     52  H1  UNL     1      16.030  15.937  13.764  1.00  0.00     0.219 HD
ENDBRANCH   1  51
TORSDOF 20
ENDMDL
MODEL 5
REMARK VINA RESULT: -5.802825277      2.948      9.314
REMARK  20 active torsions:
REMARK  status: ('A' for Active; 'I' for Inactive)
REMARK    1  A    between atoms: C2_2  and  N1_3 
REMARK       I    between atoms: C3_5  and  N3_7 
REMARK    2  A    between atoms: N3_7  and  C4_9 
REMARK    3  A    between atoms: C4_9  and  C5_10 
REMARK    4  A    between atoms: C5_10  and  C6_11 
REMARK    5  A    between atoms: C6_11  and  C7_12 
REMARK    6  A    between atoms: C7_12  and  C8_13 
REMARK    7  A    between atoms: N4_16  and  C11_17 
REMARK    8  A    between atoms: C11_17  and  O1_18 
REMARK    9  A    between atoms: C12_20  and  C13_21 
REMARK   10  A    between atoms: C12_20  and  N6_34 
REMARK   11  A    between atoms: C13_21  and  C14_22 
REMARK   12  A    between atoms: C18_26  and  C19_27 
REMARK   13  A    between atoms: C19_27  and  N5_28 
REMARK       I    between atoms: N6_34  and  C22_36 
REMARK   14  A    between atoms: C22_36  and  C23_38 
REMARK   15  A    between atoms: C23_38  and  N7_39 
REMARK   16  A    between atoms: C23_38  and  C24_43 
REMARK   17  A    between atoms: C24_43  and  C25_44 
REMARK   18  A    between atoms: C25_44  and  C26_45 
REMARK   19  A    between atoms: C26_45  and  C27_46 
REMARK   20  A    between atoms: C27_46  and  N8_47 
ROOT
HETATM    1  C11 UNL     1      13.450  21.273  14.575  1.00  0.00     0.161 C 
HETATM    2  C12 UNL     1      14.408  20.298  15.032  1.00  0.00     0.063 C 
ENDROOT
BRANCH   2   3
HETATM    3  C13 UNL     1      14.138  18.869  15.273  1.00  0.00     0.066 C 
BRANCH   3   4
HETATM    4  C14 UNL     1      15.076  17.923  14.582  1.00  0.00    -0.009 C 
HETATM    5  C15 UNL     1      14.830  16.488  14.666  1.00  0.00     0.005 C 
HETATM    6  C16 UNL     1      15.940  15.778  13.890  1.00  0.00     0.001 C 
HETATM    7  C17 UNL     1      15.501  15.365  12.515  1.00  0.00     0.006 C 
HETATM    8  C18 UNL     1      15.308  16.488  11.550  1.00  0.00     0.011 C 
HETATM    9  C20 UNL     1      14.560  17.655  12.141  1.00  0.00     0.006 C 
HETATM   10  C21 UNL     1      15.386  18.401  13.165  1.00  0.00     0.005 C 
BRANCH   8  11
HETATM   11  C19 UNL     1      14.451  15.957  10.409  1.00  0.00     0.234 C 
BRANCH  11  12
HETATM   12  N5  UNL     1      13.368  16.844  10.077  1.00  0.00    -0.079 N 
ATOM     13  H53 UNL     1      12.477  16.348  10.066  1.00  0.00     0.274 HD
ATOM     14  H52 UNL     1      13.182  17.498  10.837  1.00  0.00     0.274 HD
ATOM     15  H51 UNL     1      13.525  17.337   9.198  1.00  0.00     0.274 HD
ENDBRANCH  11  12
ENDBRANCH   8  11
ENDBRANCH   3   4
ENDBRANCH   2   3
BRANCH   2  16
HETATM   16  N6  UNL     1      15.771  20.715  14.838  1.00  0.00    -0.325 N 
HETATM   17  C22 UNL     1      16.765  20.934  15.812  1.00  0.00     0.252 C 
HETATM   18  O2  UNL     1      16.381  20.730  17.026  1.00  0.00    -0.271 OA
ATOM     19  H6  UNL     1      16.054  20.872  13.871  1.00  0.00     0.168 HD
BRANCH  17  20
HETATM   20  C23 UNL     1      18.136  21.358  15.595  1.00  0.00     0.275 C 
BRANCH  20  21
HETATM   21  N7  UNL     1      18.822  21.284  16.912  1.00  0.00    -0.066 N 
ATOM     22  H73 UNL     1      18.246  21.615  17.686  1.00  0.00     0.275 HD
ATOM     23  H72 UNL     1      18.949  20.329  17.246  1.00  0.00     0.275 HD
ATOM     24  H71 UNL     1      19.699  21.796  16.817  1.00  0.00     0.275 HD
ENDBRANCH  20  21
BRANCH  20  25
HETATM   25  C24 UNL     1      18.879  20.356  14.700  1.00  0.00     0.042 C 
BRANCH  25  26
HETATM   26  C25 UNL     1      18.923  20.823  13.305  1.00  0.00     0.004 C 
BRANCH  26  27
HETATM   27  C26 UNL     1      19.279  22.259  13.151  1.00  0.00     0.027 C 
BRANCH  27  28
HETATM   28  C27 UNL     1      20.512  22.545  12.375  1.00  0.00     0.229 C 
BRANCH  28  29
HETATM   29  N8  UNL     1      21.437  21.457  12.314  1.00  0.00    -0.079 N 
ATOM     30  H83 UNL     1      22.308  21.706  12.781  1.00  0.00     0.274 HD
ATOM     31  H82 UNL     1      21.127  20.693  12.914  1.00  0.00     0.274 HD
ATOM     32  H81 UNL     1      21.624  21.116  11.371  1.00  0.00     0.274 HD
ENDBRANCH  28  29
ENDBRANCH  27  28
ENDBRANCH  26  27
ENDBRANCH  25  26
ENDBRANCH  20  25
ENDBRANCH  17  20
ENDBRANCH   2  16
BRANCH   1  33
HETATM   33  N4  UNL     1      12.385  21.200  13.661  1.00  0.00    -0.360 N 
HETATM   34  C10 UNL     1      11.024  20.934  14.035  1.00  0.00     0.125 C 
HETATM   35  C9  UNL     1      10.435  19.965  12.999  1.00  0.00     0.024 C 
HETATM   36  C8  UNL     1      10.435  20.563  11.613  1.00  0.00    -0.012 C 
HETATM   37  C29 UNL     1      11.310  21.789  11.594  1.00  0.00     0.024 C 
HETATM   38  C28 UNL     1      12.626  21.427  12.216  1.00  0.00     0.125 C 
BRANCH  36  39
HETATM   39  C7  UNL     1      10.895  19.586  10.586  1.00  0.00     0.005 C 
BRANCH  39  40
HETATM   40  C6  UNL     1      10.138  18.288  10.715  1.00  0.00     0.002 C 
BRANCH  40  41
HETATM   41  C5  UNL     1       9.484  18.052   9.353  1.00  0.00     0.020 C 
BRANCH  41  42
HETATM   42  C4  UNL     1       9.113  19.315   8.656  1.00  0.00     0.122 C 
BRANCH  42  43
HETATM   43  N3  UNL     1       7.742  19.349   8.208  1.00  0.00    -0.365 N 
HETATM   44  C3  UNL     1       6.684  19.444   9.147  1.00  0.00     0.183 C 
HETATM   45  N1  UNL     1       5.534  18.941   8.908  1.00  0.00    -0.365 N 
HETATM   46  N2  UNL     1       6.931  20.119  10.371  1.00  0.00    -0.064 NA
ATOM     47  H1  UNL     1       5.380  18.459   8.022  1.00  0.00     0.162 HD
ATOM     48  H3  UNL     1       7.532  19.305   7.211  1.00  0.00     0.162 HD
BRANCH  45  49
HETATM   49  C2  UNL     1       4.433  19.034   9.866  1.00  0.00     0.118 C 
HETATM   50  C1  UNL     1       3.552  17.831   9.650  1.00  0.00     0.026 C 
ENDBRANCH  45  49
ENDBRANCH  42  43
ENDBRANCH  41  42
ENDBRANCH  40  41
ENDBRANCH  39  40
ENDBRANCH  36  39
ENDBRANCH   1  33
BRANCH   1  51
HETATM   51  O1  UNL     1      13.584  22.481  15.091  1.00  0.00    -0.345 OA
ATOM     52  H1  UNL     1      14.356  22.554  15.639  1.00  0.00     0.219 HD
ENDBRANCH   1  51
TORSDOF 20
ENDMDL
