MODEL 1
REMARK VINA RESULT: -6.661348075      0.000      0.000
REMARK  19 active torsions:
REMARK  status: ('A' for Active; 'I' for Inactive)
REMARK    1  A    between atoms: C8_8  and  C9_9 
REMARK    2  A    between atoms: C9_9  and  C10_10 
REMARK    3  A    between atoms: C10_10  and  C11_11 
REMARK    4  A    between atoms: C11_11  and  C12_12 
REMARK    5  A    between atoms: C12_12  and  C13_13 
REMARK       I    between atoms: C13_13  and  N1_15 
REMARK    6  A    between atoms: N1_15  and  C14_17 
REMARK    7  A    between atoms: C14_17  and  C15_18 
REMARK       I    between atoms: C15_18  and  N2_20 
REMARK    8  A    between atoms: N2_20  and  C16_22 
REMARK    9  A    between atoms: C16_22  and  C17_23 
REMARK   10  A    between atoms: C16_22  and  C21_31 
REMARK   11  A    between atoms: C17_23  and  C18_24 
REMARK   12  A    between atoms: C18_24  and  C19_25 
REMARK   13  A    between atoms: C19_25  and  C20_26 
REMARK   14  A    between atoms: C20_26  and  N3_27 
REMARK   15  A    between atoms: C21_31  and  N5_35 
REMARK   16  A    between atoms: N5_35  and  C22_37 
REMARK   17  A    between atoms: C22_37  and  C23_38 
REMARK   18  A    between atoms: C23_38  and  O3_39 
REMARK   19  A    between atoms: C23_38  and  N6_41 
ROOT
HETATM    1  C16 UNL     1      17.767  19.279  13.170  1.00  0.00     0.151 C 
ENDROOT
BRANCH   1   2
HETATM    2  N2  UNL     1      16.656  18.651  13.886  1.00  0.00    -0.348 N 
HETATM    3  C15 UNL     1      16.444  17.268  13.760  1.00  0.00     0.235 C 
HETATM    4  O2  UNL     1      17.242  16.596  13.018  1.00  0.00    -0.272 OA
ATOM      5  H2  UNL     1      16.039  19.213  14.473  1.00  0.00     0.163 HD
BRANCH   3   6
HETATM    6  C14 UNL     1      15.386  16.511  14.417  1.00  0.00     0.225 C 
BRANCH   6   7
HETATM    7  N1  UNL     1      14.040  16.920  14.158  1.00  0.00    -0.352 N 
HETATM    8  C13 UNL     1      13.431  17.859  15.075  1.00  0.00     0.217 C 
HETATM    9  O1  UNL     1      14.100  18.278  16.052  1.00  0.00    -0.274 OA
ATOM     10  H1  UNL     1      13.525  16.560  13.354  1.00  0.00     0.162 HD
BRANCH   8  11
HETATM   11  C12 UNL     1      12.055  18.252  14.768  1.00  0.00     0.103 C 
BRANCH  11  12
HETATM   12  C11 UNL     1      11.877  19.583  14.137  1.00  0.00     0.009 C 
BRANCH  12  13
HETATM   13  C10 UNL     1      12.379  19.794  12.771  1.00  0.00     0.001 C 
BRANCH  13  14
HETATM   14  C9  UNL     1      11.464  20.276  11.726  1.00  0.00     0.005 C 
BRANCH  14  15
HETATM   15  C8  UNL     1      10.997  19.285  10.769  1.00  0.00    -0.009 C 
HETATM   16  C7  UNL     1      11.532  19.081   9.438  1.00  0.00    -0.002 C 
HETATM   17  C2  UNL     1      11.869  17.549   9.423  1.00  0.00    -0.040 C 
HETATM   18  C6  UNL     1      10.323  18.951   8.477  1.00  0.00     0.006 C 
HETATM   19  C1  UNL     1      13.111  17.216  10.127  1.00  0.00     0.015 C 
HETATM   20  C3  UNL     1      11.964  17.065   7.993  1.00  0.00     0.015 C 
HETATM   21  C4  UNL     1      10.577  17.115  10.076  1.00  0.00    -0.006 C 
HETATM   22  C5  UNL     1       9.572  17.816   9.178  1.00  0.00     0.006 C 
HETATM   23  C29 UNL     1      10.658  17.904  11.363  1.00  0.00     0.010 C 
ENDBRANCH  14  15
ENDBRANCH  13  14
ENDBRANCH  12  13
ENDBRANCH  11  12
ENDBRANCH   8  11
ENDBRANCH   6   7
ENDBRANCH   3   6
ENDBRANCH   1   2
BRANCH   1  24
HETATM   24  C17 UNL     1      17.377  20.239  12.122  1.00  0.00     0.033 C 
BRANCH  24  25
HETATM   25  C18 UNL     1      15.909  20.401  11.920  1.00  0.00     0.004 C 
BRANCH  25  26
HETATM   26  C19 UNL     1      15.560  21.797  11.469  1.00  0.00     0.027 C 
BRANCH  26  27
HETATM   27  C20 UNL     1      15.487  21.954   9.974  1.00  0.00     0.229 C 
BRANCH  27  28
HETATM   28  N3  UNL     1      14.161  21.624   9.469  1.00  0.00    -0.079 N 
ATOM     29  H33 UNL     1      13.904  20.663   9.695  1.00  0.00     0.274 HD
ATOM     30  H32 UNL     1      13.431  22.109   9.989  1.00  0.00     0.274 HD
ATOM     31  H31 UNL     1      14.090  21.804   8.467  1.00  0.00     0.274 HD
ENDBRANCH  27  28
ENDBRANCH  26  27
ENDBRANCH  25  26
ENDBRANCH  24  25
ENDBRANCH   1  24
BRANCH   1  32
HETATM   32  C21 UNL     1      18.677  19.936  14.190  1.00  0.00     0.094 C 
HETATM   33  N4  UNL     1      19.668  20.610  13.725  1.00  0.00    -0.387 N 
ATOM     34  H42 UNL     1      19.826  20.690  12.720  1.00  0.00     0.157 HD
ATOM     35  H41 UNL     1      20.280  21.052  14.411  1.00  0.00     0.157 HD
BRANCH  32  36
HETATM   36  N5  UNL     1      18.457  19.826  15.583  1.00  0.00    -0.374 N 
ATOM     37  H5  UNL     1      18.531  18.914  16.035  1.00  0.00     0.161 HD
BRANCH  36  38
HETATM   38  C22 UNL     1      18.126  20.995  16.378  1.00  0.00     0.185 C 
BRANCH  38  39
HETATM   39  C23 UNL     1      16.706  21.429  16.254  1.00  0.00     0.374 C 
BRANCH  39  40
HETATM   40  O3  UNL     1      15.915  20.266  16.297  1.00  0.00    -0.366 OA
ATOM     41  H3  UNL     1      15.110  20.461  15.830  1.00  0.00     0.212 HD
ENDBRANCH  39  40
BRANCH  39  42
HETATM   42  N6  UNL     1      16.369  22.152  15.072  1.00  0.00     0.118 N 
HETATM   43  C24 UNL     1      16.953  23.449  14.951  1.00  0.00     0.276 C 
HETATM   44  C25 UNL     1      15.997  24.435  14.266  1.00  0.00     0.030 C 
HETATM   45  C26 UNL     1      14.812  24.717  15.162  1.00  0.00     0.003 C 
HETATM   46  C27 UNL     1      14.526  23.443  15.933  1.00  0.00     0.030 C 
HETATM   47  C28 UNL     1      14.916  22.287  15.038  1.00  0.00     0.276 C 
ENDBRANCH  39  42
ENDBRANCH  38  39
ENDBRANCH  36  38
ENDBRANCH  32  36
ENDBRANCH   1  32
TORSDOF 19
ENDMDL
MODEL 2
REMARK VINA RESULT: -6.541364282      1.754      3.193
REMARK  19 active torsions:
REMARK  status: ('A' for Active; 'I' for Inactive)
REMARK    1  A    between atoms: C8_8  and  C9_9 
REMARK    2  A    between atoms: C9_9  and  C10_10 
REMARK    3  A    between atoms: C10_10  and  C11_11 
REMARK    4  A    between atoms: C11_11  and  C12_12 
REMARK    5  A    between atoms: C12_12  and  C13_13 
REMARK       I    between atoms: C13_13  and  N1_15 
REMARK    6  A    between atoms: N1_15  and  C14_17 
REMARK    7  A    between atoms: C14_17  and  C15_18 
REMARK       I    between atoms: C15_18  and  N2_20 
REMARK    8  A    between atoms: N2_20  and  C16_22 
REMARK    9  A    between atoms: C16_22  and  C17_23 
REMARK   10  A    between atoms: C16_22  and  C21_31 
REMARK   11  A    between atoms: C17_23  and  C18_24 
REMARK   12  A    between atoms: C18_24  and  C19_25 
REMARK   13  A    between atoms: C19_25  and  C20_26 
REMARK   14  A    between atoms: C20_26  and  N3_27 
REMARK   15  A    between atoms: C21_31  and  N5_35 
REMARK   16  A    between atoms: N5_35  and  C22_37 
REMARK   17  A    between atoms: C22_37  and  C23_38 
REMARK   18  A    between atoms: C23_38  and  O3_39 
REMARK   19  A    between atoms: C23_38  and  N6_41 
ROOT
HETATM    1  C16 UNL     1      17.269  20.896  14.483  1.00  0.00     0.151 C 
ENDROOT
BRANCH   1   2
HETATM    2  N2  UNL     1      16.566  19.662  14.132  1.00  0.00    -0.348 N 
HETATM    3  C15 UNL     1      17.241  18.432  14.211  1.00  0.00     0.235 C 
HETATM    4  O2  UNL     1      18.461  18.433  14.597  1.00  0.00    -0.272 OA
ATOM      5  H2  UNL     1      15.591  19.693  13.831  1.00  0.00     0.163 HD
BRANCH   3   6
HETATM    6  C14 UNL     1      16.666  17.131  13.900  1.00  0.00     0.225 C 
BRANCH   6   7
HETATM    7  N1  UNL     1      16.269  16.904  12.544  1.00  0.00    -0.352 N 
HETATM    8  C13 UNL     1      15.195  15.965  12.302  1.00  0.00     0.217 C 
HETATM    9  O1  UNL     1      14.655  15.392  13.280  1.00  0.00    -0.274 OA
ATOM     10  H1  UNL     1      16.728  17.389  11.772  1.00  0.00     0.162 HD
BRANCH   8  11
HETATM   11  C12 UNL     1      14.820  15.770  10.901  1.00  0.00     0.103 C 
BRANCH  11  12
HETATM   12  C11 UNL     1      13.777  16.681  10.367  1.00  0.00     0.009 C 
BRANCH  12  13
HETATM   13  C10 UNL     1      13.009  17.511  11.307  1.00  0.00     0.001 C 
BRANCH  13  14
HETATM   14  C9  UNL     1      11.586  17.224  11.537  1.00  0.00     0.005 C 
BRANCH  14  15
HETATM   15  C8  UNL     1      10.640  17.934  10.690  1.00  0.00    -0.009 C 
HETATM   16  C7  UNL     1      10.832  19.261  10.141  1.00  0.00    -0.002 C 
HETATM   17  C2  UNL     1      10.591  19.047   8.606  1.00  0.00    -0.040 C 
HETATM   18  C6  UNL     1       9.512  20.041  10.366  1.00  0.00     0.006 C 
HETATM   19  C1  UNL     1      11.732  18.441   7.913  1.00  0.00     0.015 C 
HETATM   20  C3  UNL     1      10.262  20.372   7.955  1.00  0.00     0.015 C 
HETATM   21  C4  UNL     1       9.361  18.186   8.776  1.00  0.00    -0.006 C 
HETATM   22  C5  UNL     1       8.535  19.072   9.693  1.00  0.00     0.006 C 
HETATM   23  C29 UNL     1       9.936  17.074   9.623  1.00  0.00     0.010 C 
ENDBRANCH  14  15
ENDBRANCH  13  14
ENDBRANCH  12  13
ENDBRANCH  11  12
ENDBRANCH   8  11
ENDBRANCH   6   7
ENDBRANCH   3   6
ENDBRANCH   1   2
BRANCH   1  24
HETATM   24  C17 UNL     1      16.996  22.047  13.605  1.00  0.00     0.033 C 
BRANCH  24  25
HETATM   25  C18 UNL     1      15.896  21.851  12.619  1.00  0.00     0.004 C 
BRANCH  25  26
HETATM   26  C19 UNL     1      16.323  22.226  11.223  1.00  0.00     0.027 C 
BRANCH  26  27
HETATM   27  C20 UNL     1      15.242  22.064  10.189  1.00  0.00     0.229 C 
BRANCH  27  28
HETATM   28  N3  UNL     1      15.782  22.154   8.839  1.00  0.00    -0.079 N 
ATOM     29  H33 UNL     1      16.642  22.702   8.815  1.00  0.00     0.274 HD
ATOM     30  H32 UNL     1      16.156  21.259   8.525  1.00  0.00     0.274 HD
ATOM     31  H31 UNL     1      15.088  22.519   8.185  1.00  0.00     0.274 HD
ENDBRANCH  27  28
ENDBRANCH  26  27
ENDBRANCH  25  26
ENDBRANCH  24  25
ENDBRANCH   1  24
BRANCH   1  32
HETATM   32  C21 UNL     1      16.947  21.231  15.927  1.00  0.00     0.094 C 
HETATM   33  N4  UNL     1      17.857  20.963  16.795  1.00  0.00    -0.387 N 
ATOM     34  H42 UNL     1      18.744  20.543  16.516  1.00  0.00     0.157 HD
ATOM     35  H41 UNL     1      17.640  21.188  17.766  1.00  0.00     0.157 HD
BRANCH  32  36
HETATM   36  N5  UNL     1      15.717  21.813  16.313  1.00  0.00    -0.374 N 
ATOM     37  H5  UNL     1      15.487  22.758  16.003  1.00  0.00     0.161 HD
BRANCH  36  38
HETATM   38  C22 UNL     1      14.778  21.082  17.144  1.00  0.00     0.185 C 
BRANCH  38  39
HETATM   39  C23 UNL     1      13.783  20.282  16.376  1.00  0.00     0.374 C 
BRANCH  39  40
HETATM   40  O3  UNL     1      14.331  18.997  16.207  1.00  0.00    -0.366 OA
ATOM     41  H3  UNL     1      13.717  18.502  15.678  1.00  0.00     0.212 HD
ENDBRANCH  39  40
BRANCH  39  42
HETATM   42  N6  UNL     1      13.427  20.785  15.091  1.00  0.00     0.118 N 
HETATM   43  C24 UNL     1      12.315  21.679  15.060  1.00  0.00     0.276 C 
HETATM   44  C25 UNL     1      11.480  21.497  13.786  1.00  0.00     0.030 C 
HETATM   45  C26 UNL     1      10.790  20.151  13.804  1.00  0.00     0.003 C 
HETATM   46  C27 UNL     1      11.716  19.188  14.522  1.00  0.00     0.030 C 
HETATM   47  C28 UNL     1      13.131  19.639  14.236  1.00  0.00     0.276 C 
ENDBRANCH  39  42
ENDBRANCH  38  39
ENDBRANCH  36  38
ENDBRANCH  32  36
ENDBRANCH   1  32
TORSDOF 19
ENDMDL
MODEL 3
REMARK VINA RESULT: -6.417252225      1.941      4.317
REMARK  19 active torsions:
REMARK  status: ('A' for Active; 'I' for Inactive)
REMARK    1  A    between atoms: C8_8  and  C9_9 
REMARK    2  A    between atoms: C9_9  and  C10_10 
REMARK    3  A    between atoms: C10_10  and  C11_11 
REMARK    4  A    between atoms: C11_11  and  C12_12 
REMARK    5  A    between atoms: C12_12  and  C13_13 
REMARK       I    between atoms: C13_13  and  N1_15 
REMARK    6  A    between atoms: N1_15  and  C14_17 
REMARK    7  A    between atoms: C14_17  and  C15_18 
REMARK       I    between atoms: C15_18  and  N2_20 
REMARK    8  A    between atoms: N2_20  and  C16_22 
REMARK    9  A    between atoms: C16_22  and  C17_23 
REMARK   10  A    between atoms: C16_22  and  C21_31 
REMARK   11  A    between atoms: C17_23  and  C18_24 
REMARK   12  A    between atoms: C18_24  and  C19_25 
REMARK   13  A    between atoms: C19_25  and  C20_26 
REMARK   14  A    between atoms: C20_26  and  N3_27 
REMARK   15  A    between atoms: C21_31  and  N5_35 
REMARK   16  A    between atoms: N5_35  and  C22_37 
REMARK   17  A    between atoms: C22_37  and  C23_38 
REMARK   18  A    between atoms: C23_38  and  O3_39 
REMARK   19  A    between atoms: C23_38  and  N6_41 
ROOT
HETATM    1  C16 UNL     1      16.908  22.111  14.900  1.00  0.00     0.151 C 
ENDROOT
BRANCH   1   2
HETATM    2  N2  UNL     1      15.538  22.151  15.413  1.00  0.00    -0.348 N 
HETATM    3  C15 UNL     1      14.462  22.221  14.513  1.00  0.00     0.235 C 
HETATM    4  O2  UNL     1      14.720  22.244  13.259  1.00  0.00    -0.272 OA
ATOM      5  H2  UNL     1      15.365  22.127  16.419  1.00  0.00     0.163 HD
BRANCH   3   6
HETATM    6  C14 UNL     1      13.054  22.260  14.880  1.00  0.00     0.225 C 
BRANCH   6   7
HETATM    7  N1  UNL     1      12.150  21.503  14.069  1.00  0.00    -0.352 N 
HETATM    8  C13 UNL     1      11.819  20.161  14.497  1.00  0.00     0.217 C 
HETATM    9  O1  UNL     1      12.329  19.716  15.555  1.00  0.00    -0.274 OA
ATOM     10  H1  UNL     1      11.751  21.897  13.216  1.00  0.00     0.162 HD
BRANCH   8  11
HETATM   11  C12 UNL     1      10.887  19.428  13.640  1.00  0.00     0.103 C 
BRANCH  11  12
HETATM   12  C11 UNL     1       9.551  20.044  13.444  1.00  0.00     0.009 C 
BRANCH  12  13
HETATM   13  C10 UNL     1       9.060  20.257  12.074  1.00  0.00     0.001 C 
BRANCH  13  14
HETATM   14  C9  UNL     1       9.998  20.673  11.021  1.00  0.00     0.005 C 
BRANCH  14  15
HETATM   15  C8  UNL     1      10.264  19.701   9.972  1.00  0.00    -0.009 C 
HETATM   16  C7  UNL     1      11.546  19.080   9.705  1.00  0.00    -0.002 C 
HETATM   17  C2  UNL     1      11.209  17.548   9.728  1.00  0.00    -0.040 C 
HETATM   18  C6  UNL     1      11.766  19.135   8.172  1.00  0.00     0.006 C 
HETATM   19  C1  UNL     1      11.067  17.001  11.080  1.00  0.00     0.015 C 
HETATM   20  C3  UNL     1      12.286  16.782   8.993  1.00  0.00     0.015 C 
HETATM   21  C4  UNL     1       9.947  17.670   8.905  1.00  0.00    -0.006 C 
HETATM   22  C5  UNL     1      10.476  18.448   7.713  1.00  0.00     0.006 C 
HETATM   23  C29 UNL     1       9.168  18.638   9.765  1.00  0.00     0.010 C 
ENDBRANCH  14  15
ENDBRANCH  13  14
ENDBRANCH  12  13
ENDBRANCH  11  12
ENDBRANCH   8  11
ENDBRANCH   6   7
ENDBRANCH   3   6
ENDBRANCH   1   2
BRANCH   1  24
HETATM   24  C17 UNL     1      17.616  23.404  14.896  1.00  0.00     0.033 C 
BRANCH  24  25
HETATM   25  C18 UNL     1      18.105  23.859  13.564  1.00  0.00     0.004 C 
BRANCH  25  26
HETATM   26  C19 UNL     1      18.475  22.695  12.679  1.00  0.00     0.027 C 
BRANCH  26  27
HETATM   27  C20 UNL     1      19.942  22.360  12.694  1.00  0.00     0.229 C 
BRANCH  27  28
HETATM   28  N3  UNL     1      20.168  20.983  13.113  1.00  0.00    -0.079 N 
ATOM     29  H33 UNL     1      19.411  20.644  13.707  1.00  0.00     0.274 HD
ATOM     30  H32 UNL     1      20.059  20.333  12.334  1.00  0.00     0.274 HD
ATOM     31  H31 UNL     1      21.076  20.876  13.565  1.00  0.00     0.274 HD
ENDBRANCH  27  28
ENDBRANCH  26  27
ENDBRANCH  25  26
ENDBRANCH  24  25
ENDBRANCH   1  24
BRANCH   1  32
HETATM   32  C21 UNL     1      17.682  21.076  15.693  1.00  0.00     0.094 C 
HETATM   33  N4  UNL     1      18.486  21.524  16.591  1.00  0.00    -0.387 N 
ATOM     34  H42 UNL     1      18.593  22.526  16.750  1.00  0.00     0.157 HD
ATOM     35  H41 UNL     1      19.007  20.828  17.124  1.00  0.00     0.157 HD
BRANCH  32  36
HETATM   36  N5  UNL     1      17.534  19.686  15.473  1.00  0.00    -0.374 N 
ATOM     37  H5  UNL     1      17.826  19.027  16.195  1.00  0.00     0.161 HD
BRANCH  36  38
HETATM   38  C22 UNL     1      16.972  19.187  14.231  1.00  0.00     0.185 C 
BRANCH  38  39
HETATM   39  C23 UNL     1      15.550  18.755  14.341  1.00  0.00     0.374 C 
BRANCH  39  40
HETATM   40  O3  UNL     1      15.114  19.100  15.634  1.00  0.00    -0.366 OA
ATOM     41  H3  UNL     1      14.332  18.589  15.808  1.00  0.00     0.212 HD
ENDBRANCH  39  40
BRANCH  39  42
HETATM   42  N6  UNL     1      15.297  17.366  14.143  1.00  0.00     0.118 N 
HETATM   43  C24 UNL     1      16.363  16.619  13.558  1.00  0.00     0.276 C 
HETATM   44  C25 UNL     1      15.835  15.520  12.626  1.00  0.00     0.030 C 
HETATM   45  C26 UNL     1      15.191  16.139  11.406  1.00  0.00     0.003 C 
HETATM   46  C27 UNL     1      14.556  17.441  11.852  1.00  0.00     0.030 C 
HETATM   47  C28 UNL     1      14.119  17.251  13.288  1.00  0.00     0.276 C 
ENDBRANCH  39  42
ENDBRANCH  38  39
ENDBRANCH  36  38
ENDBRANCH  32  36
ENDBRANCH   1  32
TORSDOF 19
ENDMDL
MODEL 4
REMARK VINA RESULT: -6.354405769      2.217      5.360
REMARK  19 active torsions:
REMARK  status: ('A' for Active; 'I' for Inactive)
REMARK    1  A    between atoms: C8_8  and  C9_9 
REMARK    2  A    between atoms: C9_9  and  C10_10 
REMARK    3  A    between atoms: C10_10  and  C11_11 
REMARK    4  A    between atoms: C11_11  and  C12_12 
REMARK    5  A    between atoms: C12_12  and  C13_13 
REMARK       I    between atoms: C13_13  and  N1_15 
REMARK    6  A    between atoms: N1_15  and  C14_17 
REMARK    7  A    between atoms: C14_17  and  C15_18 
REMARK       I    between atoms: C15_18  and  N2_20 
REMARK    8  A    between atoms: N2_20  and  C16_22 
REMARK    9  A    between atoms: C16_22  and  C17_23 
REMARK   10  A    between atoms: C16_22  and  C21_31 
REMARK   11  A    between atoms: C17_23  and  C18_24 
REMARK   12  A    between atoms: C18_24  and  C19_25 
REMARK   13  A    between atoms: C19_25  and  C20_26 
REMARK   14  A    between atoms: C20_26  and  N3_27 
REMARK   15  A    between atoms: C21_31  and  N5_35 
REMARK   16  A    between atoms: N5_35  and  C22_37 
REMARK   17  A    between atoms: C22_37  and  C23_38 
REMARK   18  A    between atoms: C23_38  and  O3_39 
REMARK   19  A    between atoms: C23_38  and  N6_41 
ROOT
HETATM    1  C16 UNL     1      13.224  17.420  11.731  1.00  0.00     0.151 C 
ENDROOT
BRANCH   1   2
HETATM    2  N2  UNL     1      13.349  18.239  12.937  1.00  0.00    -0.348 N 
HETATM    3  C15 UNL     1      12.387  18.125  13.955  1.00  0.00     0.235 C 
HETATM    4  O2  UNL     1      11.425  17.297  13.792  1.00  0.00    -0.272 OA
ATOM      5  H2  UNL     1      14.130  18.888  13.040  1.00  0.00     0.163 HD
BRANCH   3   6
HETATM    6  C14 UNL     1      12.389  18.870  15.207  1.00  0.00     0.225 C 
BRANCH   6   7
HETATM    7  N1  UNL     1      13.589  19.574  15.542  1.00  0.00    -0.352 N 
HETATM    8  C13 UNL     1      13.460  20.853  16.205  1.00  0.00     0.217 C 
HETATM    9  O1  UNL     1      12.311  21.292  16.462  1.00  0.00    -0.274 OA
ATOM     10  H1  UNL     1      14.507  19.186  15.320  1.00  0.00     0.162 HD
BRANCH   8  11
HETATM   11  C12 UNL     1      14.713  21.533  16.532  1.00  0.00     0.103 C 
BRANCH  11  12
HETATM   12  C11 UNL     1      14.832  22.942  16.083  1.00  0.00     0.009 C 
BRANCH  12  13
HETATM   13  C10 UNL     1      15.962  23.320  15.221  1.00  0.00     0.001 C 
BRANCH  13  14
HETATM   14  C9  UNL     1      15.790  23.339  13.761  1.00  0.00     0.005 C 
BRANCH  14  15
HETATM   15  C8  UNL     1      14.486  22.935  13.260  1.00  0.00    -0.009 C 
HETATM   16  C7  UNL     1      13.515  23.812  12.635  1.00  0.00    -0.002 C 
HETATM   17  C2  UNL     1      13.207  23.087  11.278  1.00  0.00    -0.040 C 
HETATM   18  C6  UNL     1      12.138  23.487  13.265  1.00  0.00     0.006 C 
HETATM   19  C1  UNL     1      14.245  23.280  10.262  1.00  0.00     0.015 C 
HETATM   20  C3  UNL     1      11.882  23.575  10.733  1.00  0.00     0.015 C 
HETATM   21  C4  UNL     1      13.089  21.706  11.881  1.00  0.00    -0.006 C 
HETATM   22  C5  UNL     1      12.091  21.980  12.992  1.00  0.00     0.006 C 
HETATM   23  C29 UNL     1      14.453  21.584  12.521  1.00  0.00     0.010 C 
ENDBRANCH  14  15
ENDBRANCH  13  14
ENDBRANCH  12  13
ENDBRANCH  11  12
ENDBRANCH   8  11
ENDBRANCH   6   7
ENDBRANCH   3   6
ENDBRANCH   1   2
BRANCH   1  24
HETATM   24  C17 UNL     1      13.038  18.172  10.477  1.00  0.00     0.033 C 
BRANCH  24  25
HETATM   25  C18 UNL     1      11.667  18.713  10.256  1.00  0.00     0.004 C 
BRANCH  25  26
HETATM   26  C19 UNL     1      10.613  17.649  10.427  1.00  0.00     0.027 C 
BRANCH  26  27
HETATM   27  C20 UNL     1       9.926  17.259   9.146  1.00  0.00     0.229 C 
BRANCH  27  28
HETATM   28  N3  UNL     1       9.174  18.374   8.586  1.00  0.00    -0.079 N 
ATOM     29  H33 UNL     1       9.700  19.246   8.642  1.00  0.00     0.274 HD
ATOM     30  H32 UNL     1       9.097  18.301   7.572  1.00  0.00     0.274 HD
ATOM     31  H31 UNL     1       8.257  18.462   9.025  1.00  0.00     0.274 HD
ENDBRANCH  27  28
ENDBRANCH  26  27
ENDBRANCH  25  26
ENDBRANCH  24  25
ENDBRANCH   1  24
BRANCH   1  32
HETATM   32  C21 UNL     1      14.439  16.517  11.642  1.00  0.00     0.094 C 
HETATM   33  N4  UNL     1      14.783  16.131  10.465  1.00  0.00    -0.387 N 
ATOM     34  H42 UNL     1      14.256  16.420   9.641  1.00  0.00     0.157 HD
ATOM     35  H41 UNL     1      15.600  15.523  10.405  1.00  0.00     0.157 HD
BRANCH  32  36
HETATM   36  N5  UNL     1      15.170  16.117  12.786  1.00  0.00    -0.374 N 
ATOM     37  H5  UNL     1      14.731  15.507  13.476  1.00  0.00     0.161 HD
BRANCH  36  38
HETATM   38  C22 UNL     1      16.536  16.563  12.988  1.00  0.00     0.185 C 
BRANCH  38  39
HETATM   39  C23 UNL     1      16.683  17.605  14.043  1.00  0.00     0.374 C 
BRANCH  39  40
HETATM   40  O3  UNL     1      15.634  17.411  14.962  1.00  0.00    -0.366 OA
ATOM     41  H3  UNL     1      14.898  17.928  14.655  1.00  0.00     0.212 HD
ENDBRANCH  39  40
BRANCH  39  42
HETATM   42  N6  UNL     1      16.640  18.960  13.600  1.00  0.00     0.118 N 
HETATM   43  C24 UNL     1      17.352  19.241  12.396  1.00  0.00     0.276 C 
HETATM   44  C25 UNL     1      17.993  20.635  12.433  1.00  0.00     0.030 C 
HETATM   45  C26 UNL     1      19.103  20.669  13.459  1.00  0.00     0.003 C 
HETATM   46  C27 UNL     1      18.693  19.743  14.587  1.00  0.00     0.030 C 
HETATM   47  C28 UNL     1      17.183  19.790  14.672  1.00  0.00     0.276 C 
ENDBRANCH  39  42
ENDBRANCH  38  39
ENDBRANCH  36  38
ENDBRANCH  32  36
ENDBRANCH   1  32
TORSDOF 19
ENDMDL
MODEL 5
REMARK VINA RESULT: -6.214316830      1.948      3.743
REMARK  19 active torsions:
REMARK  status: ('A' for Active; 'I' for Inactive)
REMARK    1  A    between atoms: C8_8  and  C9_9 
REMARK    2  A    between atoms: C9_9  and  C10_10 
REMARK    3  A    between atoms: C10_10  and  C11_11 
REMARK    4  A    between atoms: C11_11  and  C12_12 
REMARK    5  A    between atoms: C12_12  and  C13_13 
REMARK       I    between atoms: C13_13  and  N1_15 
REMARK    6  A    between atoms: N1_15  and  C14_17 
REMARK    7  A    between atoms: C14_17  and  C15_18 
REMARK       I    between atoms: C15_18  and  N2_20 
REMARK    8  A    between atoms: N2_20  and  C16_22 
REMARK    9  A    between atoms: C16_22  and  C17_23 
REMARK   10  A    between atoms: C16_22  and  C21_31 
REMARK   11  A    between atoms: C17_23  and  C18_24 
REMARK   12  A    between atoms: C18_24  and  C19_25 
REMARK   13  A    between atoms: C19_25  and  C20_26 
REMARK   14  A    between atoms: C20_26  and  N3_27 
REMARK   15  A    between atoms: C21_31  and  N5_35 
REMARK   16  A    between atoms: N5_35  and  C22_37 
REMARK   17  A    between atoms: C22_37  and  C23_38 
REMARK   18  A    between atoms: C23_38  and  O3_39 
REMARK   19  A    between atoms: C23_38  and  N6_41 
ROOT
HETATM    1  C16 UNL     1      17.821  21.119  14.340  1.00  0.00     0.151 C 
ENDROOT
BRANCH   1   2
HETATM    2  N2  UNL     1      16.933  20.002  14.018  1.00  0.00    -0.348 N 
HETATM    3  C15 UNL     1      17.370  18.684  14.233  1.00  0.00     0.235 C 
HETATM    4  O2  UNL     1      18.543  18.504  14.713  1.00  0.00    -0.272 OA
ATOM      5  H2  UNL     1      16.001  20.178  13.640  1.00  0.00     0.163 HD
BRANCH   3   6
HETATM    6  C14 UNL     1      16.593  17.482  13.966  1.00  0.00     0.225 C 
BRANCH   6   7
HETATM    7  N1  UNL     1      15.865  17.439  12.735  1.00  0.00    -0.352 N 
HETATM    8  C13 UNL     1      15.647  16.146  12.123  1.00  0.00     0.217 C 
HETATM    9  O1  UNL     1      16.097  15.120  12.691  1.00  0.00    -0.274 OA
ATOM     10  H1  UNL     1      15.511  18.293  12.302  1.00  0.00     0.162 HD
BRANCH   8  11
HETATM   11  C12 UNL     1      14.893  16.152  10.869  1.00  0.00     0.103 C 
BRANCH  11  12
HETATM   12  C11 UNL     1      13.881  17.226  10.715  1.00  0.00     0.009 C 
BRANCH  12  13
HETATM   13  C10 UNL     1      12.648  16.939   9.966  1.00  0.00     0.001 C 
BRANCH  13  14
HETATM   14  C9  UNL     1      11.344  17.278  10.553  1.00  0.00     0.005 C 
BRANCH  14  15
HETATM   15  C8  UNL     1      10.978  18.686  10.543  1.00  0.00    -0.009 C 
HETATM   16  C7  UNL     1      10.811  19.504   9.359  1.00  0.00    -0.002 C 
HETATM   17  C2  UNL     1       9.376  20.109   9.546  1.00  0.00    -0.040 C 
HETATM   18  C6  UNL     1      11.546  20.843   9.625  1.00  0.00     0.006 C 
HETATM   19  C1  UNL     1       8.298  19.171   9.222  1.00  0.00     0.015 C 
HETATM   20  C3  UNL     1       9.232  21.347   8.689  1.00  0.00     0.015 C 
HETATM   21  C4  UNL     1       9.561  20.459  11.006  1.00  0.00    -0.006 C 
HETATM   22  C5  UNL     1      10.858  21.246  10.933  1.00  0.00     0.006 C 
HETATM   23  C29 UNL     1       9.894  19.092  11.560  1.00  0.00     0.010 C 
ENDBRANCH  14  15
ENDBRANCH  13  14
ENDBRANCH  12  13
ENDBRANCH  11  12
ENDBRANCH   8  11
ENDBRANCH   6   7
ENDBRANCH   3   6
ENDBRANCH   1   2
BRANCH   1  24
HETATM   24  C17 UNL     1      17.728  22.278  13.433  1.00  0.00     0.033 C 
BRANCH  24  25
HETATM   25  C18 UNL     1      16.835  22.095  12.254  1.00  0.00     0.004 C 
BRANCH  25  26
HETATM   26  C19 UNL     1      15.575  22.913  12.376  1.00  0.00     0.027 C 
BRANCH  26  27
HETATM   27  C20 UNL     1      15.736  24.162  13.200  1.00  0.00     0.229 C 
BRANCH  27  28
HETATM   28  N3  UNL     1      14.451  24.799  13.457  1.00  0.00    -0.079 N 
ATOM     29  H33 UNL     1      14.566  25.763  13.769  1.00  0.00     0.274 HD
ATOM     30  H32 UNL     1      13.940  24.973  12.591  1.00  0.00     0.274 HD
ATOM     31  H31 UNL     1      13.893  24.256  14.116  1.00  0.00     0.274 HD
ENDBRANCH  27  28
ENDBRANCH  26  27
ENDBRANCH  25  26
ENDBRANCH  24  25
ENDBRANCH   1  24
BRANCH   1  32
HETATM   32  C21 UNL     1      17.561  21.535  15.774  1.00  0.00     0.094 C 
HETATM   33  N4  UNL     1      18.465  21.226  16.635  1.00  0.00    -0.387 N 
ATOM     34  H42 UNL     1      19.308  20.724  16.356  1.00  0.00     0.157 HD
ATOM     35  H41 UNL     1      18.289  21.505  17.600  1.00  0.00     0.157 HD
BRANCH  32  36
HETATM   36  N5  UNL     1      16.392  22.232  16.161  1.00  0.00    -0.374 N 
ATOM     37  H5  UNL     1      16.396  23.252  16.179  1.00  0.00     0.161 HD
BRANCH  36  38
HETATM   38  C22 UNL     1      15.187  21.513  16.532  1.00  0.00     0.185 C 
BRANCH  38  39
HETATM   39  C23 UNL     1      14.065  21.668  15.563  1.00  0.00     0.374 C 
BRANCH  39  40
HETATM   40  O3  UNL     1      13.552  22.967  15.735  1.00  0.00    -0.366 OA
ATOM     41  H3  UNL     1      13.285  23.042  16.643  1.00  0.00     0.212 HD
ENDBRANCH  39  40
BRANCH  39  42
HETATM   42  N6  UNL     1      12.988  20.744  15.692  1.00  0.00     0.118 N 
HETATM   43  C24 UNL     1      13.351  19.420  16.082  1.00  0.00     0.276 C 
HETATM   44  C25 UNL     1      12.459  18.370  15.405  1.00  0.00     0.030 C 
HETATM   45  C26 UNL     1      12.733  18.336  13.918  1.00  0.00     0.003 C 
HETATM   46  C27 UNL     1      13.080  19.751  13.499  1.00  0.00     0.030 C 
HETATM   47  C28 UNL     1      12.304  20.683  14.403  1.00  0.00     0.276 C 
ENDBRANCH  39  42
ENDBRANCH  38  39
ENDBRANCH  36  38
ENDBRANCH  32  36
ENDBRANCH   1  32
TORSDOF 19
ENDMDL
