MODEL 1
REMARK VINA RESULT: -7.125160206      0.000      0.000
REMARK  19 active torsions:
REMARK  status: ('A' for Active; 'I' for Inactive)
REMARK    1  A    between atoms: C2_2  and  C3_3 
REMARK    2  A    between atoms: C3_3  and  C5_5 
REMARK    3  A    between atoms: C5_5  and  C6_6 
REMARK    4  A    between atoms: C5_5  and  N1_10 
REMARK    5  A    between atoms: C6_6  and  C7_7 
REMARK       I    between atoms: N1_10  and  C10_12 
REMARK    6  A    between atoms: C10_12  and  C11_14 
REMARK    7  A    between atoms: C11_14  and  N2_16 
REMARK       I    between atoms: N2_16  and  C13_18 
REMARK    8  A    between atoms: C13_18  and  C14_20 
REMARK    9  A    between atoms: C14_20  and  N3_21 
REMARK   10  A    between atoms: C14_20  and  C29_48 
REMARK       I    between atoms: N3_21  and  C15_23 
REMARK   11  A    between atoms: C15_23  and  C16_25 
REMARK   12  A    between atoms: C16_25  and  C17_26 
REMARK   13  A    between atoms: C16_25  and  N4_30 
REMARK   14  A    between atoms: C17_26  and  C18_27 
REMARK       I    between atoms: N4_30  and  C21_32 
REMARK   15  A    between atoms: C21_32  and  C22_34 
REMARK   16  A    between atoms: C22_34  and  N5_35 
REMARK   17  A    between atoms: C22_34  and  C26_45 
REMARK       I    between atoms: N5_35  and  C23_37 
REMARK   18  A    between atoms: C23_37  and  C24_39 
REMARK   19  A    between atoms: C24_39  and  N6_41 
ROOT
HETATM    1  N3  UNL     1       8.192  19.884  14.835  1.00  0.00    -0.346 N 
ATOM      2  H3  UNL     1       8.630  19.688  15.735  1.00  0.00     0.163 HD
HETATM    3  C15 UNL     1       9.046  19.955  13.713  1.00  0.00     0.241 C 
HETATM    4  O3  UNL     1       8.608  20.142  12.587  1.00  0.00    -0.271 OA
ENDROOT
BRANCH   1   5
HETATM    5  C14 UNL     1       6.769  20.060  14.835  1.00  0.00     0.180 C 
BRANCH   5   6
HETATM    6  C13 UNL     1       6.168  19.500  16.055  1.00  0.00     0.241 C 
HETATM    7  N2  UNL     1       4.826  19.095  16.228  1.00  0.00    -0.346 N 
ATOM      8  H2  UNL     1       4.157  19.214  15.467  1.00  0.00     0.163 HD
HETATM    9  O2  UNL     1       6.925  19.356  17.062  1.00  0.00    -0.271 OA
BRANCH   7  10
HETATM   10  C11 UNL     1       4.391  18.505  17.497  1.00  0.00     0.172 C 
HETATM   11  C12 UNL     1       3.269  19.359  18.089  1.00  0.00     0.042 C 
BRANCH  10  12
HETATM   12  C10 UNL     1       3.921  17.146  17.217  1.00  0.00     0.244 C 
HETATM   13  N1  UNL     1       2.591  16.701  17.377  1.00  0.00    -0.325 N 
ATOM     14  H1  UNL     1       1.890  17.354  17.726  1.00  0.00     0.169 HD
HETATM   15  O1  UNL     1       4.789  16.306  16.796  1.00  0.00    -0.271 OA
BRANCH  13  16
HETATM   16  C5  UNL     1       2.181  15.309  17.052  1.00  0.00     0.033 C 
BRANCH  16  17
HETATM   17  C3  UNL     1       1.473  15.232  15.791  1.00  0.00    -0.058 C 
HETATM   18  C4  UNL     1       1.124  16.539  15.097  1.00  0.00     0.046 C 
BRANCH  17  19
HETATM   19  C2  UNL     1       1.677  14.168  14.791  1.00  0.00     0.031 C 
HETATM   20  C1  UNL     1       0.430  13.546  14.214  1.00  0.00     0.010 C 
ENDBRANCH  17  19
ENDBRANCH  16  17
BRANCH  16  21
HETATM   21  C6  UNL     1       1.857  14.569  18.268  1.00  0.00     0.007 C 
BRANCH  21  22
HETATM   22  C7  UNL     1       2.652  14.630  19.500  1.00  0.00     0.002 C 
HETATM   23  C8  UNL     1       2.853  13.261  20.171  1.00  0.00     0.013 C 
HETATM   24  C9  UNL     1       1.703  15.345  20.538  1.00  0.00     0.013 C 
ENDBRANCH  21  22
ENDBRANCH  16  21
ENDBRANCH  13  16
ENDBRANCH  10  12
ENDBRANCH   7  10
ENDBRANCH   5   6
BRANCH   5  25
HETATM   25  C29 UNL     1       6.281  21.390  14.401  1.00  0.00     0.009 C 
HETATM   26  C30 UNL     1       6.003  22.330  15.549  1.00  0.00     0.012 C 
HETATM   27  C31 UNL     1       5.131  21.271  13.442  1.00  0.00     0.012 C 
ENDBRANCH   5  25
ENDBRANCH   1   5
BRANCH   3  28
HETATM   28  C16 UNL     1      10.550  19.797  13.899  1.00  0.00     0.177 C 
BRANCH  28  29
HETATM   29  C17 UNL     1      11.091  21.180  13.834  1.00  0.00     0.038 C 
BRANCH  29  30
HETATM   30  C18 UNL     1      11.087  22.023  15.044  1.00  0.00    -0.020 C 
HETATM   31  C19 UNL     1      12.470  22.418  15.546  1.00  0.00     0.009 C 
HETATM   32  C20 UNL     1      10.144  23.161  15.085  1.00  0.00     0.009 C 
ENDBRANCH  29  30
ENDBRANCH  28  29
BRANCH  28  33
HETATM   33  N4  UNL     1      11.046  18.943  12.816  1.00  0.00    -0.346 N 
HETATM   34  C21 UNL     1      11.494  17.633  13.102  1.00  0.00     0.241 C 
HETATM   35  O4  UNL     1      11.457  17.289  14.345  1.00  0.00    -0.271 OA
ATOM     36  H4  UNL     1      11.068  19.294  11.859  1.00  0.00     0.163 HD
BRANCH  34  37
HETATM   37  C22 UNL     1      11.973  16.644  12.150  1.00  0.00     0.180 C 
BRANCH  37  38
HETATM   38  N5  UNL     1      13.447  16.713  12.033  1.00  0.00    -0.346 N 
HETATM   39  C23 UNL     1      14.311  15.829  12.718  1.00  0.00     0.248 C 
HETATM   40  O5  UNL     1      13.840  14.929  13.467  1.00  0.00    -0.271 OA
ATOM     41  H5  UNL     1      13.856  17.429  11.433  1.00  0.00     0.163 HD
BRANCH  39  42
HETATM   42  C24 UNL     1      15.795  15.928  12.583  1.00  0.00     0.270 C 
HETATM   43  C25 UNL     1      16.252  17.345  12.345  1.00  0.00     0.050 C 
BRANCH  42  44
HETATM   44  N6  UNL     1      16.394  15.500  13.837  1.00  0.00    -0.067 N 
ATOM     45  H63 UNL     1      16.900  16.250  14.308  1.00  0.00     0.275 HD
ATOM     46  H62 UNL     1      15.701  15.324  14.565  1.00  0.00     0.275 HD
ATOM     47  H61 UNL     1      16.981  14.687  13.649  1.00  0.00     0.275 HD
ENDBRANCH  42  44
ENDBRANCH  39  42
ENDBRANCH  37  38
BRANCH  37  48
HETATM   48  C26 UNL     1      11.408  16.659  10.780  1.00  0.00     0.009 C 
HETATM   49  C27 UNL     1      10.124  17.424  10.611  1.00  0.00     0.012 C 
HETATM   50  C28 UNL     1      12.448  17.246   9.809  1.00  0.00     0.012 C 
ENDBRANCH  37  48
ENDBRANCH  34  37
ENDBRANCH  28  33
ENDBRANCH   3  28
TORSDOF 19
ENDMDL
MODEL 2
REMARK VINA RESULT: -6.807074916      0.784      2.139
REMARK  19 active torsions:
REMARK  status: ('A' for Active; 'I' for Inactive)
REMARK    1  A    between atoms: C2_2  and  C3_3 
REMARK    2  A    between atoms: C3_3  and  C5_5 
REMARK    3  A    between atoms: C5_5  and  C6_6 
REMARK    4  A    between atoms: C5_5  and  N1_10 
REMARK    5  A    between atoms: C6_6  and  C7_7 
REMARK       I    between atoms: N1_10  and  C10_12 
REMARK    6  A    between atoms: C10_12  and  C11_14 
REMARK    7  A    between atoms: C11_14  and  N2_16 
REMARK       I    between atoms: N2_16  and  C13_18 
REMARK    8  A    between atoms: C13_18  and  C14_20 
REMARK    9  A    between atoms: C14_20  and  N3_21 
REMARK   10  A    between atoms: C14_20  and  C29_48 
REMARK       I    between atoms: N3_21  and  C15_23 
REMARK   11  A    between atoms: C15_23  and  C16_25 
REMARK   12  A    between atoms: C16_25  and  C17_26 
REMARK   13  A    between atoms: C16_25  and  N4_30 
REMARK   14  A    between atoms: C17_26  and  C18_27 
REMARK       I    between atoms: N4_30  and  C21_32 
REMARK   15  A    between atoms: C21_32  and  C22_34 
REMARK   16  A    between atoms: C22_34  and  N5_35 
REMARK   17  A    between atoms: C22_34  and  C26_45 
REMARK       I    between atoms: N5_35  and  C23_37 
REMARK   18  A    between atoms: C23_37  and  C24_39 
REMARK   19  A    between atoms: C24_39  and  N6_41 
ROOT
HETATM    1  N3  UNL     1       8.176  19.839  14.968  1.00  0.00    -0.346 N 
ATOM      2  H3  UNL     1       8.618  19.608  15.858  1.00  0.00     0.163 HD
HETATM    3  C15 UNL     1       9.028  19.972  13.850  1.00  0.00     0.241 C 
HETATM    4  O3  UNL     1       8.587  20.205  12.734  1.00  0.00    -0.271 OA
ENDROOT
BRANCH   1   5
HETATM    5  C14 UNL     1       6.751  19.996  14.977  1.00  0.00     0.180 C 
BRANCH   5   6
HETATM    6  C13 UNL     1       6.161  19.398  16.184  1.00  0.00     0.241 C 
HETATM    7  N2  UNL     1       4.801  19.081  16.394  1.00  0.00    -0.346 N 
ATOM      8  H2  UNL     1       4.111  19.301  15.676  1.00  0.00     0.163 HD
HETATM    9  O2  UNL     1       6.948  19.129  17.142  1.00  0.00    -0.271 OA
BRANCH   7  10
HETATM   10  C11 UNL     1       4.377  18.438  17.641  1.00  0.00     0.172 C 
HETATM   11  C12 UNL     1       3.893  19.509  18.619  1.00  0.00     0.042 C 
BRANCH  10  12
HETATM   12  C10 UNL     1       3.296  17.504  17.313  1.00  0.00     0.244 C 
HETATM   13  N1  UNL     1       3.247  16.151  17.713  1.00  0.00    -0.325 N 
ATOM     14  H1  UNL     1       4.018  15.769  18.261  1.00  0.00     0.169 HD
HETATM   15  O1  UNL     1       2.328  17.959  16.611  1.00  0.00    -0.271 OA
BRANCH  13  16
HETATM   16  C5  UNL     1       2.105  15.266  17.361  1.00  0.00     0.033 C 
BRANCH  16  17
HETATM   17  C3  UNL     1       1.734  14.396  18.457  1.00  0.00    -0.058 C 
HETATM   18  C4  UNL     1       2.640  14.374  19.678  1.00  0.00     0.046 C 
BRANCH  17  19
HETATM   19  C2  UNL     1       0.343  14.113  18.855  1.00  0.00     0.031 C 
HETATM   20  C1  UNL     1      -0.383  13.066  18.048  1.00  0.00     0.010 C 
ENDBRANCH  17  19
ENDBRANCH  16  17
BRANCH  16  21
HETATM   21  C6  UNL     1       2.153  14.899  15.949  1.00  0.00     0.007 C 
BRANCH  21  22
HETATM   22  C7  UNL     1       0.969  14.800  15.088  1.00  0.00     0.002 C 
HETATM   23  C8  UNL     1       0.920  13.508  14.254  1.00  0.00     0.013 C 
HETATM   24  C9  UNL     1       1.215  15.880  13.965  1.00  0.00     0.013 C 
ENDBRANCH  21  22
ENDBRANCH  16  21
ENDBRANCH  13  16
ENDBRANCH  10  12
ENDBRANCH   7  10
ENDBRANCH   5   6
BRANCH   5  25
HETATM   25  C29 UNL     1       6.244  21.329  14.578  1.00  0.00     0.009 C 
HETATM   26  C30 UNL     1       5.981  22.245  15.749  1.00  0.00     0.012 C 
HETATM   27  C31 UNL     1       5.077  21.219  13.639  1.00  0.00     0.012 C 
ENDBRANCH   5  25
ENDBRANCH   1   5
BRANCH   3  28
HETATM   28  C16 UNL     1      10.535  19.825  14.029  1.00  0.00     0.177 C 
BRANCH  28  29
HETATM   29  C17 UNL     1      11.063  21.214  13.976  1.00  0.00     0.038 C 
BRANCH  29  30
HETATM   30  C18 UNL     1      11.217  21.983  15.224  1.00  0.00    -0.020 C 
HETATM   31  C19 UNL     1      12.609  22.563  15.443  1.00  0.00     0.009 C 
HETATM   32  C20 UNL     1      10.159  22.958  15.565  1.00  0.00     0.009 C 
ENDBRANCH  29  30
ENDBRANCH  28  29
BRANCH  28  33
HETATM   33  N4  UNL     1      11.033  18.987  12.935  1.00  0.00    -0.346 N 
HETATM   34  C21 UNL     1      11.495  17.679  13.205  1.00  0.00     0.241 C 
HETATM   35  O4  UNL     1      11.469  17.323  14.445  1.00  0.00    -0.271 OA
ATOM     36  H4  UNL     1      11.046  19.348  11.981  1.00  0.00     0.163 HD
BRANCH  34  37
HETATM   37  C22 UNL     1      11.979  16.704  12.241  1.00  0.00     0.180 C 
BRANCH  37  38
HETATM   38  N5  UNL     1      13.452  16.786  12.120  1.00  0.00    -0.346 N 
HETATM   39  C23 UNL     1      14.323  15.846  12.718  1.00  0.00     0.248 C 
HETATM   40  O5  UNL     1      13.858  14.881  13.385  1.00  0.00    -0.271 OA
ATOM     41  H5  UNL     1      13.857  17.554  11.584  1.00  0.00     0.163 HD
BRANCH  39  42
HETATM   42  C24 UNL     1      15.805  15.958  12.582  1.00  0.00     0.270 C 
HETATM   43  C25 UNL     1      16.249  17.381  12.351  1.00  0.00     0.050 C 
BRANCH  42  44
HETATM   44  N6  UNL     1      16.410  15.529  13.833  1.00  0.00    -0.067 N 
ATOM     45  H63 UNL     1      15.970  14.693  14.217  1.00  0.00     0.275 HD
ATOM     46  H62 UNL     1      17.347  15.146  13.706  1.00  0.00     0.275 HD
ATOM     47  H61 UNL     1      16.391  16.316  14.482  1.00  0.00     0.275 HD
ENDBRANCH  42  44
ENDBRANCH  39  42
ENDBRANCH  37  38
BRANCH  37  48
HETATM   48  C26 UNL     1      11.411  16.730  10.873  1.00  0.00     0.009 C 
HETATM   49  C27 UNL     1      10.236  17.647  10.672  1.00  0.00     0.012 C 
HETATM   50  C28 UNL     1      12.510  17.131   9.874  1.00  0.00     0.012 C 
ENDBRANCH  37  48
ENDBRANCH  34  37
ENDBRANCH  28  33
ENDBRANCH   3  28
TORSDOF 19
ENDMDL
MODEL 3
REMARK VINA RESULT: -6.759910939      4.516      6.909
REMARK  19 active torsions:
REMARK  status: ('A' for Active; 'I' for Inactive)
REMARK    1  A    between atoms: C2_2  and  C3_3 
REMARK    2  A    between atoms: C3_3  and  C5_5 
REMARK    3  A    between atoms: C5_5  and  C6_6 
REMARK    4  A    between atoms: C5_5  and  N1_10 
REMARK    5  A    between atoms: C6_6  and  C7_7 
REMARK       I    between atoms: N1_10  and  C10_12 
REMARK    6  A    between atoms: C10_12  and  C11_14 
REMARK    7  A    between atoms: C11_14  and  N2_16 
REMARK       I    between atoms: N2_16  and  C13_18 
REMARK    8  A    between atoms: C13_18  and  C14_20 
REMARK    9  A    between atoms: C14_20  and  N3_21 
REMARK   10  A    between atoms: C14_20  and  C29_48 
REMARK       I    between atoms: N3_21  and  C15_23 
REMARK   11  A    between atoms: C15_23  and  C16_25 
REMARK   12  A    between atoms: C16_25  and  C17_26 
REMARK   13  A    between atoms: C16_25  and  N4_30 
REMARK   14  A    between atoms: C17_26  and  C18_27 
REMARK       I    between atoms: N4_30  and  C21_32 
REMARK   15  A    between atoms: C21_32  and  C22_34 
REMARK   16  A    between atoms: C22_34  and  N5_35 
REMARK   17  A    between atoms: C22_34  and  C26_45 
REMARK       I    between atoms: N5_35  and  C23_37 
REMARK   18  A    between atoms: C23_37  and  C24_39 
REMARK   19  A    between atoms: C24_39  and  N6_41 
ROOT
HETATM    1  N3  UNL     1       4.015  18.459  10.234  1.00  0.00    -0.346 N 
ATOM      2  H3  UNL     1       4.476  17.607   9.914  1.00  0.00     0.163 HD
HETATM    3  C15 UNL     1       4.321  19.649   9.538  1.00  0.00     0.241 C 
HETATM    4  O3  UNL     1       3.785  20.710   9.820  1.00  0.00    -0.271 OA
ENDROOT
BRANCH   1   5
HETATM    5  C14 UNL     1       3.120  18.329  11.347  1.00  0.00     0.180 C 
BRANCH   5   6
HETATM    6  C13 UNL     1       2.032  17.389  11.042  1.00  0.00     0.241 C 
HETATM    7  N2  UNL     1       2.096  15.978  11.079  1.00  0.00    -0.346 N 
ATOM      8  H2  UNL     1       2.977  15.516  11.304  1.00  0.00     0.163 HD
HETATM    9  O2  UNL     1       0.911  17.884  10.715  1.00  0.00    -0.271 OA
BRANCH   7  10
HETATM   10  C11 UNL     1       0.902  15.177  10.796  1.00  0.00     0.172 C 
HETATM   11  C12 UNL     1       1.299  13.968   9.949  1.00  0.00     0.042 C 
BRANCH  10  12
HETATM   12  C10 UNL     1       0.337  14.752  12.079  1.00  0.00     0.244 C 
HETATM   13  N1  UNL     1       0.971  13.885  12.995  1.00  0.00    -0.325 N 
ATOM     14  H1  UNL     1       1.886  13.501  12.760  1.00  0.00     0.169 HD
HETATM   15  O1  UNL     1      -0.818  15.208  12.384  1.00  0.00    -0.271 OA
BRANCH  13  16
HETATM   16  C5  UNL     1       0.345  13.514  14.291  1.00  0.00     0.033 C 
BRANCH  16  17
HETATM   17  C3  UNL     1       0.869  14.296  15.391  1.00  0.00    -0.058 C 
HETATM   18  C4  UNL     1       0.222  14.118  16.755  1.00  0.00     0.046 C 
BRANCH  17  19
HETATM   19  C2  UNL     1       2.291  14.651  15.550  1.00  0.00     0.031 C 
HETATM   20  C1  UNL     1       2.675  15.306  16.854  1.00  0.00     0.010 C 
ENDBRANCH  17  19
ENDBRANCH  16  17
BRANCH  16  21
HETATM   21  C6  UNL     1       0.028  12.088  14.323  1.00  0.00     0.007 C 
BRANCH  21  22
HETATM   22  C7  UNL     1      -1.338  11.553  14.326  1.00  0.00     0.002 C 
HETATM   23  C8  UNL     1      -2.418  12.623  14.557  1.00  0.00     0.013 C 
HETATM   24  C9  UNL     1      -1.427  10.732  15.670  1.00  0.00     0.013 C 
ENDBRANCH  21  22
ENDBRANCH  16  21
ENDBRANCH  13  16
ENDBRANCH  10  12
ENDBRANCH   7  10
ENDBRANCH   5   6
BRANCH   5  25
HETATM   25  C29 UNL     1       3.757  18.203  12.678  1.00  0.00     0.009 C 
HETATM   26  C30 UNL     1       2.771  17.944  13.792  1.00  0.00     0.012 C 
HETATM   27  C31 UNL     1       4.681  19.353  12.960  1.00  0.00     0.012 C 
ENDBRANCH   5  25
ENDBRANCH   1   5
BRANCH   3  28
HETATM   28  C16 UNL     1       5.342  19.619   8.406  1.00  0.00     0.177 C 
BRANCH  28  29
HETATM   29  C17 UNL     1       4.701  18.811   7.335  1.00  0.00     0.038 C 
BRANCH  29  30
HETATM   30  C18 UNL     1       4.268  19.467   6.087  1.00  0.00    -0.020 C 
HETATM   31  C19 UNL     1       5.096  20.682   5.690  1.00  0.00     0.009 C 
HETATM   32  C20 UNL     1       3.971  18.603   4.925  1.00  0.00     0.009 C 
ENDBRANCH  29  30
ENDBRANCH  28  29
BRANCH  28  33
HETATM   33  N4  UNL     1       6.564  19.001   8.926  1.00  0.00    -0.346 N 
HETATM   34  C21 UNL     1       7.777  19.728   8.920  1.00  0.00     0.241 C 
HETATM   35  O4  UNL     1       7.715  20.912   8.410  1.00  0.00    -0.271 OA
ATOM     36  H4  UNL     1       6.540  18.050   9.291  1.00  0.00     0.163 HD
BRANCH  34  37
HETATM   37  C22 UNL     1       9.065  19.289   9.433  1.00  0.00     0.180 C 
BRANCH  37  38
HETATM   38  N5  UNL     1       9.648  18.258   8.545  1.00  0.00    -0.346 N 
HETATM   39  C23 UNL     1      10.721  18.527   7.664  1.00  0.00     0.248 C 
HETATM   40  O5  UNL     1      11.228  19.681   7.609  1.00  0.00    -0.271 OA
ATOM     41  H5  UNL     1       9.261  17.316   8.570  1.00  0.00     0.163 HD
BRANCH  39  42
HETATM   42  C24 UNL     1      11.285  17.466   6.777  1.00  0.00     0.270 C 
HETATM   43  C25 UNL     1      11.484  17.953   5.364  1.00  0.00     0.050 C 
BRANCH  42  44
HETATM   44  N6  UNL     1      12.599  17.103   7.283  1.00  0.00    -0.067 N 
ATOM     45  H63 UNL     1      12.855  17.622   8.122  1.00  0.00     0.275 HD
ATOM     46  H62 UNL     1      12.620  16.167   7.688  1.00  0.00     0.275 HD
ATOM     47  H61 UNL     1      13.275  17.219   6.527  1.00  0.00     0.275 HD
ENDBRANCH  42  44
ENDBRANCH  39  42
ENDBRANCH  37  38
BRANCH  37  48
HETATM   48  C26 UNL     1       9.128  18.779  10.822  1.00  0.00     0.009 C 
HETATM   49  C27 UNL     1      10.346  17.967  11.165  1.00  0.00     0.012 C 
HETATM   50  C28 UNL     1       9.047  19.962  11.802  1.00  0.00     0.012 C 
ENDBRANCH  37  48
ENDBRANCH  34  37
ENDBRANCH  28  33
ENDBRANCH   3  28
TORSDOF 19
ENDMDL
MODEL 4
REMARK VINA RESULT: -6.656792107      3.669     10.969
REMARK  19 active torsions:
REMARK  status: ('A' for Active; 'I' for Inactive)
REMARK    1  A    between atoms: C2_2  and  C3_3 
REMARK    2  A    between atoms: C3_3  and  C5_5 
REMARK    3  A    between atoms: C5_5  and  C6_6 
REMARK    4  A    between atoms: C5_5  and  N1_10 
REMARK    5  A    between atoms: C6_6  and  C7_7 
REMARK       I    between atoms: N1_10  and  C10_12 
REMARK    6  A    between atoms: C10_12  and  C11_14 
REMARK    7  A    between atoms: C11_14  and  N2_16 
REMARK       I    between atoms: N2_16  and  C13_18 
REMARK    8  A    between atoms: C13_18  and  C14_20 
REMARK    9  A    between atoms: C14_20  and  N3_21 
REMARK   10  A    between atoms: C14_20  and  C29_48 
REMARK       I    between atoms: N3_21  and  C15_23 
REMARK   11  A    between atoms: C15_23  and  C16_25 
REMARK   12  A    between atoms: C16_25  and  C17_26 
REMARK   13  A    between atoms: C16_25  and  N4_30 
REMARK   14  A    between atoms: C17_26  and  C18_27 
REMARK       I    between atoms: N4_30  and  C21_32 
REMARK   15  A    between atoms: C21_32  and  C22_34 
REMARK   16  A    between atoms: C22_34  and  N5_35 
REMARK   17  A    between atoms: C22_34  and  C26_45 
REMARK       I    between atoms: N5_35  and  C23_37 
REMARK   18  A    between atoms: C23_37  and  C24_39 
REMARK   19  A    between atoms: C24_39  and  N6_41 
ROOT
HETATM    1  N3  UNL     1       3.263  18.785  13.274  1.00  0.00    -0.346 N 
ATOM      2  H3  UNL     1       2.393  18.413  12.893  1.00  0.00     0.163 HD
HETATM    3  C15 UNL     1       3.740  18.193  14.464  1.00  0.00     0.241 C 
HETATM    4  O3  UNL     1       4.795  18.541  14.973  1.00  0.00    -0.271 OA
ENDROOT
BRANCH   1   5
HETATM    5  C14 UNL     1       3.879  19.857  12.549  1.00  0.00     0.180 C 
BRANCH   5   6
HETATM    6  C13 UNL     1       4.522  19.363  11.322  1.00  0.00     0.241 C 
HETATM    7  N2  UNL     1       5.659  19.907  10.685  1.00  0.00    -0.346 N 
ATOM      8  H2  UNL     1       6.096  20.749  11.058  1.00  0.00     0.163 HD
HETATM    9  O2  UNL     1       4.015  18.339  10.773  1.00  0.00    -0.271 OA
BRANCH   7  10
HETATM   10  C11 UNL     1       6.212  19.265   9.489  1.00  0.00     0.172 C 
HETATM   11  C12 UNL     1       5.869  20.109   8.262  1.00  0.00     0.042 C 
BRANCH  10  12
HETATM   12  C10 UNL     1       7.664  19.169   9.668  1.00  0.00     0.244 C 
HETATM   13  N1  UNL     1       8.467  18.105   9.205  1.00  0.00    -0.325 N 
ATOM     14  H1  UNL     1       8.024  17.326   8.720  1.00  0.00     0.169 HD
HETATM   15  O1  UNL     1       8.236  20.128  10.291  1.00  0.00    -0.271 OA
BRANCH  13  16
HETATM   16  C5  UNL     1       9.941  18.086   9.405  1.00  0.00     0.033 C 
BRANCH  16  17
HETATM   17  C3  UNL     1      10.650  18.636   8.269  1.00  0.00    -0.058 C 
HETATM   18  C4  UNL     1      11.640  19.760   8.532  1.00  0.00     0.046 C 
BRANCH  17  19
HETATM   19  C2  UNL     1      11.081  17.847   7.101  1.00  0.00     0.031 C 
HETATM   20  C1  UNL     1      12.383  17.099   7.243  1.00  0.00     0.010 C 
ENDBRANCH  17  19
ENDBRANCH  16  17
BRANCH  16  21
HETATM   21  C6  UNL     1      10.340  16.919  10.186  1.00  0.00     0.007 C 
BRANCH  21  22
HETATM   22  C7  UNL     1      11.082  16.995  11.450  1.00  0.00     0.002 C 
HETATM   23  C8  UNL     1      10.967  18.359  12.150  1.00  0.00     0.013 C 
HETATM   24  C9  UNL     1      12.597  17.003  11.008  1.00  0.00     0.013 C 
ENDBRANCH  21  22
ENDBRANCH  16  21
ENDBRANCH  13  16
ENDBRANCH  10  12
ENDBRANCH   7  10
ENDBRANCH   5   6
BRANCH   5  25
HETATM   25  C29 UNL     1       3.083  21.100  12.431  1.00  0.00     0.009 C 
HETATM   26  C30 UNL     1       3.112  21.950  13.678  1.00  0.00     0.012 C 
HETATM   27  C31 UNL     1       1.692  20.822  11.937  1.00  0.00     0.012 C 
ENDBRANCH   5  25
ENDBRANCH   1   5
BRANCH   3  28
HETATM   28  C16 UNL     1       2.927  17.093  15.138  1.00  0.00     0.177 C 
BRANCH  28  29
HETATM   29  C17 UNL     1       3.878  16.431  16.069  1.00  0.00     0.038 C 
BRANCH  29  30
HETATM   30  C18 UNL     1       3.450  16.111  17.443  1.00  0.00    -0.020 C 
HETATM   31  C19 UNL     1       3.220  17.325  18.334  1.00  0.00     0.009 C 
HETATM   32  C20 UNL     1       2.386  15.098  17.612  1.00  0.00     0.009 C 
ENDBRANCH  29  30
ENDBRANCH  28  29
BRANCH  28  33
HETATM   33  N4  UNL     1       2.440  16.193  14.090  1.00  0.00    -0.346 N 
HETATM   34  C21 UNL     1       1.051  15.996  13.921  1.00  0.00     0.241 C 
HETATM   35  O4  UNL     1       0.292  16.624  14.754  1.00  0.00    -0.271 OA
ATOM     36  H4  UNL     1       3.103  15.710  13.483  1.00  0.00     0.163 HD
BRANCH  34  37
HETATM   37  C22 UNL     1       0.398  15.178  12.911  1.00  0.00     0.180 C 
BRANCH  37  38
HETATM   38  N5  UNL     1       0.404  13.755  13.318  1.00  0.00    -0.346 N 
HETATM   39  C23 UNL     1      -0.640  13.171  14.073  1.00  0.00     0.248 C 
HETATM   40  O5  UNL     1      -1.634  13.862  14.428  1.00  0.00    -0.271 OA
ATOM     41  H5  UNL     1       1.193  13.171  13.043  1.00  0.00     0.163 HD
BRANCH  39  42
HETATM   42  C24 UNL     1      -0.603  11.733  14.473  1.00  0.00     0.270 C 
HETATM   43  C25 UNL     1      -1.939  11.247  14.974  1.00  0.00     0.050 C 
BRANCH  42  44
HETATM   44  N6  UNL     1      -0.285  10.942  13.294  1.00  0.00    -0.067 N 
ATOM     45  H63 UNL     1      -0.213  11.507  12.449  1.00  0.00     0.275 HD
ATOM     46  H62 UNL     1       0.671  10.587  13.304  1.00  0.00     0.275 HD
ATOM     47  H61 UNL     1      -0.979  10.199  13.213  1.00  0.00     0.275 HD
ENDBRANCH  42  44
ENDBRANCH  39  42
ENDBRANCH  37  38
BRANCH  37  48
HETATM   48  C26 UNL     1       0.899  15.253  11.519  1.00  0.00     0.009 C 
HETATM   49  C27 UNL     1       0.198  14.369  10.524  1.00  0.00     0.012 C 
HETATM   50  C28 UNL     1       0.802  16.706  11.022  1.00  0.00     0.012 C 
ENDBRANCH  37  48
ENDBRANCH  34  37
ENDBRANCH  28  33
ENDBRANCH   3  28
TORSDOF 19
ENDMDL
MODEL 5
REMARK VINA RESULT: -6.500484341      2.346      4.127
REMARK  19 active torsions:
REMARK  status: ('A' for Active; 'I' for Inactive)
REMARK    1  A    between atoms: C2_2  and  C3_3 
REMARK    2  A    between atoms: C3_3  and  C5_5 
REMARK    3  A    between atoms: C5_5  and  C6_6 
REMARK    4  A    between atoms: C5_5  and  N1_10 
REMARK    5  A    between atoms: C6_6  and  C7_7 
REMARK       I    between atoms: N1_10  and  C10_12 
REMARK    6  A    between atoms: C10_12  and  C11_14 
REMARK    7  A    between atoms: C11_14  and  N2_16 
REMARK       I    between atoms: N2_16  and  C13_18 
REMARK    8  A    between atoms: C13_18  and  C14_20 
REMARK    9  A    between atoms: C14_20  and  N3_21 
REMARK   10  A    between atoms: C14_20  and  C29_48 
REMARK       I    between atoms: N3_21  and  C15_23 
REMARK   11  A    between atoms: C15_23  and  C16_25 
REMARK   12  A    between atoms: C16_25  and  C17_26 
REMARK   13  A    between atoms: C16_25  and  N4_30 
REMARK   14  A    between atoms: C17_26  and  C18_27 
REMARK       I    between atoms: N4_30  and  C21_32 
REMARK   15  A    between atoms: C21_32  and  C22_34 
REMARK   16  A    between atoms: C22_34  and  N5_35 
REMARK   17  A    between atoms: C22_34  and  C26_45 
REMARK       I    between atoms: N5_35  and  C23_37 
REMARK   18  A    between atoms: C23_37  and  C24_39 
REMARK   19  A    between atoms: C24_39  and  N6_41 
ROOT
HETATM    1  N3  UNL     1       6.788  19.776  15.028  1.00  0.00    -0.346 N 
ATOM      2  H3  UNL     1       7.066  19.179  14.248  1.00  0.00     0.163 HD
HETATM    3  C15 UNL     1       7.736  20.721  15.476  1.00  0.00     0.241 C 
HETATM    4  O3  UNL     1       7.478  21.508  16.375  1.00  0.00    -0.271 OA
ENDROOT
BRANCH   1   5
HETATM    5  C14 UNL     1       5.472  19.570  15.559  1.00  0.00     0.180 C 
BRANCH   5   6
HETATM    6  C13 UNL     1       4.465  19.567  14.489  1.00  0.00     0.241 C 
HETATM    7  N2  UNL     1       4.278  18.570  13.506  1.00  0.00    -0.346 N 
ATOM      8  H2  UNL     1       4.902  17.764  13.474  1.00  0.00     0.163 HD
HETATM    9  O2  UNL     1       3.671  20.554  14.435  1.00  0.00    -0.271 OA
BRANCH   7  10
HETATM   10  C11 UNL     1       3.189  18.689  12.532  1.00  0.00     0.172 C 
HETATM   11  C12 UNL     1       3.698  18.259  11.156  1.00  0.00     0.042 C 
BRANCH  10  12
HETATM   12  C10 UNL     1       2.096  17.821  12.978  1.00  0.00     0.244 C 
HETATM   13  N1  UNL     1       2.033  16.427  12.766  1.00  0.00    -0.325 N 
ATOM     14  H1  UNL     1       2.786  15.969  12.254  1.00  0.00     0.169 HD
HETATM   15  O1  UNL     1       1.132  18.378  13.607  1.00  0.00    -0.271 OA
BRANCH  13  16
HETATM   16  C5  UNL     1       0.899  15.605  13.268  1.00  0.00     0.033 C 
BRANCH  16  17
HETATM   17  C3  UNL     1       1.341  14.571  14.182  1.00  0.00    -0.058 C 
HETATM   18  C4  UNL     1       2.206  14.993  15.358  1.00  0.00     0.046 C 
BRANCH  17  19
HETATM   19  C2  UNL     1       0.539  13.388  14.542  1.00  0.00     0.031 C 
HETATM   20  C1  UNL     1      -0.493  13.586  15.625  1.00  0.00     0.010 C 
ENDBRANCH  17  19
ENDBRANCH  16  17
BRANCH  16  21
HETATM   21  C6  UNL     1      -0.130  15.465  12.243  1.00  0.00     0.007 C 
BRANCH  21  22
HETATM   22  C7  UNL     1      -0.214  14.330  11.316  1.00  0.00     0.002 C 
HETATM   23  C8  UNL     1       0.984  14.227  10.359  1.00  0.00     0.013 C 
HETATM   24  C9  UNL     1      -1.370  14.730  10.320  1.00  0.00     0.013 C 
ENDBRANCH  21  22
ENDBRANCH  16  21
ENDBRANCH  13  16
ENDBRANCH  10  12
ENDBRANCH   7  10
ENDBRANCH   5   6
BRANCH   5  25
HETATM   25  C29 UNL     1       5.350  18.517  16.594  1.00  0.00     0.009 C 
HETATM   26  C30 UNL     1       5.402  17.117  16.033  1.00  0.00     0.012 C 
HETATM   27  C31 UNL     1       4.165  18.753  17.486  1.00  0.00     0.012 C 
ENDBRANCH   5  25
ENDBRANCH   1   5
BRANCH   3  28
HETATM   28  C16 UNL     1       9.116  20.769  14.830  1.00  0.00     0.177 C 
BRANCH  28  29
HETATM   29  C17 UNL     1       9.318  22.197  14.467  1.00  0.00     0.038 C 
BRANCH  29  30
HETATM   30  C18 UNL     1      10.656  22.803  14.607  1.00  0.00    -0.020 C 
HETATM   31  C19 UNL     1      11.461  22.292  15.795  1.00  0.00     0.009 C 
HETATM   32  C20 UNL     1      11.488  22.916  13.390  1.00  0.00     0.009 C 
ENDBRANCH  29  30
ENDBRANCH  28  29
BRANCH  28  33
HETATM   33  N4  UNL     1       9.092  19.886  13.662  1.00  0.00    -0.346 N 
HETATM   34  C21 UNL     1      10.244  19.143  13.318  1.00  0.00     0.241 C 
HETATM   35  O4  UNL     1      11.275  19.330  14.072  1.00  0.00    -0.271 OA
ATOM     36  H4  UNL     1       8.246  19.807  13.098  1.00  0.00     0.163 HD
BRANCH  34  37
HETATM   37  C22 UNL     1      10.381  18.193  12.226  1.00  0.00     0.180 C 
BRANCH  37  38
HETATM   38  N5  UNL     1      11.801  17.814  12.048  1.00  0.00    -0.346 N 
HETATM   39  C23 UNL     1      12.366  16.661  12.642  1.00  0.00     0.248 C 
HETATM   40  O5  UNL     1      11.657  15.900  13.357  1.00  0.00    -0.271 OA
ATOM     41  H5  UNL     1      12.397  18.408  11.473  1.00  0.00     0.163 HD
BRANCH  39  42
HETATM   42  C24 UNL     1      13.803  16.308  12.447  1.00  0.00     0.270 C 
HETATM   43  C25 UNL     1      14.175  16.219  10.989  1.00  0.00     0.050 C 
BRANCH  42  44
HETATM   44  N6  UNL     1      14.614  17.371  13.021  1.00  0.00    -0.067 N 
ATOM     45  H63 UNL     1      14.146  18.277  13.001  1.00  0.00     0.275 HD
ATOM     46  H62 UNL     1      14.710  17.289  14.034  1.00  0.00     0.275 HD
ATOM     47  H61 UNL     1      15.513  17.381  12.540  1.00  0.00     0.275 HD
ENDBRANCH  42  44
ENDBRANCH  39  42
ENDBRANCH  37  38
BRANCH  37  48
HETATM   48  C26 UNL     1       9.843  18.571  10.899  1.00  0.00     0.009 C 
HETATM   49  C27 UNL     1      10.515  19.738  10.229  1.00  0.00     0.012 C 
HETATM   50  C28 UNL     1       9.929  17.360   9.952  1.00  0.00     0.012 C 
ENDBRANCH  37  48
ENDBRANCH  34  37
ENDBRANCH  28  33
ENDBRANCH   3  28
TORSDOF 19
ENDMDL
