MODEL 1
REMARK VINA RESULT: -6.271179356      0.000      0.000
REMARK  21 active torsions:
REMARK  status: ('A' for Active; 'I' for Inactive)
REMARK    1  A    between atoms: C2_2  and  C4_4 
REMARK    2  A    between atoms: C4_4  and  C5_5 
REMARK    3  A    between atoms: C7_10  and  C8_11 
REMARK    4  A    between atoms: C8_11  and  C9_12 
REMARK    5  A    between atoms: C9_12  and  C10_13 
REMARK    6  A    between atoms: C10_13  and  C11_14 
REMARK    7  A    between atoms: C11_14  and  C12_15 
REMARK    8  A    between atoms: C12_15  and  C13_16 
REMARK    9  A    between atoms: C13_16  and  C14_17 
REMARK   10  A    between atoms: C14_17  and  C15_18 
REMARK   11  A    between atoms: C15_18  and  C16_19 
REMARK   12  A    between atoms: C16_19  and  C17_20 
REMARK   13  A    between atoms: C17_20  and  N2_21 
REMARK   14  A    between atoms: C19_29  and  C20_30 
REMARK   15  A    between atoms: C20_30  and  C21_31 
REMARK   16  A    between atoms: C21_31  and  C22_32 
REMARK   17  A    between atoms: C22_32  and  C23_33 
REMARK   18  A    between atoms: C23_33  and  N4_34 
REMARK       I    between atoms: N4_34  and  C24_36 
REMARK   19  A    between atoms: C24_36  and  C25_38 
REMARK   20  A    between atoms: C25_38  and  C26_39 
REMARK   21  A    between atoms: C26_39  and  N5_40 
ROOT
HETATM    1  C5  UNL     1      13.181  22.019   6.952  1.00  0.00     0.177 C 
HETATM    2  N1  UNL     1      12.945  20.665   6.546  1.00  0.00    -0.346 N 
ATOM      3  H1  UNL     1      13.585  20.409   5.795  1.00  0.00     0.163 HD
HETATM    4  C6  UNL     1      12.131  19.608   6.849  1.00  0.00     0.241 C 
HETATM    5  O1  UNL     1      10.964  19.543   6.304  1.00  0.00    -0.271 OA
HETATM    6  C7  UNL     1      12.308  18.422   7.737  1.00  0.00     0.176 C 
HETATM    7  N3  UNL     1      12.579  17.228   6.906  1.00  0.00    -0.346 N 
ATOM      8  H3  UNL     1      12.905  16.407   7.416  1.00  0.00     0.163 HD
HETATM    9  C18 UNL     1      12.453  17.065   5.542  1.00  0.00     0.241 C 
HETATM   10  O2  UNL     1      11.569  16.216   5.139  1.00  0.00    -0.271 OA
HETATM   11  C19 UNL     1      13.168  17.702   4.411  1.00  0.00     0.176 C 
HETATM   12  N6  UNL     1      12.308  18.194   3.360  1.00  0.00    -0.348 N 
ATOM     13  H6  UNL     1      11.764  17.477   2.880  1.00  0.00     0.163 HD
HETATM   14  C27 UNL     1      12.104  19.488   2.896  1.00  0.00     0.219 C 
HETATM   15  O4  UNL     1      10.924  19.802   2.491  1.00  0.00    -0.274 OA
HETATM   16  C28 UNL     1      13.065  20.614   2.789  1.00  0.00     0.122 C 
HETATM   17  C29 UNL     1      12.533  21.737   3.684  1.00  0.00     0.134 C 
HETATM   18  N7  UNL     1      13.547  22.448   4.411  1.00  0.00    -0.354 N 
HETATM   19  C30 UNL     1      14.757  22.776   3.651  1.00  0.00     0.152 C 
HETATM   20  C31 UNL     1      13.515  22.886   5.750  1.00  0.00     0.242 C 
HETATM   21  O5  UNL     1      13.775  24.088   6.061  1.00  0.00    -0.271 OA
ENDROOT
BRANCH   6  22
HETATM   22  C8  UNL     1      10.962  18.113   8.417  1.00  0.00     0.035 C 
BRANCH  22  23
HETATM   23  C9  UNL     1      11.077  16.893   9.298  1.00  0.00     0.002 C 
BRANCH  23  24
HETATM   24  C10 UNL     1      10.371  17.087  10.599  1.00  0.00     0.000 C 
BRANCH  24  25
HETATM   25  C11 UNL     1      10.769  18.362  11.268  1.00  0.00     0.000 C 
BRANCH  25  26
HETATM   26  C12 UNL     1      11.198  18.088  12.688  1.00  0.00     0.000 C 
BRANCH  26  27
HETATM   27  C13 UNL     1      11.882  16.738  12.839  1.00  0.00     0.000 C 
BRANCH  27  28
HETATM   28  C14 UNL     1      13.359  17.018  12.907  1.00  0.00     0.000 C 
BRANCH  28  29
HETATM   29  C15 UNL     1      14.015  16.650  11.622  1.00  0.00     0.002 C 
BRANCH  29  30
HETATM   30  C16 UNL     1      15.297  15.934  11.874  1.00  0.00     0.027 C 
BRANCH  30  31
HETATM   31  C17 UNL     1      16.355  16.971  12.254  1.00  0.00     0.229 C 
BRANCH  31  32
HETATM   32  N2  UNL     1      17.137  16.511  13.363  1.00  0.00    -0.079 N 
ATOM     33  H23 UNL     1      16.633  16.601  14.245  1.00  0.00     0.274 HD
ATOM     34  H22 UNL     1      17.247  15.496  13.354  1.00  0.00     0.274 HD
ATOM     35  H21 UNL     1      18.037  16.989  13.390  1.00  0.00     0.274 HD
ENDBRANCH  31  32
ENDBRANCH  30  31
ENDBRANCH  29  30
ENDBRANCH  28  29
ENDBRANCH  27  28
ENDBRANCH  26  27
ENDBRANCH  25  26
ENDBRANCH  24  25
ENDBRANCH  23  24
ENDBRANCH  22  23
ENDBRANCH   6  22
BRANCH   1  36
HETATM   36  C4  UNL     1      12.266  22.690   7.875  1.00  0.00     0.038 C 
BRANCH  36  37
HETATM   37  C2  UNL     1      12.317  22.324   9.311  1.00  0.00    -0.020 C 
HETATM   38  C1  UNL     1      10.939  21.762   9.673  1.00  0.00     0.009 C 
HETATM   39  C3  UNL     1      12.564  23.495  10.223  1.00  0.00     0.009 C 
ENDBRANCH  36  37
ENDBRANCH   1  36
BRANCH  11  40
HETATM   40  C20 UNL     1      13.968  16.547   3.765  1.00  0.00     0.035 C 
BRANCH  40  41
HETATM   41  C21 UNL     1      15.041  17.101   2.868  1.00  0.00     0.004 C 
BRANCH  41  42
HETATM   42  C22 UNL     1      15.648  16.066   1.957  1.00  0.00     0.020 C 
BRANCH  42  43
HETATM   43  C23 UNL     1      15.043  16.182   0.574  1.00  0.00     0.122 C 
BRANCH  43  44
HETATM   44  N4  UNL     1      13.986  15.202   0.438  1.00  0.00    -0.361 N 
HETATM   45  C24 UNL     1      12.612  15.554   0.454  1.00  0.00     0.219 C 
HETATM   46  O3  UNL     1      12.319  16.766   0.590  1.00  0.00    -0.274 OA
ATOM     47  H4  UNL     1      14.239  14.221   0.326  1.00  0.00     0.162 HD
BRANCH  45  48
HETATM   48  C25 UNL     1      11.528  14.562   0.317  1.00  0.00     0.130 C 
BRANCH  48  49
HETATM   49  C26 UNL     1      10.307  14.952   1.120  1.00  0.00     0.238 C 
BRANCH  49  50
HETATM   50  N5  UNL     1      10.651  15.245   2.482  1.00  0.00    -0.079 N 
ATOM     51  H53 UNL     1      11.596  14.937   2.704  1.00  0.00     0.274 HD
ATOM     52  H52 UNL     1      10.773  16.247   2.629  1.00  0.00     0.274 HD
ATOM     53  H51 UNL     1       9.967  14.853   3.130  1.00  0.00     0.274 HD
ENDBRANCH  49  50
ENDBRANCH  48  49
ENDBRANCH  45  48
ENDBRANCH  43  44
ENDBRANCH  42  43
ENDBRANCH  41  42
ENDBRANCH  40  41
ENDBRANCH  11  40
TORSDOF 21
ENDMDL
MODEL 2
REMARK VINA RESULT: -5.984544900      5.802      9.583
REMARK  21 active torsions:
REMARK  status: ('A' for Active; 'I' for Inactive)
REMARK    1  A    between atoms: C2_2  and  C4_4 
REMARK    2  A    between atoms: C4_4  and  C5_5 
REMARK    3  A    between atoms: C7_10  and  C8_11 
REMARK    4  A    between atoms: C8_11  and  C9_12 
REMARK    5  A    between atoms: C9_12  and  C10_13 
REMARK    6  A    between atoms: C10_13  and  C11_14 
REMARK    7  A    between atoms: C11_14  and  C12_15 
REMARK    8  A    between atoms: C12_15  and  C13_16 
REMARK    9  A    between atoms: C13_16  and  C14_17 
REMARK   10  A    between atoms: C14_17  and  C15_18 
REMARK   11  A    between atoms: C15_18  and  C16_19 
REMARK   12  A    between atoms: C16_19  and  C17_20 
REMARK   13  A    between atoms: C17_20  and  N2_21 
REMARK   14  A    between atoms: C19_29  and  C20_30 
REMARK   15  A    between atoms: C20_30  and  C21_31 
REMARK   16  A    between atoms: C21_31  and  C22_32 
REMARK   17  A    between atoms: C22_32  and  C23_33 
REMARK   18  A    between atoms: C23_33  and  N4_34 
REMARK       I    between atoms: N4_34  and  C24_36 
REMARK   19  A    between atoms: C24_36  and  C25_38 
REMARK   20  A    between atoms: C25_38  and  C26_39 
REMARK   21  A    between atoms: C26_39  and  N5_40 
ROOT
HETATM    1  C5  UNL     1       9.810  22.530  10.618  1.00  0.00     0.177 C 
HETATM    2  N1  UNL     1       9.454  22.049  11.920  1.00  0.00    -0.346 N 
ATOM      3  H1  UNL     1       8.591  22.494  12.233  1.00  0.00     0.163 HD
HETATM    4  C6  UNL     1       9.907  21.180  12.876  1.00  0.00     0.241 C 
HETATM    5  O1  UNL     1      10.793  21.587  13.719  1.00  0.00    -0.271 OA
HETATM    6  C7  UNL     1       9.574  19.758  13.184  1.00  0.00     0.176 C 
HETATM    7  N3  UNL     1       8.704  19.709  14.379  1.00  0.00    -0.346 N 
ATOM      8  H3  UNL     1       8.262  18.808  14.560  1.00  0.00     0.163 HD
HETATM    9  C18 UNL     1       8.403  20.707  15.283  1.00  0.00     0.241 C 
HETATM   10  O2  UNL     1       8.804  20.530  16.496  1.00  0.00    -0.271 OA
HETATM   11  C19 UNL     1       7.679  21.990  15.119  1.00  0.00     0.176 C 
HETATM   12  N6  UNL     1       8.346  23.133  15.697  1.00  0.00    -0.348 N 
ATOM     13  H6  UNL     1       8.467  23.093  16.709  1.00  0.00     0.163 HD
HETATM   14  C27 UNL     1       8.851  24.279  15.095  1.00  0.00     0.219 C 
HETATM   15  O4  UNL     1       9.918  24.800  15.593  1.00  0.00    -0.274 OA
HETATM   16  C28 UNL     1       8.341  25.030  13.921  1.00  0.00     0.122 C 
HETATM   17  C29 UNL     1       9.441  24.987  12.856  1.00  0.00     0.134 C 
HETATM   18  N7  UNL     1       8.960  24.822  11.513  1.00  0.00    -0.354 N 
HETATM   19  C30 UNL     1       7.780  25.619  11.161  1.00  0.00     0.152 C 
HETATM   20  C31 UNL     1       9.490  24.009  10.491  1.00  0.00     0.242 C 
HETATM   21  O5  UNL     1       9.748  24.476   9.339  1.00  0.00    -0.271 OA
ENDROOT
BRANCH   6  22
HETATM   22  C8  UNL     1      10.861  19.038  13.623  1.00  0.00     0.035 C 
BRANCH  22  23
HETATM   23  C9  UNL     1      11.176  17.894  12.691  1.00  0.00     0.002 C 
BRANCH  23  24
HETATM   24  C10 UNL     1      10.489  18.052  11.375  1.00  0.00     0.000 C 
BRANCH  24  25
HETATM   25  C11 UNL     1      10.678  16.858  10.497  1.00  0.00     0.000 C 
BRANCH  25  26
HETATM   26  C12 UNL     1      11.314  17.270   9.193  1.00  0.00     0.000 C 
BRANCH  26  27
HETATM   27  C13 UNL     1      12.815  17.485   9.321  1.00  0.00     0.000 C 
BRANCH  27  28
HETATM   28  C14 UNL     1      13.351  16.284  10.053  1.00  0.00     0.000 C 
BRANCH  28  29
HETATM   29  C15 UNL     1      14.310  16.710  11.110  1.00  0.00     0.002 C 
BRANCH  29  30
HETATM   30  C16 UNL     1      14.787  15.533  11.890  1.00  0.00     0.027 C 
BRANCH  30  31
HETATM   31  C17 UNL     1      16.002  15.966  12.711  1.00  0.00     0.229 C 
BRANCH  31  32
HETATM   32  N2  UNL     1      16.132  17.394  12.705  1.00  0.00    -0.079 N 
ATOM     33  H23 UNL     1      15.460  17.833  12.075  1.00  0.00     0.274 HD
ATOM     34  H22 UNL     1      15.811  17.807  13.581  1.00  0.00     0.274 HD
ATOM     35  H21 UNL     1      17.091  17.666  12.487  1.00  0.00     0.274 HD
ENDBRANCH  31  32
ENDBRANCH  30  31
ENDBRANCH  29  30
ENDBRANCH  28  29
ENDBRANCH  27  28
ENDBRANCH  26  27
ENDBRANCH  25  26
ENDBRANCH  24  25
ENDBRANCH  23  24
ENDBRANCH  22  23
ENDBRANCH   6  22
BRANCH   1  36
HETATM   36  C4  UNL     1      11.108  22.197  10.031  1.00  0.00     0.038 C 
BRANCH  36  37
HETATM   37  C2  UNL     1      11.211  20.982   9.187  1.00  0.00    -0.020 C 
HETATM   38  C1  UNL     1      12.333  21.240   8.177  1.00  0.00     0.009 C 
HETATM   39  C3  UNL     1       9.967  20.693   8.392  1.00  0.00     0.009 C 
ENDBRANCH  36  37
ENDBRANCH   1  36
BRANCH  11  40
HETATM   40  C20 UNL     1       6.392  21.812  15.958  1.00  0.00     0.035 C 
BRANCH  40  41
HETATM   41  C21 UNL     1       5.189  21.772  15.056  1.00  0.00     0.004 C 
BRANCH  41  42
HETATM   42  C22 UNL     1       4.935  20.410  14.464  1.00  0.00     0.020 C 
BRANCH  42  43
HETATM   43  C23 UNL     1       4.353  20.556  13.074  1.00  0.00     0.122 C 
BRANCH  43  44
HETATM   44  N4  UNL     1       5.184  19.832  12.136  1.00  0.00    -0.361 N 
HETATM   45  C24 UNL     1       6.258  20.443  11.439  1.00  0.00     0.219 C 
HETATM   46  O3  UNL     1       6.483  21.658  11.657  1.00  0.00    -0.274 OA
ATOM     47  H4  UNL     1       4.992  18.845  11.970  1.00  0.00     0.162 HD
BRANCH  45  48
HETATM   48  C25 UNL     1       7.111  19.714  10.480  1.00  0.00     0.130 C 
BRANCH  48  49
HETATM   49  C26 UNL     1       6.293  19.043   9.399  1.00  0.00     0.238 C 
BRANCH  49  50
HETATM   50  N5  UNL     1       6.436  19.719   8.141  1.00  0.00    -0.079 N 
ATOM     51  H53 UNL     1       5.549  20.105   7.821  1.00  0.00     0.274 HD
ATOM     52  H52 UNL     1       6.960  20.589   8.241  1.00  0.00     0.274 HD
ATOM     53  H51 UNL     1       6.855  19.109   7.438  1.00  0.00     0.274 HD
ENDBRANCH  49  50
ENDBRANCH  48  49
ENDBRANCH  45  48
ENDBRANCH  43  44
ENDBRANCH  42  43
ENDBRANCH  41  42
ENDBRANCH  40  41
ENDBRANCH  11  40
TORSDOF 21
ENDMDL
MODEL 3
REMARK VINA RESULT: -5.900792522      1.776      2.289
REMARK  21 active torsions:
REMARK  status: ('A' for Active; 'I' for Inactive)
REMARK    1  A    between atoms: C2_2  and  C4_4 
REMARK    2  A    between atoms: C4_4  and  C5_5 
REMARK    3  A    between atoms: C7_10  and  C8_11 
REMARK    4  A    between atoms: C8_11  and  C9_12 
REMARK    5  A    between atoms: C9_12  and  C10_13 
REMARK    6  A    between atoms: C10_13  and  C11_14 
REMARK    7  A    between atoms: C11_14  and  C12_15 
REMARK    8  A    between atoms: C12_15  and  C13_16 
REMARK    9  A    between atoms: C13_16  and  C14_17 
REMARK   10  A    between atoms: C14_17  and  C15_18 
REMARK   11  A    between atoms: C15_18  and  C16_19 
REMARK   12  A    between atoms: C16_19  and  C17_20 
REMARK   13  A    between atoms: C17_20  and  N2_21 
REMARK   14  A    between atoms: C19_29  and  C20_30 
REMARK   15  A    between atoms: C20_30  and  C21_31 
REMARK   16  A    between atoms: C21_31  and  C22_32 
REMARK   17  A    between atoms: C22_32  and  C23_33 
REMARK   18  A    between atoms: C23_33  and  N4_34 
REMARK       I    between atoms: N4_34  and  C24_36 
REMARK   19  A    between atoms: C24_36  and  C25_38 
REMARK   20  A    between atoms: C25_38  and  C26_39 
REMARK   21  A    between atoms: C26_39  and  N5_40 
ROOT
HETATM    1  C5  UNL     1      14.084  22.722   7.709  1.00  0.00     0.177 C 
HETATM    2  N1  UNL     1      13.521  21.526   7.157  1.00  0.00    -0.346 N 
ATOM      3  H1  UNL     1      14.142  21.144   6.443  1.00  0.00     0.163 HD
HETATM    4  C6  UNL     1      12.411  20.735   7.284  1.00  0.00     0.241 C 
HETATM    5  O1  UNL     1      11.343  21.049   6.634  1.00  0.00    -0.271 OA
HETATM    6  C7  UNL     1      12.144  19.492   8.066  1.00  0.00     0.176 C 
HETATM    7  N3  UNL     1      12.156  18.329   7.153  1.00  0.00    -0.346 N 
ATOM      8  H3  UNL     1      12.177  17.417   7.608  1.00  0.00     0.163 HD
HETATM    9  C18 UNL     1      12.143  18.301   5.773  1.00  0.00     0.241 C 
HETATM   10  O2  UNL     1      11.106  17.776   5.214  1.00  0.00    -0.271 OA
HETATM   11  C19 UNL     1      13.131  18.775   4.776  1.00  0.00     0.176 C 
HETATM   12  N6  UNL     1      12.571  19.564   3.705  1.00  0.00    -0.348 N 
ATOM     13  H6  UNL     1      11.902  19.071   3.113  1.00  0.00     0.163 HD
HETATM   14  C27 UNL     1      12.795  20.889   3.351  1.00  0.00     0.219 C 
HETATM   15  O4  UNL     1      11.806  21.561   2.875  1.00  0.00    -0.274 OA
HETATM   16  C28 UNL     1      14.042  21.689   3.437  1.00  0.00     0.122 C 
HETATM   17  C29 UNL     1      13.753  22.857   4.384  1.00  0.00     0.134 C 
HETATM   18  N7  UNL     1      14.839  23.192   5.263  1.00  0.00    -0.354 N 
HETATM   19  C30 UNL     1      16.170  23.202   4.648  1.00  0.00     0.152 C 
HETATM   20  C31 UNL     1      14.783  23.530   6.630  1.00  0.00     0.242 C 
HETATM   21  O5  UNL     1      15.337  24.581   7.076  1.00  0.00    -0.271 OA
ENDROOT
BRANCH   6  22
HETATM   22  C8  UNL     1      10.698  19.547   8.592  1.00  0.00     0.035 C 
BRANCH  22  23
HETATM   23  C9  UNL     1      10.657  20.143   9.978  1.00  0.00     0.002 C 
BRANCH  23  24
HETATM   24  C10 UNL     1      10.395  19.102  11.016  1.00  0.00     0.000 C 
BRANCH  24  25
HETATM   25  C11 UNL     1       9.791  17.868  10.432  1.00  0.00     0.000 C 
BRANCH  25  26
HETATM   26  C12 UNL     1      10.745  16.708  10.571  1.00  0.00     0.000 C 
BRANCH  26  27
HETATM   27  C13 UNL     1      12.021  17.091  11.306  1.00  0.00     0.000 C 
BRANCH  27  28
HETATM   28  C14 UNL     1      13.160  16.711  10.398  1.00  0.00     0.000 C 
BRANCH  28  29
HETATM   29  C15 UNL     1      14.357  16.335  11.202  1.00  0.00     0.002 C 
BRANCH  29  30
HETATM   30  C16 UNL     1      14.033  16.339  12.657  1.00  0.00     0.027 C 
BRANCH  30  31
HETATM   31  C17 UNL     1      14.821  15.210  13.323  1.00  0.00     0.229 C 
BRANCH  31  32
HETATM   32  N2  UNL     1      16.207  15.559  13.431  1.00  0.00    -0.079 N 
ATOM     33  H23 UNL     1      16.804  14.732  13.472  1.00  0.00     0.274 HD
ATOM     34  H22 UNL     1      16.565  15.962  12.565  1.00  0.00     0.274 HD
ATOM     35  H21 UNL     1      16.360  16.177  14.228  1.00  0.00     0.274 HD
ENDBRANCH  31  32
ENDBRANCH  30  31
ENDBRANCH  29  30
ENDBRANCH  28  29
ENDBRANCH  27  28
ENDBRANCH  26  27
ENDBRANCH  25  26
ENDBRANCH  24  25
ENDBRANCH  23  24
ENDBRANCH  22  23
ENDBRANCH   6  22
BRANCH   1  36
HETATM   36  C4  UNL     1      13.299  23.568   8.608  1.00  0.00     0.038 C 
BRANCH  36  37
HETATM   37  C2  UNL     1      13.444  23.371  10.070  1.00  0.00    -0.020 C 
HETATM   38  C1  UNL     1      12.108  23.772  10.704  1.00  0.00     0.009 C 
HETATM   39  C3  UNL     1      14.502  24.239  10.695  1.00  0.00     0.009 C 
ENDBRANCH  36  37
ENDBRANCH   1  36
BRANCH  11  40
HETATM   40  C20 UNL     1      13.638  17.481   4.096  1.00  0.00     0.035 C 
BRANCH  40  41
HETATM   41  C21 UNL     1      14.748  17.805   3.133  1.00  0.00     0.004 C 
BRANCH  41  42
HETATM   42  C22 UNL     1      14.606  17.106   1.805  1.00  0.00     0.020 C 
BRANCH  42  43
HETATM   43  C23 UNL     1      14.058  15.712   2.016  1.00  0.00     0.122 C 
BRANCH  43  44
HETATM   44  N4  UNL     1      13.757  15.124   0.728  1.00  0.00    -0.361 N 
HETATM   45  C24 UNL     1      14.615  14.188   0.096  1.00  0.00     0.219 C 
HETATM   46  O3  UNL     1      15.670  13.865   0.693  1.00  0.00    -0.274 OA
ATOM     47  H4  UNL     1      12.894  15.394   0.256  1.00  0.00     0.162 HD
BRANCH  45  48
HETATM   48  C25 UNL     1      14.317  13.584  -1.217  1.00  0.00     0.130 C 
BRANCH  48  49
HETATM   49  C26 UNL     1      14.139  12.086  -1.118  1.00  0.00     0.238 C 
BRANCH  49  50
HETATM   50  N5  UNL     1      15.383  11.431  -0.826  1.00  0.00    -0.079 N 
ATOM     51  H53 UNL     1      15.911  11.934  -0.113  1.00  0.00     0.274 HD
ATOM     52  H52 UNL     1      15.236  10.555  -0.324  1.00  0.00     0.274 HD
ATOM     53  H51 UNL     1      15.935  11.290  -1.672  1.00  0.00     0.274 HD
ENDBRANCH  49  50
ENDBRANCH  48  49
ENDBRANCH  45  48
ENDBRANCH  43  44
ENDBRANCH  42  43
ENDBRANCH  41  42
ENDBRANCH  40  41
ENDBRANCH  11  40
TORSDOF 21
ENDMDL
MODEL 4
REMARK VINA RESULT: -5.900302037      6.497     10.087
REMARK  21 active torsions:
REMARK  status: ('A' for Active; 'I' for Inactive)
REMARK    1  A    between atoms: C2_2  and  C4_4 
REMARK    2  A    between atoms: C4_4  and  C5_5 
REMARK    3  A    between atoms: C7_10  and  C8_11 
REMARK    4  A    between atoms: C8_11  and  C9_12 
REMARK    5  A    between atoms: C9_12  and  C10_13 
REMARK    6  A    between atoms: C10_13  and  C11_14 
REMARK    7  A    between atoms: C11_14  and  C12_15 
REMARK    8  A    between atoms: C12_15  and  C13_16 
REMARK    9  A    between atoms: C13_16  and  C14_17 
REMARK   10  A    between atoms: C14_17  and  C15_18 
REMARK   11  A    between atoms: C15_18  and  C16_19 
REMARK   12  A    between atoms: C16_19  and  C17_20 
REMARK   13  A    between atoms: C17_20  and  N2_21 
REMARK   14  A    between atoms: C19_29  and  C20_30 
REMARK   15  A    between atoms: C20_30  and  C21_31 
REMARK   16  A    between atoms: C21_31  and  C22_32 
REMARK   17  A    between atoms: C22_32  and  C23_33 
REMARK   18  A    between atoms: C23_33  and  N4_34 
REMARK       I    between atoms: N4_34  and  C24_36 
REMARK   19  A    between atoms: C24_36  and  C25_38 
REMARK   20  A    between atoms: C25_38  and  C26_39 
REMARK   21  A    between atoms: C26_39  and  N5_40 
ROOT
HETATM    1  C5  UNL     1      11.573  24.132  13.049  1.00  0.00     0.177 C 
HETATM    2  N1  UNL     1      10.688  23.093  13.487  1.00  0.00    -0.346 N 
ATOM      3  H1  UNL     1       9.941  23.489  14.059  1.00  0.00     0.163 HD
HETATM    4  C6  UNL     1      10.530  21.739  13.381  1.00  0.00     0.241 C 
HETATM    5  O1  UNL     1      11.172  20.969  14.192  1.00  0.00    -0.271 OA
HETATM    6  C7  UNL     1       9.713  20.888  12.466  1.00  0.00     0.176 C 
HETATM    7  N3  UNL     1       8.528  20.387  13.195  1.00  0.00    -0.346 N 
ATOM      8  H3  UNL     1       7.807  19.959  12.614  1.00  0.00     0.163 HD
HETATM    9  C18 UNL     1       8.256  20.415  14.547  1.00  0.00     0.241 C 
HETATM   10  O2  UNL     1       8.171  19.275  15.145  1.00  0.00    -0.271 OA
HETATM   11  C19 UNL     1       8.035  21.547  15.477  1.00  0.00     0.176 C 
HETATM   12  N6  UNL     1       8.783  21.465  16.710  1.00  0.00    -0.348 N 
ATOM     13  H6  UNL     1       8.551  20.666  17.300  1.00  0.00     0.163 HD
HETATM   14  C27 UNL     1       9.769  22.300  17.221  1.00  0.00     0.219 C 
HETATM   15  O4  UNL     1      10.719  21.761  17.903  1.00  0.00    -0.274 OA
HETATM   16  C28 UNL     1       9.912  23.772  17.103  1.00  0.00     0.122 C 
HETATM   17  C29 UNL     1      11.234  24.031  16.375  1.00  0.00     0.134 C 
HETATM   18  N7  UNL     1      11.190  25.112  15.430  1.00  0.00    -0.354 N 
HETATM   19  C30 UNL     1      10.478  26.314  15.877  1.00  0.00     0.152 C 
HETATM   20  C31 UNL     1      11.760  25.169  14.143  1.00  0.00     0.242 C 
HETATM   21  O5  UNL     1      12.504  26.135  13.789  1.00  0.00    -0.271 OA
ENDROOT
BRANCH   6  22
HETATM   22  C8  UNL     1      10.516  19.620  12.129  1.00  0.00     0.035 C 
BRANCH  22  23
HETATM   23  C9  UNL     1       9.937  18.926  10.920  1.00  0.00     0.002 C 
BRANCH  23  24
HETATM   24  C10 UNL     1      10.273  17.471  10.908  1.00  0.00     0.000 C 
BRANCH  24  25
HETATM   25  C11 UNL     1      10.808  17.032   9.584  1.00  0.00     0.000 C 
BRANCH  25  26
HETATM   26  C12 UNL     1      12.289  16.766   9.687  1.00  0.00     0.000 C 
BRANCH  26  27
HETATM   27  C13 UNL     1      12.783  16.776  11.126  1.00  0.00     0.000 C 
BRANCH  27  28
HETATM   28  C14 UNL     1      14.261  16.503  11.066  1.00  0.00     0.000 C 
BRANCH  28  29
HETATM   29  C15 UNL     1      14.902  16.845  12.367  1.00  0.00     0.002 C 
BRANCH  29  30
HETATM   30  C16 UNL     1      16.325  17.237  12.162  1.00  0.00     0.027 C 
BRANCH  30  31
HETATM   31  C17 UNL     1      17.184  16.438  13.144  1.00  0.00     0.229 C 
BRANCH  31  32
HETATM   32  N2  UNL     1      16.412  15.399  13.760  1.00  0.00    -0.079 N 
ATOM     33  H23 UNL     1      15.625  15.775  14.288  1.00  0.00     0.274 HD
ATOM     34  H22 UNL     1      15.889  14.857  13.072  1.00  0.00     0.274 HD
ATOM     35  H21 UNL     1      17.007  14.805  14.337  1.00  0.00     0.274 HD
ENDBRANCH  31  32
ENDBRANCH  30  31
ENDBRANCH  29  30
ENDBRANCH  28  29
ENDBRANCH  27  28
ENDBRANCH  26  27
ENDBRANCH  25  26
ENDBRANCH  24  25
ENDBRANCH  23  24
ENDBRANCH  22  23
ENDBRANCH   6  22
BRANCH   1  36
HETATM   36  C4  UNL     1      12.832  23.804  12.382  1.00  0.00     0.038 C 
BRANCH  36  37
HETATM   37  C2  UNL     1      12.961  24.093  10.933  1.00  0.00    -0.020 C 
HETATM   38  C1  UNL     1      12.079  23.078  10.200  1.00  0.00     0.009 C 
HETATM   39  C3  UNL     1      14.359  23.919  10.405  1.00  0.00     0.009 C 
ENDBRANCH  36  37
ENDBRANCH   1  36
BRANCH  11  40
HETATM   40  C20 UNL     1       6.554  21.411  15.899  1.00  0.00     0.035 C 
BRANCH  40  41
HETATM   41  C21 UNL     1       5.655  21.686  14.724  1.00  0.00     0.004 C 
BRANCH  41  42
HETATM   42  C22 UNL     1       4.457  20.775  14.665  1.00  0.00     0.020 C 
BRANCH  42  43
HETATM   43  C23 UNL     1       4.805  19.517  13.899  1.00  0.00     0.122 C 
BRANCH  43  44
HETATM   44  N4  UNL     1       4.201  19.582  12.586  1.00  0.00    -0.361 N 
HETATM   45  C24 UNL     1       4.964  19.743  11.401  1.00  0.00     0.219 C 
HETATM   46  O3  UNL     1       6.211  19.827  11.514  1.00  0.00    -0.274 OA
ATOM     47  H4  UNL     1       3.187  19.510  12.509  1.00  0.00     0.162 HD
BRANCH  45  48
HETATM   48  C25 UNL     1       4.357  19.811  10.057  1.00  0.00     0.130 C 
BRANCH  48  49
HETATM   49  C26 UNL     1       5.371  19.539   8.969  1.00  0.00     0.238 C 
BRANCH  49  50
HETATM   50  N5  UNL     1       5.723  18.149   8.919  1.00  0.00    -0.079 N 
ATOM     51  H53 UNL     1       6.183  17.849   9.778  1.00  0.00     0.274 HD
ATOM     52  H52 UNL     1       4.897  17.552   8.966  1.00  0.00     0.274 HD
ATOM     53  H51 UNL     1       6.290  17.940   8.097  1.00  0.00     0.274 HD
ENDBRANCH  49  50
ENDBRANCH  48  49
ENDBRANCH  45  48
ENDBRANCH  43  44
ENDBRANCH  42  43
ENDBRANCH  41  42
ENDBRANCH  40  41
ENDBRANCH  11  40
TORSDOF 21
ENDMDL
MODEL 5
REMARK VINA RESULT: -5.690722419      2.881      6.424
REMARK  21 active torsions:
REMARK  status: ('A' for Active; 'I' for Inactive)
REMARK    1  A    between atoms: C2_2  and  C4_4 
REMARK    2  A    between atoms: C4_4  and  C5_5 
REMARK    3  A    between atoms: C7_10  and  C8_11 
REMARK    4  A    between atoms: C8_11  and  C9_12 
REMARK    5  A    between atoms: C9_12  and  C10_13 
REMARK    6  A    between atoms: C10_13  and  C11_14 
REMARK    7  A    between atoms: C11_14  and  C12_15 
REMARK    8  A    between atoms: C12_15  and  C13_16 
REMARK    9  A    between atoms: C13_16  and  C14_17 
REMARK   10  A    between atoms: C14_17  and  C15_18 
REMARK   11  A    between atoms: C15_18  and  C16_19 
REMARK   12  A    between atoms: C16_19  and  C17_20 
REMARK   13  A    between atoms: C17_20  and  N2_21 
REMARK   14  A    between atoms: C19_29  and  C20_30 
REMARK   15  A    between atoms: C20_30  and  C21_31 
REMARK   16  A    between atoms: C21_31  and  C22_32 
REMARK   17  A    between atoms: C22_32  and  C23_33 
REMARK   18  A    between atoms: C23_33  and  N4_34 
REMARK       I    between atoms: N4_34  and  C24_36 
REMARK   19  A    between atoms: C24_36  and  C25_38 
REMARK   20  A    between atoms: C25_38  and  C26_39 
REMARK   21  A    between atoms: C26_39  and  N5_40 
ROOT
HETATM    1  C5  UNL     1      12.809  19.033   4.580  1.00  0.00     0.177 C 
HETATM    2  N1  UNL     1      12.283  19.593   5.790  1.00  0.00    -0.346 N 
ATOM      3  H1  UNL     1      12.032  20.570   5.643  1.00  0.00     0.163 HD
HETATM    4  C6  UNL     1      12.013  19.228   7.081  1.00  0.00     0.241 C 
HETATM    5  O1  UNL     1      12.961  19.276   7.954  1.00  0.00    -0.271 OA
HETATM    6  C7  UNL     1      10.769  18.754   7.755  1.00  0.00     0.176 C 
HETATM    7  N3  UNL     1      10.200  19.858   8.559  1.00  0.00    -0.346 N 
ATOM      8  H3  UNL     1       9.252  19.704   8.903  1.00  0.00     0.163 HD
HETATM    9  C18 UNL     1      10.767  21.066   8.911  1.00  0.00     0.241 C 
HETATM   10  O2  UNL     1      10.977  21.263  10.169  1.00  0.00    -0.271 OA
HETATM   11  C19 UNL     1      11.194  22.222   8.089  1.00  0.00     0.176 C 
HETATM   12  N6  UNL     1      12.512  22.724   8.399  1.00  0.00    -0.348 N 
ATOM     13  H6  UNL     1      12.619  23.094   9.344  1.00  0.00     0.163 HD
HETATM   14  C27 UNL     1      13.658  22.784   7.617  1.00  0.00     0.219 C 
HETATM   15  O4  UNL     1      14.794  22.620   8.200  1.00  0.00    -0.274 OA
HETATM   16  C28 UNL     1      13.792  23.016   6.157  1.00  0.00     0.122 C 
HETATM   17  C29 UNL     1      14.458  21.768   5.570  1.00  0.00     0.134 C 
HETATM   18  N7  UNL     1      13.938  21.361   4.295  1.00  0.00    -0.354 N 
HETATM   19  C30 UNL     1      13.690  22.445   3.338  1.00  0.00     0.152 C 
HETATM   20  C31 UNL     1      13.657  20.056   3.844  1.00  0.00     0.242 C 
HETATM   21  O5  UNL     1      14.112  19.623   2.741  1.00  0.00    -0.271 OA
ENDROOT
BRANCH   6  22
HETATM   22  C8  UNL     1      11.151  17.686   8.794  1.00  0.00     0.035 C 
BRANCH  22  23
HETATM   23  C9  UNL     1       9.945  17.270   9.600  1.00  0.00     0.002 C 
BRANCH  23  24
HETATM   24  C10 UNL     1      10.060  17.703  11.025  1.00  0.00     0.000 C 
BRANCH  24  25
HETATM   25  C11 UNL     1      11.483  17.885  11.441  1.00  0.00     0.000 C 
BRANCH  25  26
HETATM   26  C12 UNL     1      11.708  17.268  12.799  1.00  0.00     0.000 C 
BRANCH  26  27
HETATM   27  C13 UNL     1      13.082  16.628  12.927  1.00  0.00     0.000 C 
BRANCH  27  28
HETATM   28  C14 UNL     1      13.660  16.590  11.537  1.00  0.00     0.000 C 
BRANCH  28  29
HETATM   29  C15 UNL     1      15.068  16.106  11.577  1.00  0.00     0.002 C 
BRANCH  29  30
HETATM   30  C16 UNL     1      15.968  17.157  12.132  1.00  0.00     0.027 C 
BRANCH  30  31
HETATM   31  C17 UNL     1      17.009  16.472  13.019  1.00  0.00     0.229 C 
BRANCH  31  32
HETATM   32  N2  UNL     1      16.411  15.405  13.767  1.00  0.00    -0.079 N 
ATOM     33  H23 UNL     1      16.515  15.543  14.772  1.00  0.00     0.274 HD
ATOM     34  H22 UNL     1      15.393  15.430  13.715  1.00  0.00     0.274 HD
ATOM     35  H21 UNL     1      16.784  14.504  13.467  1.00  0.00     0.274 HD
ENDBRANCH  31  32
ENDBRANCH  30  31
ENDBRANCH  29  30
ENDBRANCH  28  29
ENDBRANCH  27  28
ENDBRANCH  26  27
ENDBRANCH  25  26
ENDBRANCH  24  25
ENDBRANCH  23  24
ENDBRANCH  22  23
ENDBRANCH   6  22
BRANCH   1  36
HETATM   36  C4  UNL     1      13.424  17.706   4.579  1.00  0.00     0.038 C 
BRANCH  36  37
HETATM   37  C2  UNL     1      12.627  16.557   4.089  1.00  0.00    -0.020 C 
HETATM   38  C1  UNL     1      11.861  16.005   5.295  1.00  0.00     0.009 C 
HETATM   39  C3  UNL     1      13.463  15.429   3.549  1.00  0.00     0.009 C 
ENDBRANCH  36  37
ENDBRANCH   1  36
BRANCH  11  40
HETATM   40  C20 UNL     1      10.227  23.359   8.497  1.00  0.00     0.035 C 
BRANCH  40  41
HETATM   41  C21 UNL     1       8.802  22.920   8.299  1.00  0.00     0.004 C 
BRANCH  41  42
HETATM   42  C22 UNL     1       8.381  22.900   6.852  1.00  0.00     0.020 C 
BRANCH  42  43
HETATM   43  C23 UNL     1       7.134  22.057   6.692  1.00  0.00     0.122 C 
BRANCH  43  44
HETATM   44  N4  UNL     1       7.266  20.862   7.498  1.00  0.00    -0.361 N 
HETATM   45  C24 UNL     1       6.270  20.448   8.418  1.00  0.00     0.219 C 
HETATM   46  O3  UNL     1       5.239  21.155   8.524  1.00  0.00    -0.274 OA
ATOM     47  H4  UNL     1       8.108  20.295   7.400  1.00  0.00     0.162 HD
BRANCH  45  48
HETATM   48  C25 UNL     1       6.396  19.231   9.245  1.00  0.00     0.130 C 
BRANCH  48  49
HETATM   49  C26 UNL     1       5.197  18.323   9.091  1.00  0.00     0.238 C 
BRANCH  49  50
HETATM   50  N5  UNL     1       4.742  18.285   7.731  1.00  0.00    -0.079 N 
ATOM     51  H53 UNL     1       4.131  17.486   7.563  1.00  0.00     0.274 HD
ATOM     52  H52 UNL     1       4.078  19.034   7.537  1.00  0.00     0.274 HD
ATOM     53  H51 UNL     1       5.525  18.301   7.077  1.00  0.00     0.274 HD
ENDBRANCH  49  50
ENDBRANCH  48  49
ENDBRANCH  45  48
ENDBRANCH  43  44
ENDBRANCH  42  43
ENDBRANCH  41  42
ENDBRANCH  40  41
ENDBRANCH  11  40
TORSDOF 21
ENDMDL
