MODEL 1
REMARK VINA RESULT: -6.450965544      0.000      0.000
REMARK  21 active torsions:
REMARK  status: ('A' for Active; 'I' for Inactive)
REMARK    1  A    between atoms: C2_2  and  N1_3 
REMARK    2  A    between atoms: C4_8  and  N3_9 
REMARK    3  A    between atoms: C6_18  and  N6_19 
REMARK    4  A    between atoms: N6_19  and  C7_21 
REMARK    5  A    between atoms: C7_21  and  C8_22 
REMARK    6  A    between atoms: C8_22  and  C9_23 
REMARK    7  A    between atoms: C9_23  and  C10_24 
REMARK    8  A    between atoms: C10_24  and  C11_25 
REMARK    9  A    between atoms: C11_25  and  C12_26 
REMARK   10  A    between atoms: C12_26  and  C13_27 
REMARK   11  A    between atoms: C13_27  and  C14_28 
REMARK   12  A    between atoms: C14_28  and  N7_29 
REMARK   13  A    between atoms: N7_29  and  C16_31 
REMARK   14  A    between atoms: C16_31  and  C17_32 
REMARK   15  A    between atoms: C17_32  and  C18_33 
REMARK   16  A    between atoms: C17_32  and  N10_48 
REMARK   17  A    between atoms: C18_33  and  C19_34 
REMARK   18  A    between atoms: C19_34  and  C20_35 
REMARK       I    between atoms: C20_35  and  N8_37 
REMARK   19  A    between atoms: N8_37  and  C22_39 
REMARK   20  A    between atoms: C22_39  and  C23_40 
REMARK   21  A    between atoms: C23_40  and  C24_41 
REMARK       I    between atoms: N10_48  and  C29_50 
ROOT
HETATM    1  C11 UNL     1      12.212  23.260   9.810  1.00  0.00     0.000 C 
ENDROOT
BRANCH   1   2
HETATM    2  C10 UNL     1      11.710  22.286   8.838  1.00  0.00     0.000 C 
BRANCH   2   3
HETATM    3  C9  UNL     1      12.518  21.356   8.070  1.00  0.00     0.002 C 
BRANCH   3   4
HETATM    4  C8  UNL     1      13.762  21.785   7.382  1.00  0.00     0.020 C 
BRANCH   4   5
HETATM    5  C7  UNL     1      13.862  21.054   6.001  1.00  0.00     0.121 C 
BRANCH   5   6
HETATM    6  N6  UNL     1      13.114  19.843   6.061  1.00  0.00    -0.373 N 
ATOM      7  H6  UNL     1      12.647  19.666   6.950  1.00  0.00     0.161 HD
BRANCH   6   8
HETATM    8  C6  UNL     1      12.942  18.953   5.175  1.00  0.00     0.161 C 
HETATM    9  C5  UNL     1      11.647  18.411   5.148  1.00  0.00     0.159 C 
HETATM   10  N4  UNL     1      11.340  17.151   4.821  1.00  0.00    -0.173 N 
HETATM   11  N5  UNL     1      10.703  19.220   5.466  1.00  0.00    -0.382 N 
HETATM   12  C4  UNL     1      12.159  16.169   4.341  1.00  0.00     0.692 C 
ATOM     13  H4  UNL     1      10.363  16.887   4.948  1.00  0.00     0.186 HD
HETATM   14  N2  UNL     1      13.424  16.300   3.887  1.00  0.00    -0.023 N 
HETATM   15  C3  UNL     1      14.093  17.459   3.608  1.00  0.00     0.694 C 
ATOM     16  H2  UNL     1      13.940  15.433   3.735  1.00  0.00     0.203 HD
HETATM   17  N1  UNL     1      14.880  17.502   2.605  1.00  0.00    -0.226 N 
HETATM   18  N11 UNL     1      13.957  18.596   4.355  1.00  0.00    -0.173 N 
ATOM     19  H1  UNL     1      15.381  18.365   2.392  1.00  0.00     0.177 HD
ATOM     20  H11 UNL     1      14.724  19.264   4.285  1.00  0.00     0.186 HD
ATOM     21  H52 UNL     1       9.762  18.826   5.446  1.00  0.00     0.157 HD
ATOM     22  H51 UNL     1      10.937  20.181   5.715  1.00  0.00     0.157 HD
BRANCH  12  23
HETATM   23  N3  UNL     1      11.708  14.976   4.304  1.00  0.00    -0.234 N 
ATOM     24  H32 UNL     1      11.621  14.524   3.394  1.00  0.00     0.174 HD
ATOM     25  H31 UNL     1      11.475  14.586   5.218  1.00  0.00     0.174 HD
ENDBRANCH  12  23
BRANCH  17  26
HETATM   26  C2  UNL     1      15.067  16.348   1.770  1.00  0.00     0.133 C 
HETATM   27  C1  UNL     1      15.704  16.669   0.452  1.00  0.00     0.027 C 
ENDBRANCH  17  26
ENDBRANCH   6   8
ENDBRANCH   5   6
ENDBRANCH   4   5
ENDBRANCH   3   4
ENDBRANCH   2   3
ENDBRANCH   1   2
BRANCH   1  28
HETATM   28  C12 UNL     1      11.763  23.030  11.213  1.00  0.00     0.005 C 
BRANCH  28  29
HETATM   29  C13 UNL     1      12.282  24.061  12.167  1.00  0.00     0.044 C 
BRANCH  29  30
HETATM   30  C14 UNL     1      11.586  24.213  13.462  1.00  0.00     0.057 C 
BRANCH  30  31
HETATM   31  N7  UNL     1      12.156  23.566  14.556  1.00  0.00    -0.396 N 
HETATM   32  C15 UNL     1      13.475  23.864  14.977  1.00  0.00     0.148 C 
BRANCH  31  33
HETATM   33  C16 UNL     1      11.684  22.296  14.961  1.00  0.00     0.146 C 
BRANCH  33  34
HETATM   34  C17 UNL     1      10.218  22.095  14.930  1.00  0.00     0.102 C 
BRANCH  34  35
HETATM   35  C18 UNL     1       9.684  20.761  14.598  1.00  0.00     0.036 C 
BRANCH  35  36
HETATM   36  C19 UNL     1      10.184  20.420  13.179  1.00  0.00     0.105 C 
BRANCH  36  37
HETATM   37  C20 UNL     1      10.643  19.015  13.137  1.00  0.00     0.219 C 
HETATM   38  O1  UNL     1      10.945  18.364  14.166  1.00  0.00    -0.273 OA
HETATM   39  N8  UNL     1      10.757  18.355  11.880  1.00  0.00    -0.356 N 
HETATM   40  C21 UNL     1      10.412  19.024  10.643  1.00  0.00     0.152 C 
BRANCH  39  41
HETATM   41  C22 UNL     1      11.246  16.983  11.791  1.00  0.00     0.125 C 
BRANCH  41  42
HETATM   42  C23 UNL     1      12.588  16.941  11.137  1.00  0.00     0.024 C 
BRANCH  42  43
HETATM   43  C24 UNL     1      13.721  16.870  12.117  1.00  0.00    -0.010 C 
HETATM   44  C25 UNL     1      14.993  16.466  11.412  1.00  0.00     0.024 C 
HETATM   45  C26 UNL     1      16.106  16.502  12.442  1.00  0.00     0.114 C 
HETATM   46  N9  UNL     1      15.882  15.660  13.573  1.00  0.00    -0.421 N 
HETATM   47  C27 UNL     1      14.571  15.099  13.682  1.00  0.00     0.114 C 
ATOM     48  H9  UNL     1      16.612  15.471  14.260  1.00  0.00     0.153 HD
HETATM   49  C28 UNL     1      13.454  16.041  13.328  1.00  0.00     0.024 C 
ENDBRANCH  42  43
ENDBRANCH  41  42
ENDBRANCH  39  41
ENDBRANCH  36  37
ENDBRANCH  35  36
ENDBRANCH  34  35
BRANCH  34  50
HETATM   50  N10 UNL     1       9.568  22.663  16.119  1.00  0.00    -0.355 N 
HETATM   51  C29 UNL     1       8.635  23.712  16.093  1.00  0.00     0.213 C 
HETATM   52  C30 UNL     1       8.038  24.204  17.350  1.00  0.00     0.117 C 
HETATM   53  O2  UNL     1       8.298  24.243  15.014  1.00  0.00    -0.274 OA
ATOM     54  H10 UNL     1       9.810  22.268  17.027  1.00  0.00     0.162 HD
ENDBRANCH  34  50
ENDBRANCH  33  34
ENDBRANCH  31  33
ENDBRANCH  30  31
ENDBRANCH  29  30
ENDBRANCH  28  29
ENDBRANCH   1  28
TORSDOF 21
ENDMDL
MODEL 2
REMARK VINA RESULT: -6.404831062      6.049      8.744
REMARK  21 active torsions:
REMARK  status: ('A' for Active; 'I' for Inactive)
REMARK    1  A    between atoms: C2_2  and  N1_3 
REMARK    2  A    between atoms: C4_8  and  N3_9 
REMARK    3  A    between atoms: C6_18  and  N6_19 
REMARK    4  A    between atoms: N6_19  and  C7_21 
REMARK    5  A    between atoms: C7_21  and  C8_22 
REMARK    6  A    between atoms: C8_22  and  C9_23 
REMARK    7  A    between atoms: C9_23  and  C10_24 
REMARK    8  A    between atoms: C10_24  and  C11_25 
REMARK    9  A    between atoms: C11_25  and  C12_26 
REMARK   10  A    between atoms: C12_26  and  C13_27 
REMARK   11  A    between atoms: C13_27  and  C14_28 
REMARK   12  A    between atoms: C14_28  and  N7_29 
REMARK   13  A    between atoms: N7_29  and  C16_31 
REMARK   14  A    between atoms: C16_31  and  C17_32 
REMARK   15  A    between atoms: C17_32  and  C18_33 
REMARK   16  A    between atoms: C17_32  and  N10_48 
REMARK   17  A    between atoms: C18_33  and  C19_34 
REMARK   18  A    between atoms: C19_34  and  C20_35 
REMARK       I    between atoms: C20_35  and  N8_37 
REMARK   19  A    between atoms: N8_37  and  C22_39 
REMARK   20  A    between atoms: C22_39  and  C23_40 
REMARK   21  A    between atoms: C23_40  and  C24_41 
REMARK       I    between atoms: N10_48  and  C29_50 
ROOT
HETATM    1  C11 UNL     1       8.011  19.735   9.260  1.00  0.00     0.000 C 
ENDROOT
BRANCH   1   2
HETATM    2  C10 UNL     1       9.232  20.171   9.941  1.00  0.00     0.000 C 
BRANCH   2   3
HETATM    3  C9  UNL     1      10.520  20.405   9.313  1.00  0.00     0.002 C 
BRANCH   3   4
HETATM    4  C8  UNL     1      10.925  19.695   8.073  1.00  0.00     0.020 C 
BRANCH   4   5
HETATM    5  C7  UNL     1      12.309  19.000   8.310  1.00  0.00     0.121 C 
BRANCH   5   6
HETATM    6  N6  UNL     1      12.088  17.665   8.755  1.00  0.00    -0.373 N 
ATOM      7  H6  UNL     1      11.686  17.037   8.058  1.00  0.00     0.161 HD
BRANCH   6   8
HETATM    8  C6  UNL     1      12.317  17.140   9.885  1.00  0.00     0.161 C 
HETATM    9  C5  UNL     1      11.171  16.955  10.676  1.00  0.00     0.159 C 
HETATM   10  N4  UNL     1      11.130  17.025  12.011  1.00  0.00    -0.173 N 
HETATM   11  N5  UNL     1      10.091  16.697  10.032  1.00  0.00    -0.382 N 
HETATM   12  C4  UNL     1      12.166  17.164  12.891  1.00  0.00     0.692 C 
ATOM     13  H4  UNL     1      10.202  16.966  12.428  1.00  0.00     0.186 HD
HETATM   14  N2  UNL     1      13.486  17.055  12.634  1.00  0.00    -0.023 N 
HETATM   15  C3  UNL     1      14.077  16.578  11.497  1.00  0.00     0.694 C 
ATOM     16  H2  UNL     1      14.117  17.365  13.374  1.00  0.00     0.203 HD
HETATM   17  N1  UNL     1      15.140  15.877  11.590  1.00  0.00    -0.226 N 
HETATM   18  N11 UNL     1      13.578  16.808  10.246  1.00  0.00    -0.173 N 
ATOM     19  H1  UNL     1      15.583  15.519  10.744  1.00  0.00     0.177 HD
ATOM     20  H11 UNL     1      14.246  16.717   9.480  1.00  0.00     0.186 HD
ATOM     21  H52 UNL     1       9.259  16.564  10.606  1.00  0.00     0.157 HD
ATOM     22  H51 UNL     1      10.123  16.645   9.014  1.00  0.00     0.157 HD
BRANCH  12  23
HETATM   23  N3  UNL     1      11.887  17.430  14.108  1.00  0.00    -0.234 N 
ATOM     24  H32 UNL     1      12.481  18.096  14.601  1.00  0.00     0.174 HD
ATOM     25  H31 UNL     1      11.074  16.932  14.472  1.00  0.00     0.174 HD
ENDBRANCH  12  23
BRANCH  17  26
HETATM   26  C2  UNL     1      15.717  15.589  12.872  1.00  0.00     0.133 C 
HETATM   27  C1  UNL     1      16.973  16.361  13.143  1.00  0.00     0.027 C 
ENDBRANCH  17  26
ENDBRANCH   6   8
ENDBRANCH   5   6
ENDBRANCH   4   5
ENDBRANCH   3   4
ENDBRANCH   2   3
ENDBRANCH   1   2
BRANCH   1  28
HETATM   28  C12 UNL     1       6.803  19.663  10.131  1.00  0.00     0.005 C 
BRANCH  28  29
HETATM   29  C13 UNL     1       7.073  20.103  11.537  1.00  0.00     0.044 C 
BRANCH  29  30
HETATM   30  C14 UNL     1       5.963  20.726  12.289  1.00  0.00     0.057 C 
BRANCH  30  31
HETATM   31  N7  UNL     1       5.330  19.929  13.241  1.00  0.00    -0.396 N 
HETATM   32  C15 UNL     1       4.379  18.950  12.860  1.00  0.00     0.148 C 
BRANCH  31  33
HETATM   33  C16 UNL     1       5.216  20.369  14.579  1.00  0.00     0.146 C 
BRANCH  33  34
HETATM   34  C17 UNL     1       6.260  19.905  15.519  1.00  0.00     0.102 C 
BRANCH  34  35
HETATM   35  C18 UNL     1       6.183  18.534  16.058  1.00  0.00     0.036 C 
BRANCH  35  36
HETATM   36  C19 UNL     1       4.693  18.248  16.339  1.00  0.00     0.105 C 
BRANCH  36  37
HETATM   37  C20 UNL     1       4.428  16.800  16.198  1.00  0.00     0.219 C 
HETATM   38  O1  UNL     1       5.303  15.924  16.398  1.00  0.00    -0.273 OA
HETATM   39  N8  UNL     1       3.128  16.362  15.815  1.00  0.00    -0.356 N 
HETATM   40  C21 UNL     1       2.053  17.304  15.582  1.00  0.00     0.152 C 
BRANCH  39  41
HETATM   41  C22 UNL     1       2.836  14.946  15.624  1.00  0.00     0.125 C 
BRANCH  41  42
HETATM   42  C23 UNL     1       1.373  14.731  15.413  1.00  0.00     0.024 C 
BRANCH  42  43
HETATM   43  C24 UNL     1       1.060  13.988  14.148  1.00  0.00    -0.010 C 
HETATM   44  C25 UNL     1       0.475  14.930  13.124  1.00  0.00     0.024 C 
HETATM   45  C26 UNL     1       0.269  14.133  11.851  1.00  0.00     0.114 C 
HETATM   46  N9  UNL     1      -0.574  12.991  12.006  1.00  0.00    -0.421 N 
HETATM   47  C27 UNL     1      -0.904  12.639  13.352  1.00  0.00     0.114 C 
ATOM     48  H9  UNL     1      -0.919  12.459  11.207  1.00  0.00     0.153 HD
HETATM   49  C28 UNL     1       0.234  12.759  14.329  1.00  0.00     0.024 C 
ENDBRANCH  42  43
ENDBRANCH  41  42
ENDBRANCH  39  41
ENDBRANCH  36  37
ENDBRANCH  35  36
ENDBRANCH  34  35
BRANCH  34  50
HETATM   50  N10 UNL     1       7.609  20.224  15.030  1.00  0.00    -0.355 N 
HETATM   51  C29 UNL     1       8.447  21.204  15.584  1.00  0.00     0.213 C 
HETATM   52  C30 UNL     1       9.789  21.439  15.017  1.00  0.00     0.117 C 
HETATM   53  O2  UNL     1       8.073  21.889  16.559  1.00  0.00    -0.274 OA
ATOM     54  H10 UNL     1       7.962  19.695  14.233  1.00  0.00     0.162 HD
ENDBRANCH  34  50
ENDBRANCH  33  34
ENDBRANCH  31  33
ENDBRANCH  30  31
ENDBRANCH  29  30
ENDBRANCH  28  29
ENDBRANCH   1  28
TORSDOF 21
ENDMDL
MODEL 3
REMARK VINA RESULT: -6.396075115      8.456     11.655
REMARK  21 active torsions:
REMARK  status: ('A' for Active; 'I' for Inactive)
REMARK    1  A    between atoms: C2_2  and  N1_3 
REMARK    2  A    between atoms: C4_8  and  N3_9 
REMARK    3  A    between atoms: C6_18  and  N6_19 
REMARK    4  A    between atoms: N6_19  and  C7_21 
REMARK    5  A    between atoms: C7_21  and  C8_22 
REMARK    6  A    between atoms: C8_22  and  C9_23 
REMARK    7  A    between atoms: C9_23  and  C10_24 
REMARK    8  A    between atoms: C10_24  and  C11_25 
REMARK    9  A    between atoms: C11_25  and  C12_26 
REMARK   10  A    between atoms: C12_26  and  C13_27 
REMARK   11  A    between atoms: C13_27  and  C14_28 
REMARK   12  A    between atoms: C14_28  and  N7_29 
REMARK   13  A    between atoms: N7_29  and  C16_31 
REMARK   14  A    between atoms: C16_31  and  C17_32 
REMARK   15  A    between atoms: C17_32  and  C18_33 
REMARK   16  A    between atoms: C17_32  and  N10_48 
REMARK   17  A    between atoms: C18_33  and  C19_34 
REMARK   18  A    between atoms: C19_34  and  C20_35 
REMARK       I    between atoms: C20_35  and  N8_37 
REMARK   19  A    between atoms: N8_37  and  C22_39 
REMARK   20  A    between atoms: C22_39  and  C23_40 
REMARK   21  A    between atoms: C23_40  and  C24_41 
REMARK       I    between atoms: N10_48  and  C29_50 
ROOT
HETATM    1  C11 UNL     1       4.140  19.453   9.770  1.00  0.00     0.000 C 
ENDROOT
BRANCH   1   2
HETATM    2  C10 UNL     1       3.313  18.247   9.681  1.00  0.00     0.000 C 
BRANCH   2   3
HETATM    3  C9  UNL     1       3.157  17.243  10.718  1.00  0.00     0.002 C 
BRANCH   3   4
HETATM    4  C8  UNL     1       1.858  17.023  11.404  1.00  0.00     0.020 C 
BRANCH   4   5
HETATM    5  C7  UNL     1       1.140  15.791  10.755  1.00  0.00     0.121 C 
BRANCH   5   6
HETATM    6  N6  UNL     1       1.239  14.678  11.638  1.00  0.00    -0.373 N 
ATOM      7  H6  UNL     1       2.173  14.277  11.727  1.00  0.00     0.161 HD
BRANCH   6   8
HETATM    8  C6  UNL     1       0.341  14.109  12.328  1.00  0.00     0.161 C 
HETATM    9  C5  UNL     1       0.743  13.776  13.632  1.00  0.00     0.159 C 
HETATM   10  N4  UNL     1       0.319  12.715  14.327  1.00  0.00    -0.173 N 
HETATM   11  N5  UNL     1       1.585  14.579  14.173  1.00  0.00    -0.382 N 
HETATM   12  C4  UNL     1      -0.652  11.811  13.999  1.00  0.00     0.692 C 
ATOM     13  H4  UNL     1       0.782  12.559  15.222  1.00  0.00     0.186 HD
HETATM   14  N2  UNL     1      -1.552  11.896  12.997  1.00  0.00    -0.023 N 
HETATM   15  C3  UNL     1      -1.836  12.986  12.222  1.00  0.00     0.694 C 
ATOM     16  H2  UNL     1      -2.082  11.048  12.794  1.00  0.00     0.203 HD
HETATM   17  N1  UNL     1      -3.042  13.209  11.872  1.00  0.00    -0.226 N 
HETATM   18  N11 UNL     1      -0.881  13.869  11.801  1.00  0.00    -0.173 N 
ATOM     19  H1  UNL     1      -3.259  14.021  11.294  1.00  0.00     0.177 HD
ATOM     20  H11 UNL     1      -1.123  14.420  10.978  1.00  0.00     0.186 HD
ATOM     21  H52 UNL     1       1.877  14.337  15.119  1.00  0.00     0.157 HD
ATOM     22  H51 UNL     1       1.908  15.388  13.643  1.00  0.00     0.157 HD
BRANCH  12  23
HETATM   23  N3  UNL     1      -0.745  10.749  14.702  1.00  0.00    -0.234 N 
ATOM     24  H32 UNL     1      -1.035  10.843  15.675  1.00  0.00     0.174 HD
ATOM     25  H31 UNL     1      -0.511   9.892  14.201  1.00  0.00     0.174 HD
ENDBRANCH  12  23
BRANCH  17  26
HETATM   26  C2  UNL     1      -4.099  12.327  12.284  1.00  0.00     0.133 C 
HETATM   27  C1  UNL     1      -5.374  13.044  12.610  1.00  0.00     0.027 C 
ENDBRANCH  17  26
ENDBRANCH   6   8
ENDBRANCH   5   6
ENDBRANCH   4   5
ENDBRANCH   3   4
ENDBRANCH   2   3
ENDBRANCH   1   2
BRANCH   1  28
HETATM   28  C12 UNL     1       5.315  19.338  10.679  1.00  0.00     0.005 C 
BRANCH  28  29
HETATM   29  C13 UNL     1       5.168  20.154  11.926  1.00  0.00     0.044 C 
BRANCH  29  30
HETATM   30  C14 UNL     1       4.936  19.433  13.196  1.00  0.00     0.057 C 
BRANCH  30  31
HETATM   31  N7  UNL     1       4.392  20.174  14.244  1.00  0.00    -0.396 N 
HETATM   32  C15 UNL     1       3.643  21.350  13.996  1.00  0.00     0.148 C 
BRANCH  31  33
HETATM   33  C16 UNL     1       4.951  20.097  15.540  1.00  0.00     0.146 C 
BRANCH  33  34
HETATM   34  C17 UNL     1       5.662  18.844  15.879  1.00  0.00     0.102 C 
BRANCH  34  35
HETATM   35  C18 UNL     1       7.076  18.912  16.297  1.00  0.00     0.036 C 
BRANCH  35  36
HETATM   36  C19 UNL     1       7.603  20.297  15.868  1.00  0.00     0.105 C 
BRANCH  36  37
HETATM   37  C20 UNL     1       8.595  20.137  14.783  1.00  0.00     0.219 C 
HETATM   38  O1  UNL     1       9.440  19.211  14.761  1.00  0.00    -0.273 OA
HETATM   39  N8  UNL     1       8.609  21.071  13.707  1.00  0.00    -0.356 N 
HETATM   40  C21 UNL     1       7.657  22.160  13.642  1.00  0.00     0.152 C 
BRANCH  39  41
HETATM   41  C22 UNL     1       9.597  20.975  12.638  1.00  0.00     0.125 C 
BRANCH  41  42
HETATM   42  C23 UNL     1       8.968  20.474  11.379  1.00  0.00     0.024 C 
BRANCH  42  43
HETATM   43  C24 UNL     1       9.241  19.022  11.119  1.00  0.00    -0.010 C 
HETATM   44  C25 UNL     1      10.656  18.679  11.518  1.00  0.00     0.024 C 
HETATM   45  C26 UNL     1      10.828  17.187  11.312  1.00  0.00     0.114 C 
HETATM   46  N9  UNL     1      10.574  16.748   9.976  1.00  0.00    -0.421 N 
HETATM   47  C27 UNL     1       9.982  17.716   9.106  1.00  0.00     0.114 C 
ATOM     48  H9  UNL     1      10.802  15.804   9.664  1.00  0.00     0.153 HD
HETATM   49  C28 UNL     1       8.910  18.558   9.740  1.00  0.00     0.024 C 
ENDBRANCH  42  43
ENDBRANCH  41  42
ENDBRANCH  39  41
ENDBRANCH  36  37
ENDBRANCH  35  36
ENDBRANCH  34  35
BRANCH  34  50
HETATM   50  N10 UNL     1       4.867  17.996  16.778  1.00  0.00    -0.355 N 
HETATM   51  C29 UNL     1       4.051  16.934  16.359  1.00  0.00     0.213 C 
HETATM   52  C30 UNL     1       3.297  16.142  17.350  1.00  0.00     0.117 C 
HETATM   53  O2  UNL     1       3.950  16.645  15.148  1.00  0.00    -0.274 OA
ATOM     54  H10 UNL     1       4.912  18.193  17.778  1.00  0.00     0.162 HD
ENDBRANCH  34  50
ENDBRANCH  33  34
ENDBRANCH  31  33
ENDBRANCH  30  31
ENDBRANCH  29  30
ENDBRANCH  28  29
ENDBRANCH   1  28
TORSDOF 21
ENDMDL
MODEL 4
REMARK VINA RESULT: -6.277967266      3.442      6.983
REMARK  21 active torsions:
REMARK  status: ('A' for Active; 'I' for Inactive)
REMARK    1  A    between atoms: C2_2  and  N1_3 
REMARK    2  A    between atoms: C4_8  and  N3_9 
REMARK    3  A    between atoms: C6_18  and  N6_19 
REMARK    4  A    between atoms: N6_19  and  C7_21 
REMARK    5  A    between atoms: C7_21  and  C8_22 
REMARK    6  A    between atoms: C8_22  and  C9_23 
REMARK    7  A    between atoms: C9_23  and  C10_24 
REMARK    8  A    between atoms: C10_24  and  C11_25 
REMARK    9  A    between atoms: C11_25  and  C12_26 
REMARK   10  A    between atoms: C12_26  and  C13_27 
REMARK   11  A    between atoms: C13_27  and  C14_28 
REMARK   12  A    between atoms: C14_28  and  N7_29 
REMARK   13  A    between atoms: N7_29  and  C16_31 
REMARK   14  A    between atoms: C16_31  and  C17_32 
REMARK   15  A    between atoms: C17_32  and  C18_33 
REMARK   16  A    between atoms: C17_32  and  N10_48 
REMARK   17  A    between atoms: C18_33  and  C19_34 
REMARK   18  A    between atoms: C19_34  and  C20_35 
REMARK       I    between atoms: C20_35  and  N8_37 
REMARK   19  A    between atoms: N8_37  and  C22_39 
REMARK   20  A    between atoms: C22_39  and  C23_40 
REMARK   21  A    between atoms: C23_40  and  C24_41 
REMARK       I    between atoms: N10_48  and  C29_50 
ROOT
HETATM    1  C11 UNL     1      10.225  20.650  11.351  1.00  0.00     0.000 C 
ENDROOT
BRANCH   1   2
HETATM    2  C10 UNL     1      10.722  20.681   9.973  1.00  0.00     0.000 C 
BRANCH   2   3
HETATM    3  C9  UNL     1      10.061  20.104   8.816  1.00  0.00     0.002 C 
BRANCH   3   4
HETATM    4  C8  UNL     1      10.822  19.399   7.753  1.00  0.00     0.020 C 
BRANCH   4   5
HETATM    5  C7  UNL     1      12.220  18.977   8.319  1.00  0.00     0.121 C 
BRANCH   5   6
HETATM    6  N6  UNL     1      12.157  17.621   8.750  1.00  0.00    -0.373 N 
ATOM      7  H6  UNL     1      11.928  16.944   8.021  1.00  0.00     0.161 HD
BRANCH   6   8
HETATM    8  C6  UNL     1      12.343  17.128   9.903  1.00  0.00     0.161 C 
HETATM    9  C5  UNL     1      11.173  16.999  10.668  1.00  0.00     0.159 C 
HETATM   10  N4  UNL     1      11.101  17.115  11.999  1.00  0.00    -0.173 N 
HETATM   11  N5  UNL     1      10.104  16.748  10.006  1.00  0.00    -0.382 N 
HETATM   12  C4  UNL     1      12.117  17.257  12.901  1.00  0.00     0.692 C 
ATOM     13  H4  UNL     1      10.161  17.094  12.393  1.00  0.00     0.186 HD
HETATM   14  N2  UNL     1      13.440  17.106  12.682  1.00  0.00    -0.023 N 
HETATM   15  C3  UNL     1      14.047  16.576  11.577  1.00  0.00     0.694 C 
ATOM     16  H2  UNL     1      14.060  17.424  13.428  1.00  0.00     0.203 HD
HETATM   17  N1  UNL     1      15.088  15.852  11.721  1.00  0.00    -0.226 N 
HETATM   18  N11 UNL     1      13.585  16.777  10.306  1.00  0.00    -0.173 N 
ATOM     19  H1  UNL     1      15.543  15.454  10.899  1.00  0.00     0.177 HD
ATOM     20  H11 UNL     1      14.270  16.644   9.562  1.00  0.00     0.186 HD
ATOM     21  H52 UNL     1       9.254  16.654  10.562  1.00  0.00     0.157 HD
ATOM     22  H51 UNL     1      10.160  16.660   8.991  1.00  0.00     0.157 HD
BRANCH  12  23
HETATM   23  N3  UNL     1      11.814  17.571  14.101  1.00  0.00    -0.234 N 
ATOM     24  H32 UNL     1      11.149  16.979  14.598  1.00  0.00     0.174 HD
ATOM     25  H31 UNL     1      12.284  18.408  14.447  1.00  0.00     0.174 HD
ENDBRANCH  12  23
BRANCH  17  26
HETATM   26  C2  UNL     1      15.625  15.593  13.027  1.00  0.00     0.133 C 
HETATM   27  C1  UNL     1      14.690  14.819  13.908  1.00  0.00     0.027 C 
ENDBRANCH  17  26
ENDBRANCH   6   8
ENDBRANCH   5   6
ENDBRANCH   4   5
ENDBRANCH   3   4
ENDBRANCH   2   3
ENDBRANCH   1   2
BRANCH   1  28
HETATM   28  C12 UNL     1       8.794  21.037  11.507  1.00  0.00     0.005 C 
BRANCH  28  29
HETATM   29  C13 UNL     1       8.622  22.386  12.134  1.00  0.00     0.044 C 
BRANCH  29  30
HETATM   30  C14 UNL     1       9.640  23.416  11.839  1.00  0.00     0.057 C 
BRANCH  30  31
HETATM   31  N7  UNL     1      10.281  23.992  12.934  1.00  0.00    -0.396 N 
HETATM   32  C15 UNL     1       9.923  25.282  13.396  1.00  0.00     0.148 C 
BRANCH  31  33
HETATM   33  C16 UNL     1      11.583  23.578  13.299  1.00  0.00     0.146 C 
BRANCH  33  34
HETATM   34  C17 UNL     1      11.715  22.885  14.600  1.00  0.00     0.102 C 
BRANCH  34  35
HETATM   35  C18 UNL     1      11.172  21.522  14.746  1.00  0.00     0.036 C 
BRANCH  35  36
HETATM   36  C19 UNL     1       9.879  21.642  15.579  1.00  0.00     0.105 C 
BRANCH  36  37
HETATM   37  C20 UNL     1       8.953  20.546  15.223  1.00  0.00     0.219 C 
HETATM   38  O1  UNL     1       9.345  19.423  14.825  1.00  0.00    -0.273 OA
HETATM   39  N8  UNL     1       7.548  20.758  15.326  1.00  0.00    -0.356 N 
HETATM   40  C21 UNL     1       7.008  22.018  15.794  1.00  0.00     0.152 C 
BRANCH  39  41
HETATM   41  C22 UNL     1       6.599  19.718  14.945  1.00  0.00     0.125 C 
BRANCH  41  42
HETATM   42  C23 UNL     1       6.156  18.942  16.142  1.00  0.00     0.024 C 
BRANCH  42  43
HETATM   43  C24 UNL     1       4.904  18.150  15.903  1.00  0.00    -0.010 C 
HETATM   44  C25 UNL     1       5.220  16.674  15.878  1.00  0.00     0.024 C 
HETATM   45  C26 UNL     1       3.903  15.939  15.723  1.00  0.00     0.114 C 
HETATM   46  N9  UNL     1       3.163  16.303  14.557  1.00  0.00    -0.421 N 
HETATM   47  C27 UNL     1       3.646  17.446  13.846  1.00  0.00     0.114 C 
ATOM     48  H9  UNL     1       2.343  15.780  14.251  1.00  0.00     0.153 HD
HETATM   49  C28 UNL     1       4.104  18.581  14.720  1.00  0.00     0.024 C 
ENDBRANCH  42  43
ENDBRANCH  41  42
ENDBRANCH  39  41
ENDBRANCH  36  37
ENDBRANCH  35  36
ENDBRANCH  34  35
BRANCH  34  50
HETATM   50  N10 UNL     1      13.081  22.989  15.132  1.00  0.00    -0.355 N 
HETATM   51  C29 UNL     1      13.398  23.138  16.492  1.00  0.00     0.213 C 
HETATM   52  C30 UNL     1      14.808  23.226  16.918  1.00  0.00     0.117 C 
HETATM   53  O2  UNL     1      12.499  23.196  17.355  1.00  0.00    -0.274 OA
ATOM     54  H10 UNL     1      13.853  22.949  14.467  1.00  0.00     0.162 HD
ENDBRANCH  34  50
ENDBRANCH  33  34
ENDBRANCH  31  33
ENDBRANCH  30  31
ENDBRANCH  29  30
ENDBRANCH  28  29
ENDBRANCH   1  28
TORSDOF 21
ENDMDL
MODEL 5
REMARK VINA RESULT: -6.247238503      8.028     11.385
REMARK  21 active torsions:
REMARK  status: ('A' for Active; 'I' for Inactive)
REMARK    1  A    between atoms: C2_2  and  N1_3 
REMARK    2  A    between atoms: C4_8  and  N3_9 
REMARK    3  A    between atoms: C6_18  and  N6_19 
REMARK    4  A    between atoms: N6_19  and  C7_21 
REMARK    5  A    between atoms: C7_21  and  C8_22 
REMARK    6  A    between atoms: C8_22  and  C9_23 
REMARK    7  A    between atoms: C9_23  and  C10_24 
REMARK    8  A    between atoms: C10_24  and  C11_25 
REMARK    9  A    between atoms: C11_25  and  C12_26 
REMARK   10  A    between atoms: C12_26  and  C13_27 
REMARK   11  A    between atoms: C13_27  and  C14_28 
REMARK   12  A    between atoms: C14_28  and  N7_29 
REMARK   13  A    between atoms: N7_29  and  C16_31 
REMARK   14  A    between atoms: C16_31  and  C17_32 
REMARK   15  A    between atoms: C17_32  and  C18_33 
REMARK   16  A    between atoms: C17_32  and  N10_48 
REMARK   17  A    between atoms: C18_33  and  C19_34 
REMARK   18  A    between atoms: C19_34  and  C20_35 
REMARK       I    between atoms: C20_35  and  N8_37 
REMARK   19  A    between atoms: N8_37  and  C22_39 
REMARK   20  A    between atoms: C22_39  and  C23_40 
REMARK   21  A    between atoms: C23_40  and  C24_41 
REMARK       I    between atoms: N10_48  and  C29_50 
ROOT
HETATM    1  C11 UNL     1       3.710  17.533  10.350  1.00  0.00     0.000 C 
ENDROOT
BRANCH   1   2
HETATM    2  C10 UNL     1       3.487  18.308  11.573  1.00  0.00     0.000 C 
BRANCH   2   3
HETATM    3  C9  UNL     1       3.416  17.770  12.920  1.00  0.00     0.002 C 
BRANCH   3   4
HETATM    4  C8  UNL     1       2.175  17.858  13.732  1.00  0.00     0.020 C 
BRANCH   4   5
HETATM    5  C7  UNL     1       1.003  17.175  12.950  1.00  0.00     0.121 C 
BRANCH   5   6
HETATM    6  N6  UNL     1       1.349  15.820  12.682  1.00  0.00    -0.373 N 
ATOM      7  H6  UNL     1       2.274  15.681  12.277  1.00  0.00     0.161 HD
BRANCH   6   8
HETATM    8  C6  UNL     1       0.679  14.761  12.872  1.00  0.00     0.161 C 
HETATM    9  C5  UNL     1       0.407  14.035  11.701  1.00  0.00     0.159 C 
HETATM   10  N4  UNL     1      -0.693  13.308  11.477  1.00  0.00    -0.173 N 
HETATM   11  N5  UNL     1       1.312  14.093  10.793  1.00  0.00    -0.382 N 
HETATM   12  C4  UNL     1      -1.712  13.013  12.337  1.00  0.00     0.692 C 
ATOM     13  H4  UNL     1      -0.784  12.924  10.537  1.00  0.00     0.186 HD
HETATM   14  N2  UNL     1      -1.746  13.209  13.673  1.00  0.00    -0.023 N 
HETATM   15  C3  UNL     1      -0.705  13.547  14.492  1.00  0.00     0.694 C 
ATOM     16  H2  UNL     1      -2.654  13.092  14.122  1.00  0.00     0.203 HD
HETATM   17  N1  UNL     1      -0.635  13.037  15.659  1.00  0.00    -0.226 N 
HETATM   18  N11 UNL     1       0.286  14.411  14.118  1.00  0.00    -0.173 N 
ATOM     19  H1  UNL     1       0.141  13.285  16.273  1.00  0.00     0.177 HD
ATOM     20  H11 UNL     1       0.798  14.852  14.882  1.00  0.00     0.186 HD
ATOM     21  H52 UNL     1       1.114  13.566   9.942  1.00  0.00     0.157 HD
ATOM     22  H51 UNL     1       2.151  14.647  10.964  1.00  0.00     0.157 HD
BRANCH  12  23
HETATM   23  N3  UNL     1      -2.772  12.490  11.855  1.00  0.00    -0.234 N 
ATOM     24  H32 UNL     1      -3.247  12.981  11.098  1.00  0.00     0.174 HD
ATOM     25  H31 UNL     1      -3.042  11.608  12.292  1.00  0.00     0.174 HD
ENDBRANCH  12  23
BRANCH  17  26
HETATM   26  C2  UNL     1      -1.637  12.115  16.116  1.00  0.00     0.133 C 
HETATM   27  C1  UNL     1      -1.187  10.685  16.077  1.00  0.00     0.027 C 
ENDBRANCH  17  26
ENDBRANCH   6   8
ENDBRANCH   5   6
ENDBRANCH   4   5
ENDBRANCH   3   4
ENDBRANCH   2   3
ENDBRANCH   1   2
BRANCH   1  28
HETATM   28  C12 UNL     1       4.479  18.247   9.291  1.00  0.00     0.005 C 
BRANCH  28  29
HETATM   29  C13 UNL     1       3.676  19.310   8.607  1.00  0.00     0.044 C 
BRANCH  29  30
HETATM   30  C14 UNL     1       4.145  20.708   8.723  1.00  0.00     0.057 C 
BRANCH  30  31
HETATM   31  N7  UNL     1       5.058  21.141   7.764  1.00  0.00    -0.396 N 
HETATM   32  C15 UNL     1       5.066  20.588   6.460  1.00  0.00     0.148 C 
BRANCH  31  33
HETATM   33  C16 UNL     1       6.278  21.736   8.157  1.00  0.00     0.146 C 
BRANCH  33  34
HETATM   34  C17 UNL     1       7.006  21.082   9.267  1.00  0.00     0.102 C 
BRANCH  34  35
HETATM   35  C18 UNL     1       8.250  20.346   8.974  1.00  0.00     0.036 C 
BRANCH  35  36
HETATM   36  C19 UNL     1       8.158  18.998   9.720  1.00  0.00     0.105 C 
BRANCH  36  37
HETATM   37  C20 UNL     1       9.199  18.938  10.768  1.00  0.00     0.219 C 
HETATM   38  O1  UNL     1       9.293  19.786  11.687  1.00  0.00    -0.273 OA
HETATM   39  N8  UNL     1      10.150  17.877  10.747  1.00  0.00    -0.356 N 
HETATM   40  C21 UNL     1      10.104  16.844   9.733  1.00  0.00     0.152 C 
BRANCH  39  41
HETATM   41  C22 UNL     1      11.219  17.802  11.737  1.00  0.00     0.125 C 
BRANCH  41  42
HETATM   42  C23 UNL     1      12.279  16.847  11.300  1.00  0.00     0.024 C 
BRANCH  42  43
HETATM   43  C24 UNL     1      13.477  16.837  12.204  1.00  0.00    -0.010 C 
HETATM   44  C25 UNL     1      14.701  16.393  11.441  1.00  0.00     0.024 C 
HETATM   45  C26 UNL     1      15.879  16.494  12.389  1.00  0.00     0.114 C 
HETATM   46  N9  UNL     1      15.737  15.722  13.582  1.00  0.00    -0.421 N 
HETATM   47  C27 UNL     1      14.440  15.166  13.813  1.00  0.00     0.114 C 
ATOM     48  H9  UNL     1      16.512  15.576  14.229  1.00  0.00     0.153 HD
HETATM   49  C28 UNL     1      13.296  16.084  13.478  1.00  0.00     0.024 C 
ENDBRANCH  42  43
ENDBRANCH  41  42
ENDBRANCH  39  41
ENDBRANCH  36  37
ENDBRANCH  35  36
ENDBRANCH  34  35
BRANCH  34  50
HETATM   50  N10 UNL     1       7.163  21.983  10.417  1.00  0.00    -0.355 N 
HETATM   51  C29 UNL     1       6.570  21.783  11.674  1.00  0.00     0.213 C 
HETATM   52  C30 UNL     1       6.799  22.751  12.764  1.00  0.00     0.117 C 
HETATM   53  O2  UNL     1       5.845  20.789  11.888  1.00  0.00    -0.274 OA
ATOM     54  H10 UNL     1       7.744  22.812  10.294  1.00  0.00     0.162 HD
ENDBRANCH  34  50
ENDBRANCH  33  34
ENDBRANCH  31  33
ENDBRANCH  30  31
ENDBRANCH  29  30
ENDBRANCH  28  29
ENDBRANCH   1  28
TORSDOF 21
ENDMDL
