MODEL 1
REMARK VINA RESULT: -6.740276661      0.000      0.000
REMARK  21 active torsions:
REMARK  status: ('A' for Active; 'I' for Inactive)
REMARK    1  A    between atoms: C2_2  and  C3_3 
REMARK    2  A    between atoms: C3_3  and  S1_4 
REMARK    3  A    between atoms: S1_4  and  C4_5 
REMARK    4  A    between atoms: C4_5  and  C5_6 
REMARK    5  A    between atoms: C5_6  and  N1_7 
REMARK    6  A    between atoms: C5_6  and  C12_16 
REMARK    7  A    between atoms: N1_7  and  C6_10 
REMARK    8  A    between atoms: C6_10  and  C8_12 
REMARK       I    between atoms: C12_16  and  N2_18 
REMARK    9  A    between atoms: N2_18  and  C13_20 
REMARK   10  A    between atoms: C13_20  and  C14_21 
REMARK   11  A    between atoms: C13_20  and  C27_45 
REMARK       I    between atoms: C14_21  and  N3_23 
REMARK   12  A    between atoms: N3_23  and  C15_25 
REMARK   13  A    between atoms: C15_25  and  C16_26 
REMARK   14  A    between atoms: C15_25  and  C20_34 
REMARK   15  A    between atoms: C16_26  and  C17_27 
REMARK   16  A    between atoms: C17_27  and  C18_28 
REMARK   17  A    between atoms: C18_28  and  N4_29 
REMARK       I    between atoms: C20_34  and  N7_36 
REMARK   18  A    between atoms: N7_36  and  C21_38 
REMARK   19  A    between atoms: C21_38  and  C22_39 
REMARK   20  A    between atoms: C21_38  and  C23_41 
REMARK   21  A    between atoms: C23_41  and  C24_42 
ROOT
HETATM    1  C14 UNL     1       9.957  18.728  10.771  1.00  0.00     0.265 C 
HETATM    2  O2  UNL     1      10.002  17.497  11.161  1.00  0.00    -0.266 OA
HETATM    3  N3  UNL     1      10.812  19.151   9.813  1.00  0.00    -0.343 N 
ATOM      4  H3  UNL     1      10.756  20.149   9.613  1.00  0.00     0.163 HD
ENDROOT
BRANCH   1   5
HETATM    5  C13 UNL     1       8.898  19.489  11.482  1.00  0.00     0.083 C 
BRANCH   5   6
HETATM    6  N2  UNL     1       9.322  20.399  12.486  1.00  0.00    -0.324 N 
HETATM    7  C12 UNL     1       9.926  20.196  13.745  1.00  0.00     0.253 C 
HETATM    8  O1  UNL     1      10.193  19.068  14.190  1.00  0.00    -0.271 OA
ATOM      9  H2  UNL     1       9.162  21.380  12.254  1.00  0.00     0.169 HD
BRANCH   7  10
HETATM   10  C5  UNL     1      10.274  21.375  14.605  1.00  0.00     0.287 C 
BRANCH  10  11
HETATM   11  C4  UNL     1       9.364  21.449  15.806  1.00  0.00     0.117 C 
BRANCH  11  12
HETATM   12  S1  UNL     1       7.665  21.205  15.515  1.00  0.00    -0.163 SA
BRANCH  12  13
HETATM   13  C3  UNL     1       6.784  19.729  15.658  1.00  0.00     0.100 C 
BRANCH  13  14
HETATM   14  C2  UNL     1       5.509  19.563  14.946  1.00  0.00    -0.027 C 
HETATM   15  C1  UNL     1       4.689  18.533  15.205  1.00  0.00     0.007 C 
ENDBRANCH  13  14
ENDBRANCH  12  13
ENDBRANCH  11  12
ENDBRANCH  10  11
BRANCH  10  16
HETATM   16  N1  UNL     1      11.636  21.504  14.963  1.00  0.00    -0.057 N 
ATOM     17  H12 UNL     1      11.881  20.905  15.751  1.00  0.00     0.278 HD
ATOM     18  H11 UNL     1      12.254  21.093  14.262  1.00  0.00     0.278 HD
BRANCH  16  19
HETATM   19  C6  UNL     1      11.966  22.914  15.224  1.00  0.00     0.190 C 
HETATM   20  C7  UNL     1      12.265  23.501  13.873  1.00  0.00     0.041 C 
BRANCH  19  21
HETATM   21  C8  UNL     1      12.896  23.159  16.329  1.00  0.00    -0.023 C 
HETATM   22  C9  UNL     1      12.520  22.303  17.560  1.00  0.00     0.016 C 
HETATM   23  C10 UNL     1      12.932  24.594  16.796  1.00  0.00     0.016 C 
HETATM   24  C11 UNL     1      14.349  22.783  16.049  1.00  0.00     0.016 C 
ENDBRANCH  19  21
ENDBRANCH  16  19
ENDBRANCH  10  16
ENDBRANCH   7  10
ENDBRANCH   5   6
BRANCH   5  25
HETATM   25  C27 UNL     1       7.771  20.021  10.701  1.00  0.00     0.033 C 
HETATM   26  C28 UNL     1       7.330  19.237   9.518  1.00  0.00     0.016 C 
HETATM   27  C29 UNL     1       6.644  20.503  11.538  1.00  0.00     0.016 C 
ENDBRANCH   5  25
ENDBRANCH   1   5
BRANCH   3  28
HETATM   28  C15 UNL     1      11.800  18.432   9.017  1.00  0.00     0.177 C 
BRANCH  28  29
HETATM   29  C16 UNL     1      11.119  17.888   7.754  1.00  0.00     0.036 C 
BRANCH  29  30
HETATM   30  C17 UNL     1      11.615  18.349   6.452  1.00  0.00     0.022 C 
BRANCH  30  31
HETATM   31  C18 UNL     1      12.223  17.368   5.513  1.00  0.00     0.122 C 
BRANCH  31  32
HETATM   32  N4  UNL     1      13.345  17.786   4.757  1.00  0.00    -0.367 N 
HETATM   33  C19 UNL     1      14.077  17.038   4.030  1.00  0.00     0.196 C 
HETATM   34  N5  UNL     1      15.184  17.580   3.311  1.00  0.00    -0.067 NA
HETATM   35  N6  UNL     1      13.871  15.635   3.885  1.00  0.00    -0.067 NA
ATOM     36  H4  UNL     1      13.590  18.775   4.798  1.00  0.00     0.161 HD
ENDBRANCH  31  32
ENDBRANCH  30  31
ENDBRANCH  29  30
ENDBRANCH  28  29
BRANCH  28  37
HETATM   37  C20 UNL     1      12.370  17.313   9.784  1.00  0.00     0.241 C 
HETATM   38  O3  UNL     1      12.348  16.159   9.224  1.00  0.00    -0.271 OA
HETATM   39  N7  UNL     1      12.921  17.418  11.051  1.00  0.00    -0.348 N 
ATOM     40  H7  UNL     1      12.920  18.330  11.507  1.00  0.00     0.163 HD
BRANCH  39  41
HETATM   41  C21 UNL     1      13.507  16.279  11.768  1.00  0.00     0.146 C 
BRANCH  41  42
HETATM   42  C22 UNL     1      13.113  16.377  13.202  1.00  0.00     0.256 C 
HETATM   43  O4  UNL     1      12.013  15.988  13.516  1.00  0.00    -0.305 OA
ENDBRANCH  41  42
BRANCH  41  44
HETATM   44  C23 UNL     1      14.958  16.300  11.490  1.00  0.00     0.036 C 
BRANCH  44  45
HETATM   45  C24 UNL     1      15.893  16.541  12.609  1.00  0.00    -0.020 C 
HETATM   46  C25 UNL     1      17.131  17.336  12.229  1.00  0.00     0.009 C 
HETATM   47  C26 UNL     1      16.247  15.318  13.374  1.00  0.00     0.009 C 
ENDBRANCH  44  45
ENDBRANCH  41  44
ENDBRANCH  39  41
ENDBRANCH  28  37
ENDBRANCH   3  28
TORSDOF 21
ENDMDL
MODEL 2
REMARK VINA RESULT: -6.648028855      1.881      5.082
REMARK  21 active torsions:
REMARK  status: ('A' for Active; 'I' for Inactive)
REMARK    1  A    between atoms: C2_2  and  C3_3 
REMARK    2  A    between atoms: C3_3  and  S1_4 
REMARK    3  A    between atoms: S1_4  and  C4_5 
REMARK    4  A    between atoms: C4_5  and  C5_6 
REMARK    5  A    between atoms: C5_6  and  N1_7 
REMARK    6  A    between atoms: C5_6  and  C12_16 
REMARK    7  A    between atoms: N1_7  and  C6_10 
REMARK    8  A    between atoms: C6_10  and  C8_12 
REMARK       I    between atoms: C12_16  and  N2_18 
REMARK    9  A    between atoms: N2_18  and  C13_20 
REMARK   10  A    between atoms: C13_20  and  C14_21 
REMARK   11  A    between atoms: C13_20  and  C27_45 
REMARK       I    between atoms: C14_21  and  N3_23 
REMARK   12  A    between atoms: N3_23  and  C15_25 
REMARK   13  A    between atoms: C15_25  and  C16_26 
REMARK   14  A    between atoms: C15_25  and  C20_34 
REMARK   15  A    between atoms: C16_26  and  C17_27 
REMARK   16  A    between atoms: C17_27  and  C18_28 
REMARK   17  A    between atoms: C18_28  and  N4_29 
REMARK       I    between atoms: C20_34  and  N7_36 
REMARK   18  A    between atoms: N7_36  and  C21_38 
REMARK   19  A    between atoms: C21_38  and  C22_39 
REMARK   20  A    between atoms: C21_38  and  C23_41 
REMARK   21  A    between atoms: C23_41  and  C24_42 
ROOT
HETATM    1  C14 UNL     1      10.159  18.824  10.816  1.00  0.00     0.265 C 
HETATM    2  O2  UNL     1      10.902  19.631  10.132  1.00  0.00    -0.266 OA
HETATM    3  N3  UNL     1      10.443  17.503  10.818  1.00  0.00    -0.343 N 
ATOM      4  H3  UNL     1       9.770  16.930  11.327  1.00  0.00     0.163 HD
ENDROOT
BRANCH   1   5
HETATM    5  C13 UNL     1       9.076  19.550  11.528  1.00  0.00     0.083 C 
BRANCH   5   6
HETATM    6  N2  UNL     1       9.470  20.461  12.543  1.00  0.00    -0.324 N 
HETATM    7  C12 UNL     1       9.838  20.266  13.891  1.00  0.00     0.253 C 
HETATM    8  O1  UNL     1       9.868  19.146  14.426  1.00  0.00    -0.271 OA
ATOM      9  H2  UNL     1       9.490  21.436  12.242  1.00  0.00     0.169 HD
BRANCH   7  10
HETATM   10  C5  UNL     1      10.218  21.444  14.740  1.00  0.00     0.287 C 
BRANCH  10  11
HETATM   11  C4  UNL     1       9.307  21.558  15.936  1.00  0.00     0.117 C 
BRANCH  11  12
HETATM   12  S1  UNL     1       7.725  22.227  15.654  1.00  0.00    -0.163 SA
BRANCH  12  13
HETATM   13  C3  UNL     1       6.246  21.361  15.459  1.00  0.00     0.100 C 
BRANCH  13  14
HETATM   14  C2  UNL     1       6.263  19.897  15.338  1.00  0.00    -0.027 C 
HETATM   15  C1  UNL     1       5.237  19.225  14.794  1.00  0.00     0.007 C 
ENDBRANCH  13  14
ENDBRANCH  12  13
ENDBRANCH  11  12
ENDBRANCH  10  11
BRANCH  10  16
HETATM   16  N1  UNL     1      11.583  21.537  15.100  1.00  0.00    -0.057 N 
ATOM     17  H12 UNL     1      11.807  20.941  15.897  1.00  0.00     0.278 HD
ATOM     18  H11 UNL     1      12.190  21.098  14.407  1.00  0.00     0.278 HD
BRANCH  16  19
HETATM   19  C6  UNL     1      11.953  22.940  15.343  1.00  0.00     0.190 C 
HETATM   20  C7  UNL     1      12.291  23.494  13.988  1.00  0.00     0.041 C 
BRANCH  19  21
HETATM   21  C8  UNL     1      12.875  23.172  16.458  1.00  0.00    -0.023 C 
HETATM   22  C9  UNL     1      14.330  22.864  16.040  1.00  0.00     0.016 C 
HETATM   23  C10 UNL     1      12.589  22.329  17.678  1.00  0.00     0.016 C 
HETATM   24  C11 UNL     1      12.934  24.613  16.962  1.00  0.00     0.016 C 
ENDBRANCH  19  21
ENDBRANCH  16  19
ENDBRANCH  10  16
ENDBRANCH   7  10
ENDBRANCH   5   6
BRANCH   5  25
HETATM   25  C27 UNL     1       7.940  20.058  10.745  1.00  0.00     0.033 C 
HETATM   26  C28 UNL     1       7.511  19.260   9.568  1.00  0.00     0.016 C 
HETATM   27  C29 UNL     1       6.806  20.527  11.581  1.00  0.00     0.016 C 
ENDBRANCH   5  25
ENDBRANCH   1   5
BRANCH   3  28
HETATM   28  C15 UNL     1      11.542  16.752  10.221  1.00  0.00     0.177 C 
BRANCH  28  29
HETATM   29  C16 UNL     1      12.741  16.781  11.177  1.00  0.00     0.036 C 
BRANCH  29  30
HETATM   30  C17 UNL     1      12.474  16.952  12.611  1.00  0.00     0.022 C 
BRANCH  30  31
HETATM   31  C18 UNL     1      13.036  15.974  13.580  1.00  0.00     0.122 C 
BRANCH  31  32
HETATM   32  N4  UNL     1      14.443  15.943  13.744  1.00  0.00    -0.367 N 
HETATM   33  C19 UNL     1      15.239  15.104  13.210  1.00  0.00     0.196 C 
HETATM   34  N5  UNL     1      16.644  15.179  13.451  1.00  0.00    -0.067 NA
HETATM   35  N6  UNL     1      14.812  14.041  12.362  1.00  0.00    -0.067 NA
ATOM     36  H4  UNL     1      14.856  16.657  14.344  1.00  0.00     0.161 HD
ENDBRANCH  31  32
ENDBRANCH  30  31
ENDBRANCH  29  30
ENDBRANCH  28  29
BRANCH  28  37
HETATM   37  C20 UNL     1      11.933  17.342   8.931  1.00  0.00     0.241 C 
HETATM   38  O3  UNL     1      13.116  17.831   8.855  1.00  0.00    -0.271 OA
HETATM   39  N7  UNL     1      11.124  17.404   7.808  1.00  0.00    -0.348 N 
ATOM     40  H7  UNL     1      10.175  17.034   7.872  1.00  0.00     0.163 HD
BRANCH  39  41
HETATM   41  C21 UNL     1      11.566  17.974   6.530  1.00  0.00     0.146 C 
BRANCH  41  42
HETATM   42  C22 UNL     1      11.071  19.378   6.449  1.00  0.00     0.256 C 
HETATM   43  O4  UNL     1      11.125  19.938   5.380  1.00  0.00    -0.305 OA
ENDBRANCH  41  42
BRANCH  41  44
HETATM   44  C23 UNL     1      11.100  17.058   5.469  1.00  0.00     0.036 C 
BRANCH  44  45
HETATM   45  C24 UNL     1      12.066  16.602   4.448  1.00  0.00    -0.020 C 
HETATM   46  C25 UNL     1      11.815  17.158   3.057  1.00  0.00     0.009 C 
HETATM   47  C26 UNL     1      12.261  15.129   4.417  1.00  0.00     0.009 C 
ENDBRANCH  44  45
ENDBRANCH  41  44
ENDBRANCH  39  41
ENDBRANCH  28  37
ENDBRANCH   3  28
TORSDOF 21
ENDMDL
MODEL 3
REMARK VINA RESULT: -6.549479393      4.024      8.035
REMARK  21 active torsions:
REMARK  status: ('A' for Active; 'I' for Inactive)
REMARK    1  A    between atoms: C2_2  and  C3_3 
REMARK    2  A    between atoms: C3_3  and  S1_4 
REMARK    3  A    between atoms: S1_4  and  C4_5 
REMARK    4  A    between atoms: C4_5  and  C5_6 
REMARK    5  A    between atoms: C5_6  and  N1_7 
REMARK    6  A    between atoms: C5_6  and  C12_16 
REMARK    7  A    between atoms: N1_7  and  C6_10 
REMARK    8  A    between atoms: C6_10  and  C8_12 
REMARK       I    between atoms: C12_16  and  N2_18 
REMARK    9  A    between atoms: N2_18  and  C13_20 
REMARK   10  A    between atoms: C13_20  and  C14_21 
REMARK   11  A    between atoms: C13_20  and  C27_45 
REMARK       I    between atoms: C14_21  and  N3_23 
REMARK   12  A    between atoms: N3_23  and  C15_25 
REMARK   13  A    between atoms: C15_25  and  C16_26 
REMARK   14  A    between atoms: C15_25  and  C20_34 
REMARK   15  A    between atoms: C16_26  and  C17_27 
REMARK   16  A    between atoms: C17_27  and  C18_28 
REMARK   17  A    between atoms: C18_28  and  N4_29 
REMARK       I    between atoms: C20_34  and  N7_36 
REMARK   18  A    between atoms: N7_36  and  C21_38 
REMARK   19  A    between atoms: C21_38  and  C22_39 
REMARK   20  A    between atoms: C21_38  and  C23_41 
REMARK   21  A    between atoms: C23_41  and  C24_42 
ROOT
HETATM    1  C14 UNL     1      13.207  18.149   4.258  1.00  0.00     0.265 C 
HETATM    2  O2  UNL     1      14.458  18.473   4.313  1.00  0.00    -0.266 OA
HETATM    3  N3  UNL     1      12.334  18.981   3.649  1.00  0.00    -0.343 N 
ATOM      4  H3  UNL     1      11.360  18.684   3.709  1.00  0.00     0.163 HD
ENDROOT
BRANCH   1   5
HETATM    5  C13 UNL     1      12.954  16.834   4.902  1.00  0.00     0.083 C 
BRANCH   5   6
HETATM    6  N2  UNL     1      12.716  16.837   6.302  1.00  0.00    -0.324 N 
HETATM    7  C12 UNL     1      11.855  17.612   7.107  1.00  0.00     0.253 C 
HETATM    8  O1  UNL     1      11.110  18.492   6.645  1.00  0.00    -0.271 OA
ATOM      9  H2  UNL     1      13.269  16.154   6.820  1.00  0.00     0.169 HD
BRANCH   7  10
HETATM   10  C5  UNL     1      11.812  17.384   8.590  1.00  0.00     0.287 C 
BRANCH  10  11
HETATM   11  C4  UNL     1      13.036  16.632   9.050  1.00  0.00     0.117 C 
BRANCH  11  12
HETATM   12  S1  UNL     1      13.398  16.693  10.752  1.00  0.00    -0.163 SA
BRANCH  12  13
HETATM   13  C3  UNL     1      14.839  16.156  11.531  1.00  0.00     0.100 C 
BRANCH  13  14
HETATM   14  C2  UNL     1      15.610  17.084  12.370  1.00  0.00    -0.027 C 
HETATM   15  C1  UNL     1      16.950  17.134  12.314  1.00  0.00     0.007 C 
ENDBRANCH  13  14
ENDBRANCH  12  13
ENDBRANCH  11  12
ENDBRANCH  10  11
BRANCH  10  16
HETATM   16  N1  UNL     1      11.558  18.523   9.388  1.00  0.00    -0.057 N 
ATOM     17  H12 UNL     1      12.398  18.848   9.866  1.00  0.00     0.278 HD
ATOM     18  H11 UNL     1      11.376  19.352   8.821  1.00  0.00     0.278 HD
BRANCH  16  19
HETATM   19  C6  UNL     1      10.461  18.252  10.331  1.00  0.00     0.190 C 
HETATM   20  C7  UNL     1       9.583  17.254   9.631  1.00  0.00     0.041 C 
BRANCH  19  21
HETATM   21  C8  UNL     1       9.848  19.429  10.952  1.00  0.00    -0.023 C 
HETATM   22  C9  UNL     1      10.008  19.383  12.488  1.00  0.00     0.016 C 
HETATM   23  C10 UNL     1       8.370  19.571  10.676  1.00  0.00     0.016 C 
HETATM   24  C11 UNL     1      10.468  20.768  10.558  1.00  0.00     0.016 C 
ENDBRANCH  19  21
ENDBRANCH  16  19
ENDBRANCH  10  16
ENDBRANCH   7  10
ENDBRANCH   5   6
BRANCH   5  25
HETATM   25  C27 UNL     1      12.100  15.863   4.202  1.00  0.00     0.033 C 
HETATM   26  C28 UNL     1      12.189  15.819   2.720  1.00  0.00     0.016 C 
HETATM   27  C29 UNL     1      12.093  14.518   4.830  1.00  0.00     0.016 C 
ENDBRANCH   5  25
ENDBRANCH   1   5
BRANCH   3  28
HETATM   28  C15 UNL     1      12.538  20.229   2.921  1.00  0.00     0.177 C 
BRANCH  28  29
HETATM   29  C16 UNL     1      13.609  20.006   1.846  1.00  0.00     0.036 C 
BRANCH  29  30
HETATM   30  C17 UNL     1      13.325  19.035   0.782  1.00  0.00     0.022 C 
BRANCH  30  31
HETATM   31  C18 UNL     1      14.280  17.920   0.539  1.00  0.00     0.122 C 
BRANCH  31  32
HETATM   32  N4  UNL     1      15.205  17.608   1.565  1.00  0.00    -0.367 N 
HETATM   33  C19 UNL     1      15.779  16.484   1.737  1.00  0.00     0.196 C 
HETATM   34  N5  UNL     1      16.697  16.292   2.812  1.00  0.00    -0.067 NA
HETATM   35  N6  UNL     1      15.552  15.348   0.905  1.00  0.00    -0.067 NA
ATOM     36  H4  UNL     1      15.432  18.349   2.227  1.00  0.00     0.161 HD
ENDBRANCH  31  32
ENDBRANCH  30  31
ENDBRANCH  29  30
ENDBRANCH  28  29
BRANCH  28  37
HETATM   37  C20 UNL     1      12.977  21.296   3.834  1.00  0.00     0.241 C 
HETATM   38  O3  UNL     1      12.063  22.047   4.327  1.00  0.00    -0.271 OA
HETATM   39  N7  UNL     1      14.293  21.541   4.194  1.00  0.00    -0.348 N 
ATOM     40  H7  UNL     1      15.024  20.958   3.786  1.00  0.00     0.163 HD
BRANCH  39  41
HETATM   41  C21 UNL     1      14.685  22.598   5.133  1.00  0.00     0.146 C 
BRANCH  41  42
HETATM   42  C22 UNL     1      15.732  23.437   4.484  1.00  0.00     0.256 C 
HETATM   43  O4  UNL     1      16.873  23.042   4.511  1.00  0.00    -0.305 OA
ENDBRANCH  41  42
BRANCH  41  44
HETATM   44  C23 UNL     1      15.076  21.928   6.390  1.00  0.00     0.036 C 
BRANCH  44  45
HETATM   45  C24 UNL     1      14.265  22.163   7.604  1.00  0.00    -0.020 C 
HETATM   46  C25 UNL     1      12.994  21.335   7.677  1.00  0.00     0.009 C 
HETATM   47  C26 UNL     1      13.995  23.597   7.880  1.00  0.00     0.009 C 
ENDBRANCH  44  45
ENDBRANCH  41  44
ENDBRANCH  39  41
ENDBRANCH  28  37
ENDBRANCH   3  28
TORSDOF 21
ENDMDL
MODEL 4
REMARK VINA RESULT: -6.480145472      1.347      1.782
REMARK  21 active torsions:
REMARK  status: ('A' for Active; 'I' for Inactive)
REMARK    1  A    between atoms: C2_2  and  C3_3 
REMARK    2  A    between atoms: C3_3  and  S1_4 
REMARK    3  A    between atoms: S1_4  and  C4_5 
REMARK    4  A    between atoms: C4_5  and  C5_6 
REMARK    5  A    between atoms: C5_6  and  N1_7 
REMARK    6  A    between atoms: C5_6  and  C12_16 
REMARK    7  A    between atoms: N1_7  and  C6_10 
REMARK    8  A    between atoms: C6_10  and  C8_12 
REMARK       I    between atoms: C12_16  and  N2_18 
REMARK    9  A    between atoms: N2_18  and  C13_20 
REMARK   10  A    between atoms: C13_20  and  C14_21 
REMARK   11  A    between atoms: C13_20  and  C27_45 
REMARK       I    between atoms: C14_21  and  N3_23 
REMARK   12  A    between atoms: N3_23  and  C15_25 
REMARK   13  A    between atoms: C15_25  and  C16_26 
REMARK   14  A    between atoms: C15_25  and  C20_34 
REMARK   15  A    between atoms: C16_26  and  C17_27 
REMARK   16  A    between atoms: C17_27  and  C18_28 
REMARK   17  A    between atoms: C18_28  and  N4_29 
REMARK       I    between atoms: C20_34  and  N7_36 
REMARK   18  A    between atoms: N7_36  and  C21_38 
REMARK   19  A    between atoms: C21_38  and  C22_39 
REMARK   20  A    between atoms: C21_38  and  C23_41 
REMARK   21  A    between atoms: C23_41  and  C24_42 
ROOT
HETATM    1  C14 UNL     1       9.864  18.424   9.992  1.00  0.00     0.265 C 
HETATM    2  O2  UNL     1       9.614  17.156  10.043  1.00  0.00    -0.266 OA
HETATM    3  N3  UNL     1      11.065  18.844   9.535  1.00  0.00    -0.343 N 
ATOM      4  H3  UNL     1      11.205  19.852   9.591  1.00  0.00     0.163 HD
ENDROOT
BRANCH   1   5
HETATM    5  C13 UNL     1       8.706  19.229  10.458  1.00  0.00     0.083 C 
BRANCH   5   6
HETATM    6  N2  UNL     1       8.803  19.807  11.752  1.00  0.00    -0.324 N 
HETATM    7  C12 UNL     1       9.695  20.756  12.293  1.00  0.00     0.253 C 
HETATM    8  O1  UNL     1      10.615  21.268  11.636  1.00  0.00    -0.271 OA
ATOM      9  H2  UNL     1       8.098  19.474  12.410  1.00  0.00     0.169 HD
BRANCH   7  10
HETATM   10  C5  UNL     1       9.547  21.190  13.722  1.00  0.00     0.287 C 
BRANCH  10  11
HETATM   11  C4  UNL     1       9.156  20.025  14.597  1.00  0.00     0.117 C 
BRANCH  11  12
HETATM   12  S1  UNL     1       7.548  20.051  15.263  1.00  0.00    -0.163 SA
BRANCH  12  13
HETATM   13  C3  UNL     1       6.844  18.898  16.334  1.00  0.00     0.100 C 
BRANCH  13  14
HETATM   14  C2  UNL     1       5.540  18.301  16.016  1.00  0.00    -0.027 C 
HETATM   15  C1  UNL     1       5.332  16.978  16.108  1.00  0.00     0.007 C 
ENDBRANCH  13  14
ENDBRANCH  12  13
ENDBRANCH  11  12
ENDBRANCH  10  11
BRANCH  10  16
HETATM   16  N1  UNL     1      10.627  21.923  14.265  1.00  0.00    -0.057 N 
ATOM     17  H12 UNL     1      11.389  21.313  14.563  1.00  0.00     0.278 HD
ATOM     18  H11 UNL     1      11.127  22.451  13.549  1.00  0.00     0.278 HD
BRANCH  16  19
HETATM   19  C6  UNL     1      10.160  22.790  15.359  1.00  0.00     0.190 C 
HETATM   20  C7  UNL     1       9.529  23.971  14.677  1.00  0.00     0.041 C 
BRANCH  19  21
HETATM   21  C8  UNL     1      11.116  23.019  16.445  1.00  0.00    -0.023 C 
HETATM   22  C9  UNL     1      12.486  22.387  16.110  1.00  0.00     0.016 C 
HETATM   23  C10 UNL     1      10.688  22.442  17.773  1.00  0.00     0.016 C 
HETATM   24  C11 UNL     1      11.444  24.485  16.722  1.00  0.00     0.016 C 
ENDBRANCH  19  21
ENDBRANCH  16  19
ENDBRANCH  10  16
ENDBRANCH   7  10
ENDBRANCH   5   6
BRANCH   5  25
HETATM   25  C27 UNL     1       8.049  20.132   9.502  1.00  0.00     0.033 C 
HETATM   26  C28 UNL     1       8.893  20.730   8.436  1.00  0.00     0.016 C 
HETATM   27  C29 UNL     1       6.748  19.621   9.002  1.00  0.00     0.016 C 
ENDBRANCH   5  25
ENDBRANCH   1   5
BRANCH   3  28
HETATM   28  C15 UNL     1      12.196  18.109   8.978  1.00  0.00     0.177 C 
BRANCH  28  29
HETATM   29  C16 UNL     1      11.698  17.238   7.818  1.00  0.00     0.036 C 
BRANCH  29  30
HETATM   30  C17 UNL     1      11.263  17.911   6.588  1.00  0.00     0.022 C 
BRANCH  30  31
HETATM   31  C18 UNL     1      12.257  18.668   5.780  1.00  0.00     0.122 C 
BRANCH  31  32
HETATM   32  N4  UNL     1      13.235  17.926   5.074  1.00  0.00    -0.367 N 
HETATM   33  C19 UNL     1      13.997  18.376   4.158  1.00  0.00     0.196 C 
HETATM   34  N5  UNL     1      14.949  17.526   3.519  1.00  0.00    -0.067 NA
HETATM   35  N6  UNL     1      13.960  19.724   3.694  1.00  0.00    -0.067 NA
ATOM     36  H4  UNL     1      13.338  16.942   5.320  1.00  0.00     0.161 HD
ENDBRANCH  31  32
ENDBRANCH  30  31
ENDBRANCH  29  30
ENDBRANCH  28  29
BRANCH  28  37
HETATM   37  C20 UNL     1      12.813  17.252  10.002  1.00  0.00     0.241 C 
HETATM   38  O3  UNL     1      13.635  16.359   9.589  1.00  0.00    -0.271 OA
HETATM   39  N7  UNL     1      12.571  17.342  11.364  1.00  0.00    -0.348 N 
ATOM     40  H7  UNL     1      11.901  18.037  11.693  1.00  0.00     0.163 HD
BRANCH  39  41
HETATM   41  C21 UNL     1      13.234  16.485  12.355  1.00  0.00     0.146 C 
BRANCH  41  42
HETATM   42  C22 UNL     1      12.309  16.307  13.511  1.00  0.00     0.256 C 
HETATM   43  O4  UNL     1      11.540  17.203  13.765  1.00  0.00    -0.305 OA
ENDBRANCH  41  42
BRANCH  41  44
HETATM   44  C23 UNL     1      14.538  17.110  12.655  1.00  0.00     0.036 C 
BRANCH  44  45
HETATM   45  C24 UNL     1      15.772  16.341  12.392  1.00  0.00    -0.020 C 
HETATM   46  C25 UNL     1      15.988  15.165  13.329  1.00  0.00     0.009 C 
HETATM   47  C26 UNL     1      16.994  17.178  12.282  1.00  0.00     0.009 C 
ENDBRANCH  44  45
ENDBRANCH  41  44
ENDBRANCH  39  41
ENDBRANCH  28  37
ENDBRANCH   3  28
TORSDOF 21
ENDMDL
MODEL 5
REMARK VINA RESULT: -6.423138448      3.873      8.028
REMARK  21 active torsions:
REMARK  status: ('A' for Active; 'I' for Inactive)
REMARK    1  A    between atoms: C2_2  and  C3_3 
REMARK    2  A    between atoms: C3_3  and  S1_4 
REMARK    3  A    between atoms: S1_4  and  C4_5 
REMARK    4  A    between atoms: C4_5  and  C5_6 
REMARK    5  A    between atoms: C5_6  and  N1_7 
REMARK    6  A    between atoms: C5_6  and  C12_16 
REMARK    7  A    between atoms: N1_7  and  C6_10 
REMARK    8  A    between atoms: C6_10  and  C8_12 
REMARK       I    between atoms: C12_16  and  N2_18 
REMARK    9  A    between atoms: N2_18  and  C13_20 
REMARK   10  A    between atoms: C13_20  and  C14_21 
REMARK   11  A    between atoms: C13_20  and  C27_45 
REMARK       I    between atoms: C14_21  and  N3_23 
REMARK   12  A    between atoms: N3_23  and  C15_25 
REMARK   13  A    between atoms: C15_25  and  C16_26 
REMARK   14  A    between atoms: C15_25  and  C20_34 
REMARK   15  A    between atoms: C16_26  and  C17_27 
REMARK   16  A    between atoms: C17_27  and  C18_28 
REMARK   17  A    between atoms: C18_28  and  N4_29 
REMARK       I    between atoms: C20_34  and  N7_36 
REMARK   18  A    between atoms: N7_36  and  C21_38 
REMARK   19  A    between atoms: C21_38  and  C22_39 
REMARK   20  A    between atoms: C21_38  and  C23_41 
REMARK   21  A    between atoms: C23_41  and  C24_42 
ROOT
HETATM    1  C14 UNL     1      11.350  18.661   7.007  1.00  0.00     0.265 C 
HETATM    2  O2  UNL     1      11.898  19.830   6.939  1.00  0.00    -0.266 OA
HETATM    3  N3  UNL     1      11.276  17.898   5.894  1.00  0.00    -0.343 N 
ATOM      4  H3  UNL     1      10.770  17.022   6.019  1.00  0.00     0.163 HD
ENDROOT
BRANCH   1   5
HETATM    5  C13 UNL     1      10.892  18.351   8.386  1.00  0.00     0.083 C 
BRANCH   5   6
HETATM    6  N2  UNL     1       9.524  18.595   8.680  1.00  0.00    -0.324 N 
HETATM    7  C12 UNL     1       8.830  19.778   9.011  1.00  0.00     0.253 C 
HETATM    8  O1  UNL     1       9.387  20.884   9.099  1.00  0.00    -0.271 OA
ATOM      9  H2  UNL     1       8.936  17.762   8.645  1.00  0.00     0.169 HD
BRANCH   7  10
HETATM   10  C5  UNL     1       7.353  19.729   9.270  1.00  0.00     0.287 C 
BRANCH  10  11
HETATM   11  C4  UNL     1       6.945  20.805  10.245  1.00  0.00     0.117 C 
BRANCH  11  12
HETATM   12  S1  UNL     1       7.217  20.476  11.933  1.00  0.00    -0.163 SA
BRANCH  12  13
HETATM   13  C3  UNL     1       8.719  20.530  12.777  1.00  0.00     0.100 C 
BRANCH  13  14
HETATM   14  C2  UNL     1       9.788  19.581  12.437  1.00  0.00    -0.027 C 
HETATM   15  C1  UNL     1      10.611  19.085  13.373  1.00  0.00     0.007 C 
ENDBRANCH  13  14
ENDBRANCH  12  13
ENDBRANCH  11  12
ENDBRANCH  10  11
BRANCH  10  16
HETATM   16  N1  UNL     1       6.521  19.706   8.126  1.00  0.00    -0.057 N 
ATOM     17  H12 UNL     1       6.641  20.541   7.552  1.00  0.00     0.278 HD
ATOM     18  H11 UNL     1       6.828  19.009   7.447  1.00  0.00     0.278 HD
BRANCH  16  19
HETATM   19  C6  UNL     1       5.117  19.507   8.519  1.00  0.00     0.190 C 
HETATM   20  C7  UNL     1       5.051  18.094   9.026  1.00  0.00     0.041 C 
BRANCH  19  21
HETATM   21  C8  UNL     1       4.114  19.967   7.555  1.00  0.00    -0.023 C 
HETATM   22  C9  UNL     1       4.345  21.450   7.190  1.00  0.00     0.016 C 
HETATM   23  C10 UNL     1       2.691  19.862   8.051  1.00  0.00     0.016 C 
HETATM   24  C11 UNL     1       4.131  19.249   6.207  1.00  0.00     0.016 C 
ENDBRANCH  19  21
ENDBRANCH  16  19
ENDBRANCH  10  16
ENDBRANCH   7  10
ENDBRANCH   5   6
BRANCH   5  25
HETATM   25  C27 UNL     1      11.380  17.122   9.029  1.00  0.00     0.033 C 
HETATM   26  C28 UNL     1      12.844  17.003   9.249  1.00  0.00     0.016 C 
HETATM   27  C29 UNL     1      10.574  16.707  10.204  1.00  0.00     0.016 C 
ENDBRANCH   5  25
ENDBRANCH   1   5
BRANCH   3  28
HETATM   28  C15 UNL     1      11.790  18.108   4.545  1.00  0.00     0.177 C 
BRANCH  28  29
HETATM   29  C16 UNL     1      10.643  17.929   3.543  1.00  0.00     0.036 C 
BRANCH  29  30
HETATM   30  C17 UNL     1      10.538  18.890   2.438  1.00  0.00     0.022 C 
BRANCH  30  31
HETATM   31  C18 UNL     1      11.442  20.071   2.410  1.00  0.00     0.122 C 
BRANCH  31  32
HETATM   32  N4  UNL     1      12.499  20.070   1.466  1.00  0.00    -0.367 N 
HETATM   33  C19 UNL     1      13.742  20.127   1.737  1.00  0.00     0.196 C 
HETATM   34  N5  UNL     1      14.716  20.117   0.694  1.00  0.00    -0.067 NA
HETATM   35  N6  UNL     1      14.257  20.216   3.064  1.00  0.00    -0.067 NA
ATOM     36  H4  UNL     1      12.242  20.020   0.481  1.00  0.00     0.161 HD
ENDBRANCH  31  32
ENDBRANCH  30  31
ENDBRANCH  29  30
ENDBRANCH  28  29
BRANCH  28  37
HETATM   37  C20 UNL     1      12.858  17.141   4.241  1.00  0.00     0.241 C 
HETATM   38  O3  UNL     1      13.281  16.424   5.216  1.00  0.00    -0.271 OA
HETATM   39  N7  UNL     1      13.428  16.954   2.992  1.00  0.00    -0.348 N 
ATOM     40  H7  UNL     1      13.108  17.539   2.220  1.00  0.00     0.163 HD
BRANCH  39  41
HETATM   41  C21 UNL     1      14.470  15.956   2.727  1.00  0.00     0.146 C 
BRANCH  41  42
HETATM   42  C22 UNL     1      15.753  16.673   2.480  1.00  0.00     0.256 C 
HETATM   43  O4  UNL     1      16.665  16.486   3.249  1.00  0.00    -0.305 OA
ENDBRANCH  41  42
BRANCH  41  44
HETATM   44  C23 UNL     1      13.977  15.107   1.623  1.00  0.00     0.036 C 
BRANCH  44  45
HETATM   45  C24 UNL     1      14.852  14.882   0.454  1.00  0.00    -0.020 C 
HETATM   46  C25 UNL     1      14.525  15.751  -0.748  1.00  0.00     0.009 C 
HETATM   47  C26 UNL     1      14.990  13.454   0.069  1.00  0.00     0.009 C 
ENDBRANCH  44  45
ENDBRANCH  41  44
ENDBRANCH  39  41
ENDBRANCH  28  37
ENDBRANCH   3  28
TORSDOF 21
ENDMDL
