MODEL 1
REMARK VINA RESULT: -6.253995497      0.000      0.000
REMARK  22 active torsions:
REMARK  status: ('A' for Active; 'I' for Inactive)
REMARK    1  A    between atoms: C3_3  and  C4_4 
REMARK    2  A    between atoms: C3_3  and  N1_7 
REMARK    3  A    between atoms: C4_4  and  C5_5 
REMARK    4  A    between atoms: N1_7  and  C7_9 
REMARK    5  A    between atoms: C7_9  and  C8_10 
REMARK    6  A    between atoms: C8_10  and  C9_11 
REMARK    7  A    between atoms: C8_10  and  N3_19 
REMARK    8  A    between atoms: C9_11  and  C10_12 
REMARK    9  A    between atoms: C10_12  and  C11_13 
REMARK   10  A    between atoms: C11_13  and  C12_14 
REMARK   11  A    between atoms: C12_14  and  N2_15 
REMARK       I    between atoms: N3_19  and  C13_21 
REMARK   12  A    between atoms: C13_21  and  C14_23 
REMARK   13  A    between atoms: C21_30  and  C22_31 
REMARK       I    between atoms: C22_31  and  N4_33 
REMARK   14  A    between atoms: N4_33  and  C23_35 
REMARK   15  A    between atoms: C23_35  and  C24_36 
REMARK   16  A    between atoms: C23_35  and  C31_50 
REMARK   17  A    between atoms: C24_36  and  O3_37 
REMARK   18  A    between atoms: N5_39  and  C25_41 
REMARK   19  A    between atoms: C25_41  and  C26_42 
REMARK   20  A    between atoms: C25_41  and  C28_47 
REMARK   21  A    between atoms: C26_42  and  C27_44 
REMARK   22  A    between atoms: C27_44  and  O5_45 
ROOT
HETATM    1  C1  UNL     1      11.078  20.681   8.613  1.00  0.00     0.014 C 
HETATM    2  C2  UNL     1      11.066  19.477   8.491  1.00  0.00    -0.092 C 
HETATM    3  C3  UNL     1      10.982  18.004   8.342  1.00  0.00     0.156 C 
ENDROOT
BRANCH   3   4
HETATM    4  C4  UNL     1      12.018  17.543   7.328  1.00  0.00     0.037 C 
BRANCH   4   5
HETATM    5  C5  UNL     1      11.465  17.103   6.022  1.00  0.00    -0.002 C 
HETATM    6  C6  UNL     1      12.596  16.554   5.175  1.00  0.00     0.005 C 
ENDBRANCH   4   5
ENDBRANCH   3   4
BRANCH   3   7
HETATM    7  N1  UNL     1      10.949  17.323   9.559  1.00  0.00    -0.405 N 
ATOM      8  H1  UNL     1      10.076  17.372  10.083  1.00  0.00     0.154 HD
BRANCH   7   9
HETATM    9  C7  UNL     1      11.951  16.603  10.121  1.00  0.00     0.140 C 
BRANCH   9  10
HETATM   10  C8  UNL     1      11.775  16.783  11.709  1.00  0.00     0.101 C 
BRANCH  10  11
HETATM   11  C9  UNL     1      13.171  16.971  12.210  1.00  0.00     0.027 C 
BRANCH  11  12
HETATM   12  C10 UNL     1      14.253  16.353  11.369  1.00  0.00     0.004 C 
BRANCH  12  13
HETATM   13  C11 UNL     1      15.593  16.819  11.901  1.00  0.00     0.027 C 
BRANCH  13  14
HETATM   14  C12 UNL     1      16.218  15.978  12.944  1.00  0.00     0.229 C 
BRANCH  14  15
HETATM   15  N2  UNL     1      17.471  16.446  13.425  1.00  0.00    -0.079 N 
ATOM     16  H23 UNL     1      18.086  16.672  12.643  1.00  0.00     0.274 HD
ATOM     17  H22 UNL     1      17.364  17.372  13.841  1.00  0.00     0.274 HD
ATOM     18  H21 UNL     1      17.946  15.820  14.076  1.00  0.00     0.274 HD
ENDBRANCH  14  15
ENDBRANCH  13  14
ENDBRANCH  12  13
ENDBRANCH  11  12
ENDBRANCH  10  11
BRANCH  10  19
HETATM   19  N3  UNL     1      11.007  17.997  11.837  1.00  0.00    -0.355 N 
HETATM   20  C13 UNL     1      10.677  18.603  13.109  1.00  0.00     0.223 C 
HETATM   21  O1  UNL     1      11.096  18.044  14.169  1.00  0.00    -0.273 OA
ATOM     22  H3  UNL     1      10.679  18.453  10.986  1.00  0.00     0.162 HD
BRANCH  20  23
HETATM   23  C14 UNL     1       9.894  19.817  13.234  1.00  0.00     0.091 C 
HETATM   24  C15 UNL     1      10.403  20.921  12.339  1.00  0.00     0.020 C 
HETATM   25  C16 UNL     1      10.405  22.117  13.245  1.00  0.00    -0.009 C 
HETATM   26  C17 UNL     1      11.471  23.110  13.099  1.00  0.00     0.005 C 
HETATM   27  C20 UNL     1      10.810  21.429  14.545  1.00  0.00     0.003 C 
HETATM   28  C18 UNL     1      11.873  23.466  14.522  1.00  0.00     0.001 C 
HETATM   29  C19 UNL     1      11.154  22.485  15.430  1.00  0.00     0.006 C 
HETATM   30  C21 UNL     1       9.834  20.407  14.642  1.00  0.00     0.095 C 
BRANCH  30  31
HETATM   31  C22 UNL     1       8.444  20.599  15.066  1.00  0.00     0.223 C 
HETATM   32  O2  UNL     1       8.257  21.163  16.179  1.00  0.00    -0.273 OA
HETATM   33  N4  UNL     1       7.335  20.226  14.343  1.00  0.00    -0.348 N 
ATOM     34  H4  UNL     1       7.565  19.753  13.469  1.00  0.00     0.163 HD
BRANCH  33  35
HETATM   35  C23 UNL     1       5.934  20.361  14.557  1.00  0.00     0.162 C 
BRANCH  35  36
HETATM   36  C24 UNL     1       5.377  20.697  13.167  1.00  0.00     0.135 C 
HETATM   37  N5  UNL     1       5.671  20.090  12.001  1.00  0.00    -0.361 N 
ATOM     38  H5  UNL     1       6.292  19.308  12.209  1.00  0.00     0.162 HD
BRANCH  36  39
HETATM   39  O3  UNL     1       4.568  21.715  13.219  1.00  0.00    -0.348 OA
ATOM     40  H3  UNL     1       3.990  21.733  12.465  1.00  0.00     0.219 HD
ENDBRANCH  36  39
BRANCH  37  41
HETATM   41  C25 UNL     1       5.457  20.108  10.593  1.00  0.00     0.158 C 
BRANCH  41  42
HETATM   42  C26 UNL     1       4.736  19.006   9.975  1.00  0.00     0.172 C 
HETATM   43  O4  UNL     1       4.135  18.202  10.707  1.00  0.00    -0.293 OA
BRANCH  42  44
HETATM   44  C27 UNL     1       4.612  18.728   8.511  1.00  0.00     0.244 C 
BRANCH  44  45
HETATM   45  O5  UNL     1       5.096  17.478   8.185  1.00  0.00    -0.394 OA
ATOM     46  H5  UNL     1       5.897  17.532   7.679  1.00  0.00     0.209 HD
ENDBRANCH  44  45
ENDBRANCH  42  44
ENDBRANCH  41  42
BRANCH  41  47
HETATM   47  C28 UNL     1       6.848  20.252   9.967  1.00  0.00     0.007 C 
HETATM   48  C29 UNL     1       7.393  21.673  10.262  1.00  0.00     0.012 C 
HETATM   49  C30 UNL     1       7.838  19.222  10.234  1.00  0.00     0.012 C 
ENDBRANCH  41  47
ENDBRANCH  37  41
ENDBRANCH  35  36
BRANCH  35  50
HETATM   50  C31 UNL     1       5.148  19.281  15.156  1.00  0.00     0.008 C 
HETATM   51  C32 UNL     1       6.031  18.383  16.045  1.00  0.00     0.012 C 
HETATM   52  C33 UNL     1       4.190  19.925  16.171  1.00  0.00     0.012 C 
ENDBRANCH  35  50
ENDBRANCH  33  35
ENDBRANCH  30  31
ENDBRANCH  20  23
ENDBRANCH  10  19
ENDBRANCH   9  10
ENDBRANCH   7   9
ENDBRANCH   3   7
TORSDOF 22
ENDMDL
MODEL 2
REMARK VINA RESULT: -6.242070287      2.075      4.004
REMARK  22 active torsions:
REMARK  status: ('A' for Active; 'I' for Inactive)
REMARK    1  A    between atoms: C3_3  and  C4_4 
REMARK    2  A    between atoms: C3_3  and  N1_7 
REMARK    3  A    between atoms: C4_4  and  C5_5 
REMARK    4  A    between atoms: N1_7  and  C7_9 
REMARK    5  A    between atoms: C7_9  and  C8_10 
REMARK    6  A    between atoms: C8_10  and  C9_11 
REMARK    7  A    between atoms: C8_10  and  N3_19 
REMARK    8  A    between atoms: C9_11  and  C10_12 
REMARK    9  A    between atoms: C10_12  and  C11_13 
REMARK   10  A    between atoms: C11_13  and  C12_14 
REMARK   11  A    between atoms: C12_14  and  N2_15 
REMARK       I    between atoms: N3_19  and  C13_21 
REMARK   12  A    between atoms: C13_21  and  C14_23 
REMARK   13  A    between atoms: C21_30  and  C22_31 
REMARK       I    between atoms: C22_31  and  N4_33 
REMARK   14  A    between atoms: N4_33  and  C23_35 
REMARK   15  A    between atoms: C23_35  and  C24_36 
REMARK   16  A    between atoms: C23_35  and  C31_50 
REMARK   17  A    between atoms: C24_36  and  O3_37 
REMARK   18  A    between atoms: N5_39  and  C25_41 
REMARK   19  A    between atoms: C25_41  and  C26_42 
REMARK   20  A    between atoms: C25_41  and  C28_47 
REMARK   21  A    between atoms: C26_42  and  C27_44 
REMARK   22  A    between atoms: C27_44  and  O5_45 
ROOT
HETATM    1  C1  UNL     1       7.804  18.976   9.769  1.00  0.00     0.014 C 
HETATM    2  C2  UNL     1       8.879  18.751   9.260  1.00  0.00    -0.092 C 
HETATM    3  C3  UNL     1      10.168  18.418   8.608  1.00  0.00     0.156 C 
ENDROOT
BRANCH   3   4
HETATM    4  C4  UNL     1      10.808  19.696   8.082  1.00  0.00     0.037 C 
BRANCH   4   5
HETATM    5  C5  UNL     1      11.110  20.717   9.117  1.00  0.00    -0.002 C 
HETATM    6  C6  UNL     1      11.593  21.978   8.428  1.00  0.00     0.005 C 
ENDBRANCH   4   5
ENDBRANCH   3   4
BRANCH   3   7
HETATM    7  N1  UNL     1      10.980  17.581   9.373  1.00  0.00    -0.405 N 
ATOM      8  H1  UNL     1      11.986  17.677   9.239  1.00  0.00     0.154 HD
BRANCH   7   9
HETATM    9  C7  UNL     1      10.578  16.653  10.277  1.00  0.00     0.140 C 
BRANCH   9  10
HETATM   10  C8  UNL     1      11.246  17.090  11.673  1.00  0.00     0.101 C 
BRANCH  10  11
HETATM   11  C9  UNL     1      12.705  17.187  11.363  1.00  0.00     0.027 C 
BRANCH  11  12
HETATM   12  C10 UNL     1      13.633  16.714  12.447  1.00  0.00     0.004 C 
BRANCH  12  13
HETATM   13  C11 UNL     1      14.949  16.320  11.807  1.00  0.00     0.027 C 
BRANCH  13  14
HETATM   14  C12 UNL     1      16.147  17.064  12.250  1.00  0.00     0.229 C 
BRANCH  14  15
HETATM   15  N2  UNL     1      16.886  16.448  13.296  1.00  0.00    -0.079 N 
ATOM     16  H23 UNL     1      17.480  15.709  12.919  1.00  0.00     0.274 HD
ATOM     17  H22 UNL     1      17.599  17.088  13.647  1.00  0.00     0.274 HD
ATOM     18  H21 UNL     1      16.325  16.088  14.068  1.00  0.00     0.274 HD
ENDBRANCH  14  15
ENDBRANCH  13  14
ENDBRANCH  12  13
ENDBRANCH  11  12
ENDBRANCH  10  11
BRANCH  10  19
HETATM   19  N3  UNL     1      10.680  18.392  11.934  1.00  0.00    -0.355 N 
HETATM   20  C13 UNL     1      10.560  18.958  13.260  1.00  0.00     0.223 C 
HETATM   21  O1  UNL     1      10.986  18.280  14.245  1.00  0.00    -0.273 OA
ATOM     22  H3  UNL     1      10.348  18.941  11.142  1.00  0.00     0.162 HD
BRANCH  20  23
HETATM   23  C14 UNL     1       9.980  20.261  13.519  1.00  0.00     0.091 C 
HETATM   24  C15 UNL     1      10.559  21.334  12.628  1.00  0.00     0.020 C 
HETATM   25  C16 UNL     1      10.824  22.461  13.582  1.00  0.00    -0.009 C 
HETATM   26  C17 UNL     1      12.006  23.299  13.373  1.00  0.00     0.005 C 
HETATM   27  C20 UNL     1      11.245  21.646  14.801  1.00  0.00     0.003 C 
HETATM   28  C18 UNL     1      12.590  23.508  14.762  1.00  0.00     0.001 C 
HETATM   29  C19 UNL     1      11.824  22.586  15.694  1.00  0.00     0.006 C 
HETATM   30  C21 UNL     1      10.143  20.768  14.951  1.00  0.00     0.095 C 
BRANCH  30  31
HETATM   31  C22 UNL     1       8.842  21.131  15.524  1.00  0.00     0.223 C 
HETATM   32  O2  UNL     1       8.667  20.885  16.749  1.00  0.00    -0.273 OA
HETATM   33  N4  UNL     1       7.811  21.726  14.836  1.00  0.00    -0.348 N 
ATOM     34  H4  UNL     1       8.015  21.868  13.848  1.00  0.00     0.163 HD
BRANCH  33  35
HETATM   35  C23 UNL     1       6.517  22.185  15.215  1.00  0.00     0.162 C 
BRANCH  35  36
HETATM   36  C24 UNL     1       5.682  20.900  15.313  1.00  0.00     0.135 C 
HETATM   37  N5  UNL     1       5.531  20.106  16.390  1.00  0.00    -0.361 N 
ATOM     38  H5  UNL     1       6.023  20.544  17.168  1.00  0.00     0.162 HD
BRANCH  36  39
HETATM   39  O3  UNL     1       5.128  20.612  14.172  1.00  0.00    -0.348 OA
ATOM     40  H3  UNL     1       5.288  19.707  13.931  1.00  0.00     0.219 HD
ENDBRANCH  36  39
BRANCH  37  41
HETATM   41  C25 UNL     1       4.955  18.895  16.871  1.00  0.00     0.158 C 
BRANCH  41  42
HETATM   42  C26 UNL     1       4.761  17.790  15.945  1.00  0.00     0.172 C 
HETATM   43  O4  UNL     1       4.087  17.982  14.920  1.00  0.00    -0.293 OA
BRANCH  42  44
HETATM   44  C27 UNL     1       5.315  16.406  16.076  1.00  0.00     0.244 C 
BRANCH  44  45
HETATM   45  O5  UNL     1       6.515  16.398  16.755  1.00  0.00    -0.394 OA
ATOM     46  H5  UNL     1       6.876  15.522  16.822  1.00  0.00     0.209 HD
ENDBRANCH  44  45
ENDBRANCH  42  44
ENDBRANCH  41  42
BRANCH  41  47
HETATM   47  C28 UNL     1       3.619  19.298  17.504  1.00  0.00     0.007 C 
HETATM   48  C29 UNL     1       3.076  18.112  18.342  1.00  0.00     0.012 C 
HETATM   49  C30 UNL     1       3.546  20.555  18.229  1.00  0.00     0.012 C 
ENDBRANCH  41  47
ENDBRANCH  37  41
ENDBRANCH  35  36
BRANCH  35  50
HETATM   50  C31 UNL     1       6.318  22.995  16.417  1.00  0.00     0.008 C 
HETATM   51  C32 UNL     1       7.218  24.247  16.395  1.00  0.00     0.012 C 
HETATM   52  C33 UNL     1       4.904  23.593  16.334  1.00  0.00     0.012 C 
ENDBRANCH  35  50
ENDBRANCH  33  35
ENDBRANCH  30  31
ENDBRANCH  20  23
ENDBRANCH  10  19
ENDBRANCH   9  10
ENDBRANCH   7   9
ENDBRANCH   3   7
TORSDOF 22
ENDMDL
MODEL 3
REMARK VINA RESULT: -6.144171595      2.538      5.599
REMARK  22 active torsions:
REMARK  status: ('A' for Active; 'I' for Inactive)
REMARK    1  A    between atoms: C3_3  and  C4_4 
REMARK    2  A    between atoms: C3_3  and  N1_7 
REMARK    3  A    between atoms: C4_4  and  C5_5 
REMARK    4  A    between atoms: N1_7  and  C7_9 
REMARK    5  A    between atoms: C7_9  and  C8_10 
REMARK    6  A    between atoms: C8_10  and  C9_11 
REMARK    7  A    between atoms: C8_10  and  N3_19 
REMARK    8  A    between atoms: C9_11  and  C10_12 
REMARK    9  A    between atoms: C10_12  and  C11_13 
REMARK   10  A    between atoms: C11_13  and  C12_14 
REMARK   11  A    between atoms: C12_14  and  N2_15 
REMARK       I    between atoms: N3_19  and  C13_21 
REMARK   12  A    between atoms: C13_21  and  C14_23 
REMARK   13  A    between atoms: C21_30  and  C22_31 
REMARK       I    between atoms: C22_31  and  N4_33 
REMARK   14  A    between atoms: N4_33  and  C23_35 
REMARK   15  A    between atoms: C23_35  and  C24_36 
REMARK   16  A    between atoms: C23_35  and  C31_50 
REMARK   17  A    between atoms: C24_36  and  O3_37 
REMARK   18  A    between atoms: N5_39  and  C25_41 
REMARK   19  A    between atoms: C25_41  and  C26_42 
REMARK   20  A    between atoms: C25_41  and  C28_47 
REMARK   21  A    between atoms: C26_42  and  C27_44 
REMARK   22  A    between atoms: C27_44  and  O5_45 
ROOT
HETATM    1  C1  UNL     1      10.382  16.649  10.368  1.00  0.00     0.014 C 
HETATM    2  C2  UNL     1      11.505  16.922  10.007  1.00  0.00    -0.092 C 
HETATM    3  C3  UNL     1      12.863  17.323   9.568  1.00  0.00     0.156 C 
ENDROOT
BRANCH   3   4
HETATM    4  C4  UNL     1      13.893  16.432  10.248  1.00  0.00     0.037 C 
BRANCH   4   5
HETATM    5  C5  UNL     1      14.021  16.628  11.715  1.00  0.00    -0.002 C 
HETATM    6  C6  UNL     1      15.482  16.858  12.048  1.00  0.00     0.005 C 
ENDBRANCH   4   5
ENDBRANCH   3   4
BRANCH   3   7
HETATM    7  N1  UNL     1      12.980  17.474   8.186  1.00  0.00    -0.405 N 
ATOM      8  H1  UNL     1      13.861  17.857   7.845  1.00  0.00     0.154 HD
BRANCH   7   9
HETATM    9  C7  UNL     1      12.052  17.166   7.247  1.00  0.00     0.140 C 
BRANCH   9  10
HETATM   10  C8  UNL     1      11.740  18.543   6.478  1.00  0.00     0.101 C 
BRANCH  10  11
HETATM   11  C9  UNL     1      11.204  18.105   5.154  1.00  0.00     0.027 C 
BRANCH  11  12
HETATM   12  C10 UNL     1      12.219  17.970   4.053  1.00  0.00     0.004 C 
BRANCH  12  13
HETATM   13  C11 UNL     1      11.966  16.662   3.331  1.00  0.00     0.027 C 
BRANCH  13  14
HETATM   14  C12 UNL     1      12.659  15.470   3.865  1.00  0.00     0.229 C 
BRANCH  14  15
HETATM   15  N2  UNL     1      11.857  14.619   4.674  1.00  0.00    -0.079 N 
ATOM     16  H23 UNL     1      12.288  14.496   5.590  1.00  0.00     0.274 HD
ATOM     17  H22 UNL     1      10.998  15.098   4.943  1.00  0.00     0.274 HD
ATOM     18  H21 UNL     1      11.640  13.710   4.263  1.00  0.00     0.274 HD
ENDBRANCH  14  15
ENDBRANCH  13  14
ENDBRANCH  12  13
ENDBRANCH  11  12
ENDBRANCH  10  11
BRANCH  10  19
HETATM   19  N3  UNL     1      10.711  19.160   7.279  1.00  0.00    -0.355 N 
HETATM   20  C13 UNL     1      10.966  20.225   8.225  1.00  0.00     0.223 C 
HETATM   21  O1  UNL     1      12.157  20.648   8.348  1.00  0.00    -0.273 OA
ATOM     22  H3  UNL     1       9.752  18.828   7.173  1.00  0.00     0.162 HD
BRANCH  20  23
HETATM   23  C14 UNL     1       9.931  20.834   9.037  1.00  0.00     0.091 C 
HETATM   24  C15 UNL     1      10.462  21.958   9.894  1.00  0.00     0.020 C 
HETATM   25  C16 UNL     1       9.842  21.685  11.233  1.00  0.00    -0.009 C 
HETATM   26  C17 UNL     1      10.619  21.972  12.440  1.00  0.00     0.005 C 
HETATM   27  C20 UNL     1       9.880  20.161  11.206  1.00  0.00     0.003 C 
HETATM   28  C18 UNL     1      10.361  20.790  13.362  1.00  0.00     0.001 C 
HETATM   29  C19 UNL     1       9.608  19.760  12.540  1.00  0.00     0.006 C 
HETATM   30  C21 UNL     1       9.211  19.881   9.989  1.00  0.00     0.095 C 
BRANCH  30  31
HETATM   31  C22 UNL     1       7.759  19.943   9.786  1.00  0.00     0.223 C 
HETATM   32  O2  UNL     1       7.054  20.244  10.788  1.00  0.00    -0.273 OA
HETATM   33  N4  UNL     1       7.114  19.712   8.594  1.00  0.00    -0.348 N 
ATOM     34  H4  UNL     1       7.746  19.448   7.839  1.00  0.00     0.163 HD
BRANCH  33  35
HETATM   35  C23 UNL     1       5.749  19.764   8.192  1.00  0.00     0.162 C 
BRANCH  35  36
HETATM   36  C24 UNL     1       5.070  18.685   9.048  1.00  0.00     0.135 C 
HETATM   37  N5  UNL     1       4.491  18.845  10.254  1.00  0.00    -0.361 N 
ATOM     38  H5  UNL     1       4.523  19.838  10.482  1.00  0.00     0.162 HD
BRANCH  36  39
HETATM   39  O3  UNL     1       5.143  17.519   8.477  1.00  0.00    -0.348 OA
ATOM     40  H3  UNL     1       4.755  16.845   9.024  1.00  0.00     0.219 HD
ENDBRANCH  36  39
BRANCH  37  41
HETATM   41  C25 UNL     1       3.853  18.173  11.336  1.00  0.00     0.158 C 
BRANCH  41  42
HETATM   42  C26 UNL     1       2.688  17.346  11.064  1.00  0.00     0.172 C 
HETATM   43  O4  UNL     1       2.645  16.709   9.998  1.00  0.00    -0.293 OA
BRANCH  42  44
HETATM   44  C27 UNL     1       1.503  17.149  11.955  1.00  0.00     0.244 C 
BRANCH  44  45
HETATM   45  O5  UNL     1       1.726  16.161  12.891  1.00  0.00    -0.394 OA
ATOM     46  H5  UNL     1       2.255  16.475  13.614  1.00  0.00     0.209 HD
ENDBRANCH  44  45
ENDBRANCH  42  44
ENDBRANCH  41  42
BRANCH  41  47
HETATM   47  C28 UNL     1       3.503  19.267  12.350  1.00  0.00     0.007 C 
HETATM   48  C29 UNL     1       4.631  19.355  13.411  1.00  0.00     0.012 C 
HETATM   49  C30 UNL     1       3.120  20.577  11.853  1.00  0.00     0.012 C 
ENDBRANCH  41  47
ENDBRANCH  37  41
ENDBRANCH  35  36
BRANCH  35  50
HETATM   50  C31 UNL     1       4.981  21.008   8.266  1.00  0.00     0.008 C 
HETATM   51  C32 UNL     1       5.764  22.179   7.640  1.00  0.00     0.012 C 
HETATM   52  C33 UNL     1       3.780  20.857   7.318  1.00  0.00     0.012 C 
ENDBRANCH  35  50
ENDBRANCH  33  35
ENDBRANCH  30  31
ENDBRANCH  20  23
ENDBRANCH  10  19
ENDBRANCH   9  10
ENDBRANCH   7   9
ENDBRANCH   3   7
TORSDOF 22
ENDMDL
MODEL 4
REMARK VINA RESULT: -6.095372356      3.420      6.170
REMARK  22 active torsions:
REMARK  status: ('A' for Active; 'I' for Inactive)
REMARK    1  A    between atoms: C3_3  and  C4_4 
REMARK    2  A    between atoms: C3_3  and  N1_7 
REMARK    3  A    between atoms: C4_4  and  C5_5 
REMARK    4  A    between atoms: N1_7  and  C7_9 
REMARK    5  A    between atoms: C7_9  and  C8_10 
REMARK    6  A    between atoms: C8_10  and  C9_11 
REMARK    7  A    between atoms: C8_10  and  N3_19 
REMARK    8  A    between atoms: C9_11  and  C10_12 
REMARK    9  A    between atoms: C10_12  and  C11_13 
REMARK   10  A    between atoms: C11_13  and  C12_14 
REMARK   11  A    between atoms: C12_14  and  N2_15 
REMARK       I    between atoms: N3_19  and  C13_21 
REMARK   12  A    between atoms: C13_21  and  C14_23 
REMARK   13  A    between atoms: C21_30  and  C22_31 
REMARK       I    between atoms: C22_31  and  N4_33 
REMARK   14  A    between atoms: N4_33  and  C23_35 
REMARK   15  A    between atoms: C23_35  and  C24_36 
REMARK   16  A    between atoms: C23_35  and  C31_50 
REMARK   17  A    between atoms: C24_36  and  O3_37 
REMARK   18  A    between atoms: N5_39  and  C25_41 
REMARK   19  A    between atoms: C25_41  and  C26_42 
REMARK   20  A    between atoms: C25_41  and  C28_47 
REMARK   21  A    between atoms: C26_42  and  C27_44 
REMARK   22  A    between atoms: C27_44  and  O5_45 
ROOT
HETATM    1  C1  UNL     1      10.123  20.020   8.129  1.00  0.00     0.014 C 
HETATM    2  C2  UNL     1      10.699  18.978   8.342  1.00  0.00    -0.092 C 
HETATM    3  C3  UNL     1      11.348  17.677   8.636  1.00  0.00     0.156 C 
ENDROOT
BRANCH   3   4
HETATM    4  C4  UNL     1      12.145  17.229   7.419  1.00  0.00     0.037 C 
BRANCH   4   5
HETATM    5  C5  UNL     1      11.343  17.022   6.186  1.00  0.00    -0.002 C 
HETATM    6  C6  UNL     1      12.274  16.606   5.065  1.00  0.00     0.005 C 
ENDBRANCH   4   5
ENDBRANCH   3   4
BRANCH   3   7
HETATM    7  N1  UNL     1      12.011  17.651   9.863  1.00  0.00    -0.405 N 
ATOM      8  H1  UNL     1      12.101  18.542  10.350  1.00  0.00     0.154 HD
BRANCH   7   9
HETATM    9  C7  UNL     1      12.549  16.570  10.480  1.00  0.00     0.140 C 
BRANCH   9  10
HETATM   10  C8  UNL     1      12.232  16.761  12.045  1.00  0.00     0.101 C 
BRANCH  10  11
HETATM   11  C9  UNL     1      13.579  16.756  12.692  1.00  0.00     0.027 C 
BRANCH  11  12
HETATM   12  C10 UNL     1      14.722  16.333  11.812  1.00  0.00     0.004 C 
BRANCH  12  13
HETATM   13  C11 UNL     1      15.928  17.182  12.159  1.00  0.00     0.027 C 
BRANCH  13  14
HETATM   14  C12 UNL     1      17.012  16.513  12.909  1.00  0.00     0.229 C 
BRANCH  14  15
HETATM   15  N2  UNL     1      16.594  15.443  13.747  1.00  0.00    -0.079 N 
ATOM     16  H23 UNL     1      15.615  15.220  13.569  1.00  0.00     0.274 HD
ATOM     17  H22 UNL     1      17.033  14.572  13.449  1.00  0.00     0.274 HD
ATOM     18  H21 UNL     1      16.745  15.591  14.745  1.00  0.00     0.274 HD
ENDBRANCH  14  15
ENDBRANCH  13  14
ENDBRANCH  12  13
ENDBRANCH  11  12
ENDBRANCH  10  11
BRANCH  10  19
HETATM   19  N3  UNL     1      11.623  18.068  12.117  1.00  0.00    -0.355 N 
HETATM   20  C13 UNL     1      11.042  18.612  13.325  1.00  0.00     0.223 C 
HETATM   21  O1  UNL     1      11.078  17.908  14.381  1.00  0.00    -0.273 OA
ATOM     22  H3  UNL     1      11.603  18.638  11.272  1.00  0.00     0.162 HD
BRANCH  20  23
HETATM   23  C14 UNL     1      10.420  19.920  13.390  1.00  0.00     0.091 C 
HETATM   24  C15 UNL     1       9.177  19.922  14.246  1.00  0.00     0.020 C 
HETATM   25  C16 UNL     1       8.193  20.690  13.415  1.00  0.00    -0.009 C 
HETATM   26  C17 UNL     1       6.785  20.289  13.439  1.00  0.00     0.005 C 
HETATM   27  C20 UNL     1       8.621  20.206  12.033  1.00  0.00     0.003 C 
HETATM   28  C18 UNL     1       6.330  20.371  11.989  1.00  0.00     0.001 C 
HETATM   29  C19 UNL     1       7.578  20.611  11.159  1.00  0.00     0.006 C 
HETATM   30  C21 UNL     1      10.005  20.507  12.042  1.00  0.00     0.095 C 
BRANCH  30  31
HETATM   31  C22 UNL     1      10.583  21.843  11.857  1.00  0.00     0.223 C 
HETATM   32  O2  UNL     1      10.930  22.465  12.898  1.00  0.00    -0.273 OA
HETATM   33  N4  UNL     1      10.784  22.458  10.644  1.00  0.00    -0.348 N 
ATOM     34  H4  UNL     1      10.455  21.907   9.853  1.00  0.00     0.163 HD
BRANCH  33  35
HETATM   35  C23 UNL     1      11.357  23.705  10.261  1.00  0.00     0.162 C 
BRANCH  35  36
HETATM   36  C24 UNL     1      12.692  23.315   9.610  1.00  0.00     0.135 C 
HETATM   37  N5  UNL     1      12.871  22.663   8.445  1.00  0.00    -0.361 N 
ATOM     38  H5  UNL     1      11.953  22.523   8.025  1.00  0.00     0.162 HD
BRANCH  36  39
HETATM   39  O3  UNL     1      13.698  23.665  10.356  1.00  0.00    -0.348 OA
ATOM     40  H3  UNL     1      14.354  22.978  10.391  1.00  0.00     0.219 HD
ENDBRANCH  36  39
BRANCH  37  41
HETATM   41  C25 UNL     1      13.838  22.090   7.569  1.00  0.00     0.158 C 
BRANCH  41  42
HETATM   42  C26 UNL     1      15.119  22.759   7.400  1.00  0.00     0.172 C 
HETATM   43  O4  UNL     1      15.129  23.980   7.172  1.00  0.00    -0.293 OA
BRANCH  42  44
HETATM   44  C27 UNL     1      16.474  22.132   7.491  1.00  0.00     0.244 C 
BRANCH  44  45
HETATM   45  O5  UNL     1      16.468  20.833   7.026  1.00  0.00    -0.394 OA
ATOM     46  H5  UNL     1      15.700  20.652   6.498  1.00  0.00     0.209 HD
ENDBRANCH  44  45
ENDBRANCH  42  44
ENDBRANCH  41  42
BRANCH  41  47
HETATM   47  C28 UNL     1      13.132  21.944   6.217  1.00  0.00     0.007 C 
HETATM   48  C29 UNL     1      13.130  20.449   5.805  1.00  0.00     0.012 C 
HETATM   49  C30 UNL     1      11.827  22.558   6.046  1.00  0.00     0.012 C 
ENDBRANCH  41  47
ENDBRANCH  37  41
ENDBRANCH  35  36
BRANCH  35  50
HETATM   50  C31 UNL     1      10.638  24.637   9.392  1.00  0.00     0.008 C 
HETATM   51  C32 UNL     1       9.436  23.948   8.717  1.00  0.00     0.012 C 
HETATM   52  C33 UNL     1       9.965  25.678  10.302  1.00  0.00     0.012 C 
ENDBRANCH  35  50
ENDBRANCH  33  35
ENDBRANCH  30  31
ENDBRANCH  20  23
ENDBRANCH  10  19
ENDBRANCH   9  10
ENDBRANCH   7   9
ENDBRANCH   3   7
TORSDOF 22
ENDMDL
MODEL 5
REMARK VINA RESULT: -6.093410438      3.011      5.837
REMARK  22 active torsions:
REMARK  status: ('A' for Active; 'I' for Inactive)
REMARK    1  A    between atoms: C3_3  and  C4_4 
REMARK    2  A    between atoms: C3_3  and  N1_7 
REMARK    3  A    between atoms: C4_4  and  C5_5 
REMARK    4  A    between atoms: N1_7  and  C7_9 
REMARK    5  A    between atoms: C7_9  and  C8_10 
REMARK    6  A    between atoms: C8_10  and  C9_11 
REMARK    7  A    between atoms: C8_10  and  N3_19 
REMARK    8  A    between atoms: C9_11  and  C10_12 
REMARK    9  A    between atoms: C10_12  and  C11_13 
REMARK   10  A    between atoms: C11_13  and  C12_14 
REMARK   11  A    between atoms: C12_14  and  N2_15 
REMARK       I    between atoms: N3_19  and  C13_21 
REMARK   12  A    between atoms: C13_21  and  C14_23 
REMARK   13  A    between atoms: C21_30  and  C22_31 
REMARK       I    between atoms: C22_31  and  N4_33 
REMARK   14  A    between atoms: N4_33  and  C23_35 
REMARK   15  A    between atoms: C23_35  and  C24_36 
REMARK   16  A    between atoms: C23_35  and  C31_50 
REMARK   17  A    between atoms: C24_36  and  O3_37 
REMARK   18  A    between atoms: N5_39  and  C25_41 
REMARK   19  A    between atoms: C25_41  and  C26_42 
REMARK   20  A    between atoms: C25_41  and  C28_47 
REMARK   21  A    between atoms: C26_42  and  C27_44 
REMARK   22  A    between atoms: C27_44  and  O5_45 
ROOT
HETATM    1  C1  UNL     1      10.326  16.719  10.417  1.00  0.00     0.014 C 
HETATM    2  C2  UNL     1      11.453  16.977  10.056  1.00  0.00    -0.092 C 
HETATM    3  C3  UNL     1      12.816  17.360   9.617  1.00  0.00     0.156 C 
ENDROOT
BRANCH   3   4
HETATM    4  C4  UNL     1      13.834  16.460  10.303  1.00  0.00     0.037 C 
BRANCH   4   5
HETATM    5  C5  UNL     1      14.037  16.732  11.749  1.00  0.00    -0.002 C 
HETATM    6  C6  UNL     1      15.526  16.793  12.028  1.00  0.00     0.005 C 
ENDBRANCH   4   5
ENDBRANCH   3   4
BRANCH   3   7
HETATM    7  N1  UNL     1      12.937  17.503   8.235  1.00  0.00    -0.405 N 
ATOM      8  H1  UNL     1      13.782  17.964   7.899  1.00  0.00     0.154 HD
BRANCH   7   9
HETATM    9  C7  UNL     1      12.054  17.097   7.290  1.00  0.00     0.140 C 
BRANCH   9  10
HETATM   10  C8  UNL     1      11.767  18.391   6.380  1.00  0.00     0.101 C 
BRANCH  10  11
HETATM   11  C9  UNL     1      11.273  17.824   5.088  1.00  0.00     0.027 C 
BRANCH  11  12
HETATM   12  C10 UNL     1      11.250  16.323   5.002  1.00  0.00     0.004 C 
BRANCH  12  13
HETATM   13  C11 UNL     1      11.970  15.908   3.736  1.00  0.00     0.027 C 
BRANCH  13  14
HETATM   14  C12 UNL     1      13.356  15.419   3.895  1.00  0.00     0.229 C 
BRANCH  14  15
HETATM   15  N2  UNL     1      14.195  15.606   2.763  1.00  0.00    -0.079 N 
ATOM     16  H23 UNL     1      13.660  15.477   1.904  1.00  0.00     0.274 HD
ATOM     17  H22 UNL     1      14.446  16.591   2.671  1.00  0.00     0.274 HD
ATOM     18  H21 UNL     1      15.033  15.025   2.745  1.00  0.00     0.274 HD
ENDBRANCH  14  15
ENDBRANCH  13  14
ENDBRANCH  12  13
ENDBRANCH  11  12
ENDBRANCH  10  11
BRANCH  10  19
HETATM   19  N3  UNL     1      10.714  19.081   7.084  1.00  0.00    -0.355 N 
HETATM   20  C13 UNL     1      10.944  20.213   7.955  1.00  0.00     0.223 C 
HETATM   21  O1  UNL     1      12.135  20.629   8.100  1.00  0.00    -0.273 OA
ATOM     22  H3  UNL     1       9.756  18.754   6.960  1.00  0.00     0.162 HD
BRANCH  20  23
HETATM   23  C14 UNL     1       9.884  20.896   8.670  1.00  0.00     0.091 C 
HETATM   24  C15 UNL     1      10.416  21.947   9.615  1.00  0.00     0.020 C 
HETATM   25  C16 UNL     1       9.630  21.703  10.870  1.00  0.00    -0.009 C 
HETATM   26  C17 UNL     1      10.292  21.891  12.162  1.00  0.00     0.005 C 
HETATM   27  C20 UNL     1       9.536  20.182  10.798  1.00  0.00     0.003 C 
HETATM   28  C18 UNL     1       9.831  20.716  13.013  1.00  0.00     0.001 C 
HETATM   29  C19 UNL     1       9.084  19.778  12.082  1.00  0.00     0.006 C 
HETATM   30  C21 UNL     1       8.982  19.992   9.508  1.00  0.00     0.095 C 
BRANCH  30  31
HETATM   31  C22 UNL     1       7.573  20.191   9.153  1.00  0.00     0.223 C 
HETATM   32  O2  UNL     1       7.317  21.097   8.313  1.00  0.00    -0.273 OA
HETATM   33  N4  UNL     1       6.519  19.464   9.653  1.00  0.00    -0.348 N 
ATOM     34  H4  UNL     1       6.800  18.771  10.346  1.00  0.00     0.163 HD
BRANCH  33  35
HETATM   35  C23 UNL     1       5.116  19.476   9.408  1.00  0.00     0.162 C 
BRANCH  35  36
HETATM   36  C24 UNL     1       4.984  18.914   7.985  1.00  0.00     0.135 C 
HETATM   37  N5  UNL     1       4.750  19.605   6.853  1.00  0.00    -0.361 N 
ATOM     38  H5  UNL     1       4.737  20.596   7.094  1.00  0.00     0.162 HD
BRANCH  36  39
HETATM   39  O3  UNL     1       5.091  17.618   7.981  1.00  0.00    -0.348 OA
ATOM     40  H3  UNL     1       4.261  17.206   7.771  1.00  0.00     0.219 HD
ENDBRANCH  36  39
BRANCH  37  41
HETATM   41  C25 UNL     1       4.512  19.499   5.453  1.00  0.00     0.158 C 
BRANCH  41  42
HETATM   42  C26 UNL     1       5.391  20.204   4.533  1.00  0.00     0.172 C 
HETATM   43  O4  UNL     1       5.576  19.726   3.401  1.00  0.00    -0.293 OA
BRANCH  42  44
HETATM   44  C27 UNL     1       6.107  21.491   4.790  1.00  0.00     0.244 C 
BRANCH  44  45
HETATM   45  O5  UNL     1       7.191  21.315   5.623  1.00  0.00    -0.394 OA
ATOM     46  H5  UNL     1       7.294  22.042   6.226  1.00  0.00     0.209 HD
ENDBRANCH  44  45
ENDBRANCH  42  44
ENDBRANCH  41  42
BRANCH  41  47
HETATM   47  C28 UNL     1       3.060  19.943   5.246  1.00  0.00     0.007 C 
HETATM   48  C29 UNL     1       2.326  18.891   4.375  1.00  0.00     0.012 C 
HETATM   49  C30 UNL     1       2.280  20.326   6.411  1.00  0.00     0.012 C 
ENDBRANCH  41  47
ENDBRANCH  37  41
ENDBRANCH  35  36
BRANCH  35  50
HETATM   50  C31 UNL     1       4.182  18.786  10.299  1.00  0.00     0.008 C 
HETATM   51  C32 UNL     1       4.390  19.223  11.762  1.00  0.00     0.012 C 
HETATM   52  C33 UNL     1       2.775  19.320   9.982  1.00  0.00     0.012 C 
ENDBRANCH  35  50
ENDBRANCH  33  35
ENDBRANCH  30  31
ENDBRANCH  20  23
ENDBRANCH  10  19
ENDBRANCH   9  10
ENDBRANCH   7   9
ENDBRANCH   3   7
TORSDOF 22
ENDMDL
