MODEL 1
REMARK VINA RESULT: -6.795856293      0.000      0.000
REMARK  20 active torsions:
REMARK  status: ('A' for Active; 'I' for Inactive)
REMARK    1  A    between atoms: N1_1  and  C1_5 
REMARK    2  A    between atoms: C1_5  and  C2_6 
REMARK    3  A    between atoms: C2_6  and  N2_7 
REMARK    4  A    between atoms: N2_7  and  C3_10 
REMARK    5  A    between atoms: C3_10  and  C4_11 
REMARK    6  A    between atoms: C4_11  and  C5_12 
REMARK    7  A    between atoms: C5_12  and  C6_13 
REMARK    8  A    between atoms: C6_13  and  N3_14 
REMARK    9  A    between atoms: N3_14  and  C7_17 
REMARK   10  A    between atoms: C7_17  and  C8_18 
REMARK   11  A    between atoms: C8_18  and  N4_19 
REMARK   12  A    between atoms: N4_19  and  C9_21 
REMARK   13  A    between atoms: C10_22  and  O1_23 
REMARK   14  A    between atoms: C11_25  and  O2_26 
REMARK   15  A    between atoms: C12_28  and  O3_29 
REMARK   16  A    between atoms: C13_31  and  N5_32 
REMARK       I    between atoms: N5_32  and  C14_34 
REMARK       I    between atoms: C14_34  and  N8_40 
REMARK   17  A    between atoms: N6_35  and  N7_37 
REMARK   18  A    between atoms: N8_40  and  N9_41 
REMARK   19  A    between atoms: N8_40  and  O4_44 
REMARK   20  A    between atoms: C15_46  and  O5_47 
ROOT
HETATM    1  C9  UNL     1      10.115 110.185  80.527  1.00  0.00     0.139 C 
HETATM    2  C10 UNL     1       8.839 110.769  81.107  1.00  0.00     0.174 C 
HETATM    3  C11 UNL     1       8.455 109.933  82.293  1.00  0.00     0.179 C 
HETATM    4  C12 UNL     1       8.729 108.461  82.067  1.00  0.00     0.175 C 
HETATM    5  C13 UNL     1       8.752 108.111  80.614  1.00  0.00     0.161 C 
HETATM    6  C15 UNL     1       9.917 108.823  79.943  1.00  0.00     0.168 C 
ENDROOT
BRANCH   1   7
HETATM    7  N4  UNL     1      10.847 111.129  79.771  1.00  0.00    -0.411 N 
ATOM      8  H4  UNL     1      11.269 110.845  78.887  1.00  0.00     0.153 HD
BRANCH   7   9
HETATM    9  C8  UNL     1      11.002 112.447  80.216  1.00  0.00     0.142 C 
BRANCH   9  10
HETATM   10  C7  UNL     1      10.166 113.332  79.272  1.00  0.00     0.251 C 
BRANCH  10  11
HETATM   11  N3  UNL     1       9.655 112.564  78.165  1.00  0.00    -0.074 N 
ATOM     12  H32 UNL     1       9.402 111.621  78.458  1.00  0.00     0.277 HD
ATOM     13  H31 UNL     1      10.397 112.338  77.503  1.00  0.00     0.277 HD
BRANCH  11  14
HETATM   14  C6  UNL     1       8.534 113.225  77.493  1.00  0.00     0.232 C 
BRANCH  14  15
HETATM   15  C5  UNL     1       7.729 113.996  78.539  1.00  0.00     0.029 C 
BRANCH  15  16
HETATM   16  C4  UNL     1       6.282 113.674  78.375  1.00  0.00     0.029 C 
BRANCH  16  17
HETATM   17  C3  UNL     1       5.907 113.310  76.946  1.00  0.00     0.232 C 
BRANCH  17  18
HETATM   18  N2  UNL     1       5.201 112.049  77.007  1.00  0.00    -0.074 N 
ATOM     19  H22 UNL     1       4.192 112.189  76.950  1.00  0.00     0.277 HD
ATOM     20  H21 UNL     1       5.257 111.641  77.941  1.00  0.00     0.277 HD
BRANCH  18  21
HETATM   21  C2  UNL     1       5.647 111.132  76.022  1.00  0.00     0.259 C 
BRANCH  21  22
HETATM   22  C1  UNL     1       5.978 109.784  76.626  1.00  0.00     0.257 C 
BRANCH  22  23
HETATM   23  N1  UNL     1       7.092 109.921  77.574  1.00  0.00    -0.078 N 
ATOM     24  H13 UNL     1       7.907 110.360  77.146  1.00  0.00     0.274 HD
ATOM     25  H12 UNL     1       6.903 110.625  78.289  1.00  0.00     0.274 HD
ATOM     26  H11 UNL     1       7.315 109.013  77.980  1.00  0.00     0.274 HD
ENDBRANCH  22  23
ENDBRANCH  21  22
ENDBRANCH  18  21
ENDBRANCH  17  18
ENDBRANCH  16  17
ENDBRANCH  15  16
ENDBRANCH  14  15
ENDBRANCH  11  14
ENDBRANCH  10  11
ENDBRANCH   9  10
ENDBRANCH   7   9
ENDBRANCH   1   7
BRANCH   2  27
HETATM   27  O1  UNL     1       7.798 110.917  80.255  1.00  0.00    -0.391 OA
ATOM     28  H1  UNL     1       7.892 111.576  79.577  1.00  0.00     0.210 HD
ENDBRANCH   2  27
BRANCH   6  29
HETATM   29  O5  UNL     1       9.697 108.880  78.556  1.00  0.00    -0.391 OA
ATOM     30  H5  UNL     1      10.340 108.370  78.078  1.00  0.00     0.210 HD
ENDBRANCH   6  29
BRANCH   3  31
HETATM   31  O2  UNL     1       7.146 110.082  82.700  1.00  0.00    -0.390 OA
ATOM     32  H2  UNL     1       6.500 109.888  82.032  1.00  0.00     0.210 HD
ENDBRANCH   3  31
BRANCH   5  33
HETATM   33  N5  UNL     1       8.760 106.682  80.432  1.00  0.00    -0.212 N 
HETATM   34  C14 UNL     1       7.955 105.887  79.621  1.00  0.00     0.734 C 
HETATM   35  N6  UNL     1       7.043 105.121  80.102  1.00  0.00    -0.135 N 
HETATM   36  N8  UNL     1       8.118 105.828  78.217  1.00  0.00     0.010 N 
ATOM     37  H6  UNL     1       6.470 104.551  79.480  1.00  0.00     0.205 HD
ATOM     38  H5  UNL     1       9.459 106.177  80.978  1.00  0.00     0.178 HD
BRANCH  35  39
HETATM   39  N7  UNL     1       6.843 105.075  81.479  1.00  0.00    -0.331 N 
ATOM     40  H72 UNL     1       7.235 104.302  82.015  1.00  0.00     0.177 HD
ATOM     41  H71 UNL     1       6.307 105.815  81.934  1.00  0.00     0.177 HD
ENDBRANCH  35  39
BRANCH  36  42
HETATM   42  N9  UNL     1       7.188 106.283  77.275  1.00  0.00    -0.304 N 
ATOM     43  H92 UNL     1       6.531 105.611  76.876  1.00  0.00     0.180 HD
ATOM     44  H91 UNL     1       7.095 107.247  76.956  1.00  0.00     0.180 HD
ENDBRANCH  36  42
BRANCH  36  45
HETATM   45  O4  UNL     1       9.281 105.253  77.764  1.00  0.00    -0.255 OA
ATOM     46  H4  UNL     1       9.306 105.026  76.842  1.00  0.00     0.247 HD
ENDBRANCH  36  45
ENDBRANCH   5  33
BRANCH   4  47
HETATM   47  O3  UNL     1       7.666 107.732  82.634  1.00  0.00    -0.391 OA
ATOM     48  H3  UNL     1       7.719 107.824  83.578  1.00  0.00     0.210 HD
ENDBRANCH   4  47
TORSDOF 20
ENDMDL
MODEL 2
REMARK VINA RESULT: -6.677859003      1.981      4.956
REMARK  20 active torsions:
REMARK  status: ('A' for Active; 'I' for Inactive)
REMARK    1  A    between atoms: N1_1  and  C1_5 
REMARK    2  A    between atoms: C1_5  and  C2_6 
REMARK    3  A    between atoms: C2_6  and  N2_7 
REMARK    4  A    between atoms: N2_7  and  C3_10 
REMARK    5  A    between atoms: C3_10  and  C4_11 
REMARK    6  A    between atoms: C4_11  and  C5_12 
REMARK    7  A    between atoms: C5_12  and  C6_13 
REMARK    8  A    between atoms: C6_13  and  N3_14 
REMARK    9  A    between atoms: N3_14  and  C7_17 
REMARK   10  A    between atoms: C7_17  and  C8_18 
REMARK   11  A    between atoms: C8_18  and  N4_19 
REMARK   12  A    between atoms: N4_19  and  C9_21 
REMARK   13  A    between atoms: C10_22  and  O1_23 
REMARK   14  A    between atoms: C11_25  and  O2_26 
REMARK   15  A    between atoms: C12_28  and  O3_29 
REMARK   16  A    between atoms: C13_31  and  N5_32 
REMARK       I    between atoms: N5_32  and  C14_34 
REMARK       I    between atoms: C14_34  and  N8_40 
REMARK   17  A    between atoms: N6_35  and  N7_37 
REMARK   18  A    between atoms: N8_40  and  N9_41 
REMARK   19  A    between atoms: N8_40  and  O4_44 
REMARK   20  A    between atoms: C15_46  and  O5_47 
ROOT
HETATM    1  C9  UNL     1       7.916 106.673  77.372  1.00  0.00     0.139 C 
HETATM    2  C10 UNL     1       8.309 105.210  77.270  1.00  0.00     0.174 C 
HETATM    3  C11 UNL     1       7.188 104.397  77.850  1.00  0.00     0.179 C 
HETATM    4  C12 UNL     1       6.568 105.061  79.061  1.00  0.00     0.175 C 
HETATM    5  C13 UNL     1       7.515 106.005  79.730  1.00  0.00     0.161 C 
HETATM    6  C15 UNL     1       7.833 107.154  78.786  1.00  0.00     0.168 C 
ENDROOT
BRANCH   1   7
HETATM    7  N4  UNL     1       8.598 107.484  76.437  1.00  0.00    -0.411 N 
ATOM      8  H4  UNL     1       9.604 107.619  76.530  1.00  0.00     0.153 HD
BRANCH   7   9
HETATM    9  C8  UNL     1       7.914 108.104  75.384  1.00  0.00     0.142 C 
BRANCH   9  10
HETATM   10  C7  UNL     1       6.682 108.791  76.004  1.00  0.00     0.251 C 
BRANCH  10  11
HETATM   11  N3  UNL     1       6.837 110.224  76.004  1.00  0.00    -0.074 N 
ATOM     12  H32 UNL     1       6.026 110.680  75.587  1.00  0.00     0.277 HD
ATOM     13  H31 UNL     1       7.550 110.515  75.336  1.00  0.00     0.277 HD
BRANCH  11  14
HETATM   14  C6  UNL     1       7.114 110.760  77.338  1.00  0.00     0.232 C 
BRANCH  14  15
HETATM   15  C5  UNL     1       7.518 112.227  77.196  1.00  0.00     0.029 C 
BRANCH  15  16
HETATM   16  C4  UNL     1       7.269 112.928  78.489  1.00  0.00     0.029 C 
BRANCH  16  17
HETATM   17  C3  UNL     1       8.546 113.399  79.171  1.00  0.00     0.232 C 
BRANCH  17  18
HETATM   18  N2  UNL     1       8.444 113.011  80.561  1.00  0.00    -0.074 N 
ATOM     19  H22 UNL     1       7.583 113.363  80.979  1.00  0.00     0.277 HD
ATOM     20  H21 UNL     1       9.121 113.515  81.134  1.00  0.00     0.277 HD
BRANCH  18  21
HETATM   21  C2  UNL     1       8.565 111.610  80.741  1.00  0.00     0.259 C 
BRANCH  21  22
HETATM   22  C1  UNL     1       9.973 111.132  80.459  1.00  0.00     0.257 C 
BRANCH  22  23
HETATM   23  N1  UNL     1      10.517 110.452  81.643  1.00  0.00    -0.078 N 
ATOM     24  H13 UNL     1       9.907 110.550  82.455  1.00  0.00     0.274 HD
ATOM     25  H12 UNL     1      10.479 109.436  81.552  1.00  0.00     0.274 HD
ATOM     26  H11 UNL     1      11.462 110.785  81.830  1.00  0.00     0.274 HD
ENDBRANCH  22  23
ENDBRANCH  21  22
ENDBRANCH  18  21
ENDBRANCH  17  18
ENDBRANCH  16  17
ENDBRANCH  15  16
ENDBRANCH  14  15
ENDBRANCH  11  14
ENDBRANCH  10  11
ENDBRANCH   9  10
ENDBRANCH   7   9
ENDBRANCH   1   7
BRANCH   2  27
HETATM   27  O1  UNL     1       9.498 104.862  77.814  1.00  0.00    -0.391 OA
ATOM     28  H1  UNL     1      10.160 105.542  77.860  1.00  0.00     0.210 HD
ENDBRANCH   2  27
BRANCH   6  29
HETATM   29  O5  UNL     1       9.024 107.781  79.191  1.00  0.00    -0.391 OA
ATOM     30  H5  UNL     1       9.592 107.183  79.661  1.00  0.00     0.210 HD
ENDBRANCH   6  29
BRANCH   3  31
HETATM   31  O2  UNL     1       7.530 103.103  78.183  1.00  0.00    -0.390 OA
ATOM     32  H2  UNL     1       8.341 102.797  77.794  1.00  0.00     0.210 HD
ENDBRANCH   3  31
BRANCH   5  33
HETATM   33  N5  UNL     1       7.000 106.427  81.008  1.00  0.00    -0.212 N 
HETATM   34  C14 UNL     1       7.629 106.460  82.250  1.00  0.00     0.734 C 
HETATM   35  N6  UNL     1       7.337 105.633  83.188  1.00  0.00    -0.135 N 
HETATM   36  N8  UNL     1       8.596 107.438  82.584  1.00  0.00     0.010 N 
ATOM     37  H6  UNL     1       7.816 105.685  84.086  1.00  0.00     0.205 HD
ATOM     38  H5  UNL     1       6.032 106.748  81.003  1.00  0.00     0.178 HD
BRANCH  35  39
HETATM   39  N7  UNL     1       6.361 104.664  82.968  1.00  0.00    -0.331 N 
ATOM     40  H72 UNL     1       5.576 104.592  83.615  1.00  0.00     0.177 HD
ATOM     41  H71 UNL     1       6.443 104.042  82.164  1.00  0.00     0.177 HD
ENDBRANCH  35  39
BRANCH  36  42
HETATM   42  N9  UNL     1       9.949 107.186  82.832  1.00  0.00    -0.304 N 
ATOM     43  H92 UNL     1      10.195 106.408  83.445  1.00  0.00     0.180 HD
ATOM     44  H91 UNL     1      10.729 107.710  82.436  1.00  0.00     0.180 HD
ENDBRANCH  36  42
BRANCH  36  45
HETATM   45  O4  UNL     1       8.140 108.731  82.688  1.00  0.00    -0.255 OA
ATOM     46  H4  UNL     1       7.276 108.901  82.334  1.00  0.00     0.247 HD
ENDBRANCH  36  45
ENDBRANCH   5  33
BRANCH   4  47
HETATM   47  O3  UNL     1       6.277 104.056  80.004  1.00  0.00    -0.391 OA
ATOM     48  H3  UNL     1       5.828 103.353  79.551  1.00  0.00     0.210 HD
ENDBRANCH   4  47
TORSDOF 20
ENDMDL
MODEL 3
REMARK VINA RESULT: -6.653066008      1.928      4.908
REMARK  20 active torsions:
REMARK  status: ('A' for Active; 'I' for Inactive)
REMARK    1  A    between atoms: N1_1  and  C1_5 
REMARK    2  A    between atoms: C1_5  and  C2_6 
REMARK    3  A    between atoms: C2_6  and  N2_7 
REMARK    4  A    between atoms: N2_7  and  C3_10 
REMARK    5  A    between atoms: C3_10  and  C4_11 
REMARK    6  A    between atoms: C4_11  and  C5_12 
REMARK    7  A    between atoms: C5_12  and  C6_13 
REMARK    8  A    between atoms: C6_13  and  N3_14 
REMARK    9  A    between atoms: N3_14  and  C7_17 
REMARK   10  A    between atoms: C7_17  and  C8_18 
REMARK   11  A    between atoms: C8_18  and  N4_19 
REMARK   12  A    between atoms: N4_19  and  C9_21 
REMARK   13  A    between atoms: C10_22  and  O1_23 
REMARK   14  A    between atoms: C11_25  and  O2_26 
REMARK   15  A    between atoms: C12_28  and  O3_29 
REMARK   16  A    between atoms: C13_31  and  N5_32 
REMARK       I    between atoms: N5_32  and  C14_34 
REMARK       I    between atoms: C14_34  and  N8_40 
REMARK   17  A    between atoms: N6_35  and  N7_37 
REMARK   18  A    between atoms: N8_40  and  N9_41 
REMARK   19  A    between atoms: N8_40  and  O4_44 
REMARK   20  A    between atoms: C15_46  and  O5_47 
ROOT
HETATM    1  C9  UNL     1       6.938 107.882  76.892  1.00  0.00     0.139 C 
HETATM    2  C10 UNL     1       8.066 106.911  76.590  1.00  0.00     0.174 C 
HETATM    3  C11 UNL     1       8.074 105.872  77.673  1.00  0.00     0.179 C 
HETATM    4  C12 UNL     1       7.758 106.462  79.032  1.00  0.00     0.175 C 
HETATM    5  C13 UNL     1       8.078 107.921  79.099  1.00  0.00     0.161 C 
HETATM    6  C15 UNL     1       7.177 108.678  78.136  1.00  0.00     0.168 C 
ENDROOT
BRANCH   1   7
HETATM    7  N4  UNL     1       6.494 108.571  75.741  1.00  0.00    -0.411 N 
ATOM      8  H4  UNL     1       7.126 108.687  74.950  1.00  0.00     0.153 HD
BRANCH   7   9
HETATM    9  C8  UNL     1       5.197 109.097  75.670  1.00  0.00     0.142 C 
BRANCH   9  10
HETATM   10  C7  UNL     1       5.349 110.608  75.411  1.00  0.00     0.251 C 
BRANCH  10  11
HETATM   11  N3  UNL     1       5.259 111.353  76.642  1.00  0.00    -0.074 N 
ATOM     12  H32 UNL     1       5.659 110.827  77.419  1.00  0.00     0.277 HD
ATOM     13  H31 UNL     1       4.293 111.413  76.964  1.00  0.00     0.277 HD
BRANCH  11  14
HETATM   14  C6  UNL     1       5.864 112.682  76.540  1.00  0.00     0.232 C 
BRANCH  14  15
HETATM   15  C5  UNL     1       5.833 113.336  77.921  1.00  0.00     0.029 C 
BRANCH  15  16
HETATM   16  C4  UNL     1       7.220 113.729  78.305  1.00  0.00     0.029 C 
BRANCH  16  17
HETATM   17  C3  UNL     1       7.716 113.026  79.560  1.00  0.00     0.232 C 
BRANCH  17  18
HETATM   18  N2  UNL     1       8.812 112.173  79.154  1.00  0.00    -0.074 N 
ATOM     19  H22 UNL     1       8.483 111.403  78.571  1.00  0.00     0.277 HD
ATOM     20  H21 UNL     1       9.173 111.637  79.943  1.00  0.00     0.277 HD
BRANCH  18  21
HETATM   21  C2  UNL     1       9.849 112.895  78.511  1.00  0.00     0.259 C 
BRANCH  21  22
HETATM   22  C1  UNL     1      11.215 112.381  78.910  1.00  0.00     0.257 C 
BRANCH  22  23
HETATM   23  N1  UNL     1      11.534 112.820  80.276  1.00  0.00    -0.078 N 
ATOM     24  H13 UNL     1      12.432 113.301  80.324  1.00  0.00     0.274 HD
ATOM     25  H12 UNL     1      10.938 113.591  80.580  1.00  0.00     0.274 HD
ATOM     26  H11 UNL     1      11.489 112.026  80.914  1.00  0.00     0.274 HD
ENDBRANCH  22  23
ENDBRANCH  21  22
ENDBRANCH  18  21
ENDBRANCH  17  18
ENDBRANCH  16  17
ENDBRANCH  15  16
ENDBRANCH  14  15
ENDBRANCH  11  14
ENDBRANCH  10  11
ENDBRANCH   9  10
ENDBRANCH   7   9
ENDBRANCH   1   7
BRANCH   2  27
HETATM   27  O1  UNL     1       9.297 107.446  76.416  1.00  0.00    -0.391 OA
ATOM     28  H1  UNL     1       9.557 107.632  75.521  1.00  0.00     0.210 HD
ENDBRANCH   2  27
BRANCH   6  29
HETATM   29  O5  UNL     1       7.744 109.932  77.848  1.00  0.00    -0.391 OA
ATOM     30  H5  UNL     1       7.923 110.425  78.639  1.00  0.00     0.210 HD
ENDBRANCH   6  29
BRANCH   3  31
HETATM   31  O2  UNL     1       9.245 105.150  77.767  1.00  0.00    -0.390 OA
ATOM     32  H2  UNL     1       9.744 105.308  78.558  1.00  0.00     0.210 HD
ENDBRANCH   3  31
BRANCH   5  33
HETATM   33  N5  UNL     1       8.010 108.398  80.457  1.00  0.00    -0.212 N 
HETATM   34  C14 UNL     1       9.018 108.496  81.412  1.00  0.00     0.734 C 
HETATM   35  N6  UNL     1       9.078 107.711  82.427  1.00  0.00    -0.135 N 
HETATM   36  N8  UNL     1      10.015 109.498  81.362  1.00  0.00     0.010 N 
ATOM     37  H6  UNL     1       9.828 107.810  83.110  1.00  0.00     0.205 HD
ATOM     38  H5  UNL     1       7.088 108.709  80.764  1.00  0.00     0.178 HD
BRANCH  35  39
HETATM   39  N7  UNL     1       8.108 106.724  82.588  1.00  0.00    -0.331 N 
ATOM     40  H72 UNL     1       8.380 105.743  82.522  1.00  0.00     0.177 HD
ATOM     41  H71 UNL     1       7.142 106.994  82.771  1.00  0.00     0.177 HD
ENDBRANCH  35  39
BRANCH  36  42
HETATM   42  N9  UNL     1      11.380 109.271  81.152  1.00  0.00    -0.304 N 
ATOM     43  H92 UNL     1      11.665 108.752  80.321  1.00  0.00     0.180 HD
ATOM     44  H91 UNL     1      12.132 109.598  81.757  1.00  0.00     0.180 HD
ENDBRANCH  36  42
BRANCH  36  45
HETATM   45  O4  UNL     1       9.589 110.789  81.560  1.00  0.00    -0.255 OA
ATOM     46  H4  UNL     1      10.262 111.460  81.547  1.00  0.00     0.247 HD
ENDBRANCH  36  45
ENDBRANCH   5  33
BRANCH   4  47
HETATM   47  O3  UNL     1       8.586 105.830  79.980  1.00  0.00    -0.391 OA
ATOM     48  H3  UNL     1       8.027 105.378  80.600  1.00  0.00     0.210 HD
ENDBRANCH   4  47
TORSDOF 20
ENDMDL
MODEL 4
REMARK VINA RESULT: -6.649942763      0.855      1.085
REMARK  20 active torsions:
REMARK  status: ('A' for Active; 'I' for Inactive)
REMARK    1  A    between atoms: N1_1  and  C1_5 
REMARK    2  A    between atoms: C1_5  and  C2_6 
REMARK    3  A    between atoms: C2_6  and  N2_7 
REMARK    4  A    between atoms: N2_7  and  C3_10 
REMARK    5  A    between atoms: C3_10  and  C4_11 
REMARK    6  A    between atoms: C4_11  and  C5_12 
REMARK    7  A    between atoms: C5_12  and  C6_13 
REMARK    8  A    between atoms: C6_13  and  N3_14 
REMARK    9  A    between atoms: N3_14  and  C7_17 
REMARK   10  A    between atoms: C7_17  and  C8_18 
REMARK   11  A    between atoms: C8_18  and  N4_19 
REMARK   12  A    between atoms: N4_19  and  C9_21 
REMARK   13  A    between atoms: C10_22  and  O1_23 
REMARK   14  A    between atoms: C11_25  and  O2_26 
REMARK   15  A    between atoms: C12_28  and  O3_29 
REMARK   16  A    between atoms: C13_31  and  N5_32 
REMARK       I    between atoms: N5_32  and  C14_34 
REMARK       I    between atoms: C14_34  and  N8_40 
REMARK   17  A    between atoms: N6_35  and  N7_37 
REMARK   18  A    between atoms: N8_40  and  N9_41 
REMARK   19  A    between atoms: N8_40  and  O4_44 
REMARK   20  A    between atoms: C15_46  and  O5_47 
ROOT
HETATM    1  C9  UNL     1      10.072 110.145  80.513  1.00  0.00     0.139 C 
HETATM    2  C10 UNL     1       8.807 110.721  81.125  1.00  0.00     0.174 C 
HETATM    3  C11 UNL     1       8.464 109.890  82.327  1.00  0.00     0.179 C 
HETATM    4  C12 UNL     1       8.743 108.419  82.102  1.00  0.00     0.175 C 
HETATM    5  C13 UNL     1       8.729 108.060  80.651  1.00  0.00     0.161 C 
HETATM    6  C15 UNL     1       9.868 108.777  79.943  1.00  0.00     0.168 C 
ENDROOT
BRANCH   1   7
HETATM    7  N4  UNL     1      10.774 111.089  79.731  1.00  0.00    -0.411 N 
ATOM      8  H4  UNL     1      11.307 110.774  78.921  1.00  0.00     0.153 HD
BRANCH   7   9
HETATM    9  C8  UNL     1      10.750 112.452  80.051  1.00  0.00     0.142 C 
BRANCH   9  10
HETATM   10  C7  UNL     1      10.013 113.162  78.899  1.00  0.00     0.251 C 
BRANCH  10  11
HETATM   11  N3  UNL     1       8.774 113.738  79.358  1.00  0.00    -0.074 N 
ATOM     12  H32 UNL     1       8.945 114.543  79.961  1.00  0.00     0.277 HD
ATOM     13  H31 UNL     1       8.312 113.125  80.029  1.00  0.00     0.277 HD
BRANCH  11  14
HETATM   14  C6  UNL     1       7.875 114.087  78.257  1.00  0.00     0.232 C 
BRANCH  14  15
HETATM   15  C5  UNL     1       6.459 113.645  78.629  1.00  0.00     0.029 C 
BRANCH  15  16
HETATM   16  C4  UNL     1       5.961 112.689  77.598  1.00  0.00     0.029 C 
BRANCH  16  17
HETATM   17  C3  UNL     1       7.078 111.960  76.866  1.00  0.00     0.232 C 
BRANCH  17  18
HETATM   18  N2  UNL     1       7.206 110.660  77.488  1.00  0.00    -0.074 N 
ATOM     19  H22 UNL     1       6.913 110.690  78.465  1.00  0.00     0.277 HD
ATOM     20  H21 UNL     1       8.187 110.411  77.620  1.00  0.00     0.277 HD
BRANCH  18  21
HETATM   21  C2  UNL     1       6.514 109.649  76.776  1.00  0.00     0.259 C 
BRANCH  21  22
HETATM   22  C1  UNL     1       6.692 109.801  75.280  1.00  0.00     0.257 C 
BRANCH  22  23
HETATM   23  N1  UNL     1       7.393 108.628  74.740  1.00  0.00    -0.078 N 
ATOM     24  H13 UNL     1       8.374 108.825  74.544  1.00  0.00     0.274 HD
ATOM     25  H12 UNL     1       7.527 107.902  75.445  1.00  0.00     0.274 HD
ATOM     26  H11 UNL     1       6.901 108.278  73.918  1.00  0.00     0.274 HD
ENDBRANCH  22  23
ENDBRANCH  21  22
ENDBRANCH  18  21
ENDBRANCH  17  18
ENDBRANCH  16  17
ENDBRANCH  15  16
ENDBRANCH  14  15
ENDBRANCH  11  14
ENDBRANCH  10  11
ENDBRANCH   9  10
ENDBRANCH   7   9
ENDBRANCH   1   7
BRANCH   2  27
HETATM   27  O1  UNL     1       7.741 110.855  80.302  1.00  0.00    -0.391 OA
ATOM     28  H1  UNL     1       6.900 111.009  80.716  1.00  0.00     0.210 HD
ENDBRANCH   2  27
BRANCH   6  29
HETATM   29  O5  UNL     1       9.609 108.824  78.562  1.00  0.00    -0.391 OA
ATOM     30  H5  UNL     1       9.801 107.994  78.142  1.00  0.00     0.210 HD
ENDBRANCH   6  29
BRANCH   3  31
HETATM   31  O2  UNL     1       7.166 110.031  82.769  1.00  0.00    -0.390 OA
ATOM     32  H2  UNL     1       6.900 110.927  82.937  1.00  0.00     0.210 HD
ENDBRANCH   3  31
BRANCH   5  33
HETATM   33  N5  UNL     1       8.744 106.629  80.477  1.00  0.00    -0.212 N 
HETATM   34  C14 UNL     1       7.942 105.827  79.670  1.00  0.00     0.734 C 
HETATM   35  N6  UNL     1       7.034 105.059  80.155  1.00  0.00    -0.135 N 
HETATM   36  N8  UNL     1       8.106 105.760  78.267  1.00  0.00     0.010 N 
ATOM     37  H6  UNL     1       6.464 104.483  79.537  1.00  0.00     0.205 HD
ATOM     38  H5  UNL     1       9.445 106.131  81.027  1.00  0.00     0.178 HD
BRANCH  35  39
HETATM   39  N7  UNL     1       6.833 105.021  81.533  1.00  0.00    -0.331 N 
ATOM     40  H72 UNL     1       7.640 105.054  82.156  1.00  0.00     0.177 HD
ATOM     41  H71 UNL     1       5.883 104.960  81.900  1.00  0.00     0.177 HD
ENDBRANCH  35  39
BRANCH  36  42
HETATM   42  N9  UNL     1       7.175 106.205  77.321  1.00  0.00    -0.304 N 
ATOM     43  H92 UNL     1       6.272 106.546  77.651  1.00  0.00     0.180 HD
ATOM     44  H91 UNL     1       7.326 106.234  76.314  1.00  0.00     0.180 HD
ENDBRANCH  36  42
BRANCH  36  45
HETATM   45  O4  UNL     1       9.272 105.188  77.818  1.00  0.00    -0.255 OA
ATOM     46  H4  UNL     1      10.016 105.770  77.725  1.00  0.00     0.247 HD
ENDBRANCH  36  45
ENDBRANCH   5  33
BRANCH   4  47
HETATM   47  O3  UNL     1       7.703 107.684  82.703  1.00  0.00    -0.391 OA
ATOM     48  H3  UNL     1       8.092 107.085  83.328  1.00  0.00     0.210 HD
ENDBRANCH   4  47
TORSDOF 20
ENDMDL
MODEL 5
REMARK VINA RESULT: -6.499333933      2.833      7.614
REMARK  20 active torsions:
REMARK  status: ('A' for Active; 'I' for Inactive)
REMARK    1  A    between atoms: N1_1  and  C1_5 
REMARK    2  A    between atoms: C1_5  and  C2_6 
REMARK    3  A    between atoms: C2_6  and  N2_7 
REMARK    4  A    between atoms: N2_7  and  C3_10 
REMARK    5  A    between atoms: C3_10  and  C4_11 
REMARK    6  A    between atoms: C4_11  and  C5_12 
REMARK    7  A    between atoms: C5_12  and  C6_13 
REMARK    8  A    between atoms: C6_13  and  N3_14 
REMARK    9  A    between atoms: N3_14  and  C7_17 
REMARK   10  A    between atoms: C7_17  and  C8_18 
REMARK   11  A    between atoms: C8_18  and  N4_19 
REMARK   12  A    between atoms: N4_19  and  C9_21 
REMARK   13  A    between atoms: C10_22  and  O1_23 
REMARK   14  A    between atoms: C11_25  and  O2_26 
REMARK   15  A    between atoms: C12_28  and  O3_29 
REMARK   16  A    between atoms: C13_31  and  N5_32 
REMARK       I    between atoms: N5_32  and  C14_34 
REMARK       I    between atoms: C14_34  and  N8_40 
REMARK   17  A    between atoms: N6_35  and  N7_37 
REMARK   18  A    between atoms: N8_40  and  N9_41 
REMARK   19  A    between atoms: N8_40  and  O4_44 
REMARK   20  A    between atoms: C15_46  and  O5_47 
ROOT
HETATM    1  C9  UNL     1       7.885 107.980  79.258  1.00  0.00     0.139 C 
HETATM    2  C10 UNL     1       7.873 106.876  80.301  1.00  0.00     0.174 C 
HETATM    3  C11 UNL     1       7.300 107.450  81.564  1.00  0.00     0.179 C 
HETATM    4  C12 UNL     1       7.749 108.877  81.796  1.00  0.00     0.175 C 
HETATM    5  C13 UNL     1       9.037 109.182  81.102  1.00  0.00     0.161 C 
HETATM    6  C15 UNL     1       8.833 109.086  79.598  1.00  0.00     0.168 C 
ENDROOT
BRANCH   1   7
HETATM    7  N4  UNL     1       7.901 107.478  77.937  1.00  0.00    -0.411 N 
ATOM      8  H4  UNL     1       8.271 108.057  77.184  1.00  0.00     0.153 HD
BRANCH   7   9
HETATM    9  C8  UNL     1       7.418 106.196  77.646  1.00  0.00     0.142 C 
BRANCH   9  10
HETATM   10  C7  UNL     1       8.626 105.368  77.169  1.00  0.00     0.251 C 
BRANCH  10  11
HETATM   11  N3  UNL     1       8.937 104.321  78.111  1.00  0.00    -0.074 N 
ATOM     12  H32 UNL     1       9.515 104.673  78.873  1.00  0.00     0.277 HD
ATOM     13  H31 UNL     1       9.588 103.648  77.708  1.00  0.00     0.277 HD
BRANCH  11  14
HETATM   14  C6  UNL     1       7.739 103.654  78.624  1.00  0.00     0.232 C 
BRANCH  14  15
HETATM   15  C5  UNL     1       8.111 102.223  79.013  1.00  0.00     0.029 C 
BRANCH  15  16
HETATM   16  C4  UNL     1       8.070 102.095  80.498  1.00  0.00     0.029 C 
BRANCH  16  17
HETATM   17  C3  UNL     1       7.642 100.713  80.970  1.00  0.00     0.232 C 
BRANCH  17  18
HETATM   18  N2  UNL     1       6.697 100.913  82.046  1.00  0.00    -0.074 N 
ATOM     19  H22 UNL     1       6.858 101.805  82.516  1.00  0.00     0.277 HD
ATOM     20  H21 UNL     1       6.887 100.283  82.825  1.00  0.00     0.277 HD
BRANCH  18  21
HETATM   21  C2  UNL     1       5.352 100.799  81.613  1.00  0.00     0.259 C 
BRANCH  21  22
HETATM   22  C1  UNL     1       4.650 102.140  81.617  1.00  0.00     0.257 C 
BRANCH  22  23
HETATM   23  N1  UNL     1       4.263 102.497  82.989  1.00  0.00    -0.078 N 
ATOM     24  H13 UNL     1       4.155 101.675  83.583  1.00  0.00     0.274 HD
ATOM     25  H12 UNL     1       5.025 102.947  83.498  1.00  0.00     0.274 HD
ATOM     26  H11 UNL     1       3.421 103.071  82.974  1.00  0.00     0.274 HD
ENDBRANCH  22  23
ENDBRANCH  21  22
ENDBRANCH  18  21
ENDBRANCH  17  18
ENDBRANCH  16  17
ENDBRANCH  15  16
ENDBRANCH  14  15
ENDBRANCH  11  14
ENDBRANCH  10  11
ENDBRANCH   9  10
ENDBRANCH   7   9
ENDBRANCH   1   7
BRANCH   2  27
HETATM   27  O1  UNL     1       9.049 106.251  80.536  1.00  0.00    -0.391 OA
ATOM     28  H1  UNL     1       9.003 105.332  80.775  1.00  0.00     0.210 HD
ENDBRANCH   2  27
BRANCH   6  29
HETATM   29  O5  UNL     1      10.076 108.918  78.963  1.00  0.00    -0.391 OA
ATOM     30  H5  UNL     1      10.756 109.431  79.383  1.00  0.00     0.210 HD
ENDBRANCH   6  29
BRANCH   3  31
HETATM   31  O2  UNL     1       7.563 106.713  82.699  1.00  0.00    -0.390 OA
ATOM     32  H2  UNL     1       8.483 106.655  82.927  1.00  0.00     0.210 HD
ENDBRANCH   3  31
BRANCH   5  33
HETATM   33  N5  UNL     1       9.568 110.448  81.539  1.00  0.00    -0.212 N 
HETATM   34  C14 UNL     1       9.585 111.675  80.881  1.00  0.00     0.734 C 
HETATM   35  N6  UNL     1      10.665 112.178  80.401  1.00  0.00    -0.135 N 
HETATM   36  N8  UNL     1       8.429 112.478  80.742  1.00  0.00     0.010 N 
ATOM     37  H6  UNL     1      10.645 113.080  79.926  1.00  0.00     0.205 HD
ATOM     38  H5  UNL     1       9.993 110.445  82.466  1.00  0.00     0.178 HD
BRANCH  35  39
HETATM   39  N7  UNL     1      11.864 111.482  80.534  1.00  0.00    -0.331 N 
ATOM     40  H72 UNL     1      11.877 110.606  81.056  1.00  0.00     0.177 HD
ATOM     41  H71 UNL     1      12.712 111.858  80.109  1.00  0.00     0.177 HD
ENDBRANCH  35  39
BRANCH  36  42
HETATM   42  N9  UNL     1       7.793 112.778  79.532  1.00  0.00    -0.304 N 
ATOM     43  H92 UNL     1       8.298 112.607  78.662  1.00  0.00     0.180 HD
ATOM     44  H91 UNL     1       6.846 113.144  79.438  1.00  0.00     0.180 HD
ENDBRANCH  36  42
BRANCH  36  45
HETATM   45  O4  UNL     1       7.919 113.013  81.900  1.00  0.00    -0.255 OA
ATOM     46  H4  UNL     1       7.403 113.805  81.805  1.00  0.00     0.247 HD
ENDBRANCH  36  45
ENDBRANCH   5  33
BRANCH   4  47
HETATM   47  O3  UNL     1       7.995 109.034  83.175  1.00  0.00    -0.391 OA
ATOM     48  H3  UNL     1       8.930 109.145  83.293  1.00  0.00     0.210 HD
ENDBRANCH   4  47
TORSDOF 20
ENDMDL
