MODEL 1
REMARK VINA RESULT: -7.241159666      0.000      0.000
REMARK  20 active torsions:
REMARK  status: ('A' for Active; 'I' for Inactive)
REMARK    1  A    between atoms: N1_1  and  C1_5 
REMARK    2  A    between atoms: C1_5  and  C2_6 
REMARK    3  A    between atoms: C2_6  and  C3_7 
REMARK    4  A    between atoms: C3_7  and  C4_8 
REMARK    5  A    between atoms: C4_8  and  C5_9 
REMARK    6  A    between atoms: C5_9  and  N2_10 
REMARK    7  A    between atoms: N2_10  and  C6_12 
REMARK    8  A    between atoms: C6_12  and  C7_13 
REMARK    9  A    between atoms: C6_12  and  N4_18 
REMARK   10  A    between atoms: C7_13  and  N3_14 
REMARK   11  A    between atoms: N4_18  and  C8_20 
REMARK   12  A    between atoms: C9_21  and  N5_22 
REMARK   13  A    between atoms: C10_26  and  O1_27 
REMARK   14  A    between atoms: C11_29  and  O2_30 
REMARK   15  A    between atoms: C12_32  and  N6_33 
REMARK   16  A    between atoms: C12_32  and  O3_37 
REMARK   17  A    between atoms: O3_37  and  C13_38 
REMARK   18  A    between atoms: C13_38  and  C14_39 
REMARK   19  A    between atoms: C14_39  and  N7_40 
REMARK   20  A    between atoms: C16_45  and  N10_46 
ROOT
HETATM    1  C8  UNL     1       8.257 107.772  80.602  1.00  0.00     0.147 C 
HETATM    2  C9  UNL     1       8.223 108.119  82.033  1.00  0.00     0.239 C 
HETATM    3  C10 UNL     1       8.386 109.561  82.400  1.00  0.00     0.184 C 
HETATM    4  C11 UNL     1       9.025 110.454  81.413  1.00  0.00     0.214 C 
HETATM    5  C12 UNL     1       9.758 109.763  80.286  1.00  0.00     0.283 C 
HETATM    6  C16 UNL     1       8.890 108.742  79.654  1.00  0.00     0.273 C 
ENDROOT
BRANCH   1   7
HETATM    7  N4  UNL     1       8.904 106.508  80.426  1.00  0.00    -0.392 N 
ATOM      8  H4  UNL     1       9.873 106.376  80.718  1.00  0.00     0.155 HD
BRANCH   7   9
HETATM    9  C6  UNL     1       8.179 105.445  79.842  1.00  0.00     0.198 C 
BRANCH   9  10
HETATM   10  N2  UNL     1       6.967 105.279  80.601  1.00  0.00    -0.400 N 
ATOM     11  H2  UNL     1       6.137 105.834  80.392  1.00  0.00     0.155 HD
BRANCH  10  12
HETATM   12  C5  UNL     1       6.961 104.324  81.644  1.00  0.00     0.115 C 
BRANCH  12  13
HETATM   13  C4  UNL     1       7.078 102.960  80.972  1.00  0.00     0.019 C 
BRANCH  13  14
HETATM   14  C3  UNL     1       7.298 101.851  81.957  1.00  0.00     0.003 C 
BRANCH  14  15
HETATM   15  C2  UNL     1       8.380 100.900  81.491  1.00  0.00     0.027 C 
BRANCH  15  16
HETATM   16  C1  UNL     1       8.141 100.523  80.060  1.00  0.00     0.229 C 
BRANCH  16  17
HETATM   17  N1  UNL     1       8.339  99.121  79.805  1.00  0.00    -0.079 N 
ATOM     18  H13 UNL     1       8.705  98.971  78.865  1.00  0.00     0.274 HD
ATOM     19  H12 UNL     1       9.123  98.761  80.349  1.00  0.00     0.274 HD
ATOM     20  H11 UNL     1       7.500  98.563  79.962  1.00  0.00     0.274 HD
ENDBRANCH  16  17
ENDBRANCH  15  16
ENDBRANCH  14  15
ENDBRANCH  13  14
ENDBRANCH  12  13
ENDBRANCH  10  12
ENDBRANCH   9  10
BRANCH   9  21
HETATM   21  C7  UNL     1       8.018 105.528  78.393  1.00  0.00     0.275 C 
BRANCH  21  22
HETATM   22  N3  UNL     1       9.001 104.742  77.684  1.00  0.00    -0.076 N 
ATOM     23  H33 UNL     1       9.864 104.661  78.220  1.00  0.00     0.274 HD
ATOM     24  H32 UNL     1       8.733 103.758  77.655  1.00  0.00     0.274 HD
ATOM     25  H31 UNL     1       9.183 105.101  76.746  1.00  0.00     0.274 HD
ENDBRANCH  21  22
ENDBRANCH   9  21
ENDBRANCH   7   9
ENDBRANCH   1   7
BRANCH   2  26
HETATM   26  N5  UNL     1       9.193 107.314  82.805  1.00  0.00    -0.070 N 
ATOM     27  H53 UNL     1       9.571 106.548  82.247  1.00  0.00     0.274 HD
ATOM     28  H52 UNL     1      10.057 107.829  82.971  1.00  0.00     0.274 HD
ATOM     29  H51 UNL     1       8.785 106.977  83.677  1.00  0.00     0.274 HD
ENDBRANCH   2  26
BRANCH   6  30
HETATM   30  N10 UNL     1       7.813 109.457  78.940  1.00  0.00    -0.068 N 
ATOM     31 3H10 UNL     1       6.906 109.356  79.395  1.00  0.00     0.275 HD
ATOM     32 2H10 UNL     1       7.895 110.470  79.018  1.00  0.00     0.275 HD
ATOM     33 1H10 UNL     1       7.806 109.136  77.972  1.00  0.00     0.275 HD
ENDBRANCH   6  30
BRANCH   3  34
HETATM   34  O1  UNL     1       9.166 109.617  83.577  1.00  0.00    -0.391 OA
ATOM     35  H1  UNL     1       9.040 110.475  83.965  1.00  0.00     0.210 HD
ENDBRANCH   3  34
BRANCH   5  36
HETATM   36  N6  UNL     1      11.049 109.265  80.683  1.00  0.00    -0.042 N 
ATOM     37  H63 UNL     1      11.302 108.436  80.146  1.00  0.00     0.278 HD
ATOM     38  H62 UNL     1      11.793 109.893  80.377  1.00  0.00     0.278 HD
ATOM     39  H61 UNL     1      11.112 109.086  81.685  1.00  0.00     0.278 HD
ENDBRANCH   5  36
BRANCH   5  40
HETATM   40  O3  UNL     1      10.044 110.772  79.345  1.00  0.00    -0.346 OA
BRANCH  40  41
HETATM   41  C13 UNL     1      11.083 111.584  79.687  1.00  0.00     0.215 C 
BRANCH  41  42
HETATM   42  C14 UNL     1      10.785 112.985  79.162  1.00  0.00     0.089 C 
BRANCH  42  43
HETATM   43  N7  UNL     1       9.422 113.310  79.168  1.00  0.00    -0.344 N 
HETATM   44  C15 UNL     1       8.532 113.383  78.284  1.00  0.00     0.200 C 
HETATM   45  N8  UNL     1       7.219 113.751  78.671  1.00  0.00    -0.067 NA
HETATM   46  N9  UNL     1       8.772 113.122  76.921  1.00  0.00    -0.067 NA
ATOM     47  H7  UNL     1       9.073 113.537  80.100  1.00  0.00     0.167 HD
ENDBRANCH  42  43
ENDBRANCH  41  42
ENDBRANCH  40  41
ENDBRANCH   5  40
BRANCH   4  48
HETATM   48  O2  UNL     1       8.073 111.297  80.790  1.00  0.00    -0.388 OA
ATOM     49  H2  UNL     1       7.187 110.992  80.948  1.00  0.00     0.210 HD
ENDBRANCH   4  48
TORSDOF 20
ENDMDL
MODEL 2
REMARK VINA RESULT: -7.181859263      1.412      2.015
REMARK  20 active torsions:
REMARK  status: ('A' for Active; 'I' for Inactive)
REMARK    1  A    between atoms: N1_1  and  C1_5 
REMARK    2  A    between atoms: C1_5  and  C2_6 
REMARK    3  A    between atoms: C2_6  and  C3_7 
REMARK    4  A    between atoms: C3_7  and  C4_8 
REMARK    5  A    between atoms: C4_8  and  C5_9 
REMARK    6  A    between atoms: C5_9  and  N2_10 
REMARK    7  A    between atoms: N2_10  and  C6_12 
REMARK    8  A    between atoms: C6_12  and  C7_13 
REMARK    9  A    between atoms: C6_12  and  N4_18 
REMARK   10  A    between atoms: C7_13  and  N3_14 
REMARK   11  A    between atoms: N4_18  and  C8_20 
REMARK   12  A    between atoms: C9_21  and  N5_22 
REMARK   13  A    between atoms: C10_26  and  O1_27 
REMARK   14  A    between atoms: C11_29  and  O2_30 
REMARK   15  A    between atoms: C12_32  and  N6_33 
REMARK   16  A    between atoms: C12_32  and  O3_37 
REMARK   17  A    between atoms: O3_37  and  C13_38 
REMARK   18  A    between atoms: C13_38  and  C14_39 
REMARK   19  A    between atoms: C14_39  and  N7_40 
REMARK   20  A    between atoms: C16_45  and  N10_46 
ROOT
HETATM    1  C8  UNL     1       8.101 107.789  80.092  1.00  0.00     0.147 C 
HETATM    2  C9  UNL     1       7.822 107.968  81.527  1.00  0.00     0.239 C 
HETATM    3  C10 UNL     1       7.898 109.357  82.078  1.00  0.00     0.184 C 
HETATM    4  C11 UNL     1       8.677 110.356  81.321  1.00  0.00     0.214 C 
HETATM    5  C12 UNL     1       9.599 109.798  80.262  1.00  0.00     0.283 C 
HETATM    6  C16 UNL     1       8.866 108.860  79.381  1.00  0.00     0.273 C 
ENDROOT
BRANCH   1   7
HETATM    7  N4  UNL     1       8.789 106.551  79.883  1.00  0.00    -0.392 N 
ATOM      8  H4  UNL     1       9.440 106.196  80.584  1.00  0.00     0.155 HD
BRANCH   7   9
HETATM    9  C6  UNL     1       8.552 105.830  78.693  1.00  0.00     0.198 C 
BRANCH   9  10
HETATM   10  N2  UNL     1       9.032 104.488  78.897  1.00  0.00    -0.400 N 
ATOM     11  H2  UNL     1       9.992 104.314  79.198  1.00  0.00     0.155 HD
BRANCH  10  12
HETATM   12  C5  UNL     1       8.136 103.418  78.668  1.00  0.00     0.115 C 
BRANCH  12  13
HETATM   13  C4  UNL     1       7.900 102.763  80.025  1.00  0.00     0.019 C 
BRANCH  13  14
HETATM   14  C3  UNL     1       6.766 103.393  80.778  1.00  0.00     0.003 C 
BRANCH  14  15
HETATM   15  C2  UNL     1       6.800 103.025  82.246  1.00  0.00     0.027 C 
BRANCH  15  16
HETATM   16  C1  UNL     1       6.649 104.260  83.081  1.00  0.00     0.229 C 
BRANCH  16  17
HETATM   17  N1  UNL     1       7.480 104.252  84.255  1.00  0.00    -0.079 N 
ATOM     18  H13 UNL     1       6.964 103.906  85.063  1.00  0.00     0.274 HD
ATOM     19  H12 UNL     1       8.194 103.528  84.189  1.00  0.00     0.274 HD
ATOM     20  H11 UNL     1       7.900 105.160  84.453  1.00  0.00     0.274 HD
ENDBRANCH  16  17
ENDBRANCH  15  16
ENDBRANCH  14  15
ENDBRANCH  13  14
ENDBRANCH  12  13
ENDBRANCH  10  12
ENDBRANCH   9  10
BRANCH   9  21
HETATM   21  C7  UNL     1       7.199 105.947  78.155  1.00  0.00     0.275 C 
BRANCH  21  22
HETATM   22  N3  UNL     1       7.187 106.445  76.799  1.00  0.00    -0.076 N 
ATOM     23  H33 UNL     1       7.052 107.456  76.780  1.00  0.00     0.274 HD
ATOM     24  H32 UNL     1       8.116 106.395  76.381  1.00  0.00     0.274 HD
ATOM     25  H31 UNL     1       6.496 105.971  76.217  1.00  0.00     0.274 HD
ENDBRANCH  21  22
ENDBRANCH   9  21
ENDBRANCH   7   9
ENDBRANCH   1   7
BRANCH   2  26
HETATM   26  N5  UNL     1       8.663 107.077  82.353  1.00  0.00    -0.070 N 
ATOM     27  H53 UNL     1       9.341 106.569  81.785  1.00  0.00     0.274 HD
ATOM     28  H52 UNL     1       9.312 107.607  82.934  1.00  0.00     0.274 HD
ATOM     29  H51 UNL     1       8.094 106.442  82.913  1.00  0.00     0.274 HD
ENDBRANCH   2  26
BRANCH   6  30
HETATM   30  N10 UNL     1       7.912 109.655  78.582  1.00  0.00    -0.068 N 
ATOM     31 3H10 UNL     1       6.986 109.228  78.537  1.00  0.00     0.275 HD
ATOM     32 2H10 UNL     1       7.641 110.523  79.044  1.00  0.00     0.275 HD
ATOM     33 1H10 UNL     1       8.319 109.809  77.661  1.00  0.00     0.275 HD
ENDBRANCH   6  30
BRANCH   3  34
HETATM   34  O1  UNL     1       8.468 109.275  83.369  1.00  0.00    -0.391 OA
ATOM     35  H1  UNL     1       8.563 110.161  83.699  1.00  0.00     0.210 HD
ENDBRANCH   3  34
BRANCH   5  36
HETATM   36  N6  UNL     1      10.814 109.255  80.810  1.00  0.00    -0.042 N 
ATOM     37  H63 UNL     1      10.612 108.573  81.541  1.00  0.00     0.278 HD
ATOM     38  H62 UNL     1      11.278 108.645  80.137  1.00  0.00     0.278 HD
ATOM     39  H61 UNL     1      11.451 109.976  81.148  1.00  0.00     0.278 HD
ENDBRANCH   5  36
BRANCH   5  40
HETATM   40  O3  UNL     1      10.021 110.909  79.504  1.00  0.00    -0.346 OA
BRANCH  40  41
HETATM   41  C13 UNL     1      10.885 111.739  80.152  1.00  0.00     0.215 C 
BRANCH  41  42
HETATM   42  C14 UNL     1      10.710 113.145  79.585  1.00  0.00     0.089 C 
BRANCH  42  43
HETATM   43  N7  UNL     1       9.370 113.520  79.417  1.00  0.00    -0.344 N 
HETATM   44  C15 UNL     1       8.574 113.520  78.445  1.00  0.00     0.200 C 
HETATM   45  N8  UNL     1       7.250 113.983  78.652  1.00  0.00    -0.067 NA
HETATM   46  N9  UNL     1       8.929 113.085  77.153  1.00  0.00    -0.067 NA
ATOM     47  H7  UNL     1       8.947 113.873  80.275  1.00  0.00     0.167 HD
ENDBRANCH  42  43
ENDBRANCH  41  42
ENDBRANCH  40  41
ENDBRANCH   5  40
BRANCH   4  48
HETATM   48  O2  UNL     1       7.828 111.268  80.648  1.00  0.00    -0.388 OA
ATOM     49  H2  UNL     1       8.294 111.731  79.961  1.00  0.00     0.210 HD
ENDBRANCH   4  48
TORSDOF 20
ENDMDL
MODEL 3
REMARK VINA RESULT: -7.056704281      2.472      4.465
REMARK  20 active torsions:
REMARK  status: ('A' for Active; 'I' for Inactive)
REMARK    1  A    between atoms: N1_1  and  C1_5 
REMARK    2  A    between atoms: C1_5  and  C2_6 
REMARK    3  A    between atoms: C2_6  and  C3_7 
REMARK    4  A    between atoms: C3_7  and  C4_8 
REMARK    5  A    between atoms: C4_8  and  C5_9 
REMARK    6  A    between atoms: C5_9  and  N2_10 
REMARK    7  A    between atoms: N2_10  and  C6_12 
REMARK    8  A    between atoms: C6_12  and  C7_13 
REMARK    9  A    between atoms: C6_12  and  N4_18 
REMARK   10  A    between atoms: C7_13  and  N3_14 
REMARK   11  A    between atoms: N4_18  and  C8_20 
REMARK   12  A    between atoms: C9_21  and  N5_22 
REMARK   13  A    between atoms: C10_26  and  O1_27 
REMARK   14  A    between atoms: C11_29  and  O2_30 
REMARK   15  A    between atoms: C12_32  and  N6_33 
REMARK   16  A    between atoms: C12_32  and  O3_37 
REMARK   17  A    between atoms: O3_37  and  C13_38 
REMARK   18  A    between atoms: C13_38  and  C14_39 
REMARK   19  A    between atoms: C14_39  and  N7_40 
REMARK   20  A    between atoms: C16_45  and  N10_46 
ROOT
HETATM    1  C8  UNL     1       9.911 110.892  80.619  1.00  0.00     0.147 C 
HETATM    2  C9  UNL     1      11.251 111.378  80.249  1.00  0.00     0.239 C 
HETATM    3  C10 UNL     1      11.400 112.836  79.950  1.00  0.00     0.184 C 
HETATM    4  C11 UNL     1      10.186 113.591  79.581  1.00  0.00     0.214 C 
HETATM    5  C12 UNL     1       8.986 112.752  79.207  1.00  0.00     0.283 C 
HETATM    6  C16 UNL     1       8.728 111.726  80.244  1.00  0.00     0.273 C 
ENDROOT
BRANCH   1   7
HETATM    7  N4  UNL     1       9.707 109.581  80.083  1.00  0.00    -0.392 N 
ATOM      8  H4  UNL     1      10.111 109.321  79.182  1.00  0.00     0.155 HD
BRANCH   7   9
HETATM    9  C6  UNL     1       8.938 108.653  80.819  1.00  0.00     0.198 C 
BRANCH   9  10
HETATM   10  N2  UNL     1       8.939 107.413  80.087  1.00  0.00    -0.400 N 
ATOM     11  H2  UNL     1       9.553 106.644  80.357  1.00  0.00     0.155 HD
BRANCH  10  12
HETATM   12  C5  UNL     1       8.063 107.292  78.983  1.00  0.00     0.115 C 
BRANCH  12  13
HETATM   13  C4  UNL     1       8.473 106.016  78.253  1.00  0.00     0.019 C 
BRANCH  13  14
HETATM   14  C3  UNL     1       8.501 104.820  79.158  1.00  0.00     0.003 C 
BRANCH  14  15
HETATM   15  C2  UNL     1       7.104 104.339  79.488  1.00  0.00     0.027 C 
BRANCH  15  16
HETATM   16  C1  UNL     1       7.014 104.005  80.947  1.00  0.00     0.229 C 
BRANCH  16  17
HETATM   17  N1  UNL     1       6.764 105.155  81.774  1.00  0.00    -0.079 N 
ATOM     18  H13 UNL     1       7.189 105.040  82.694  1.00  0.00     0.274 HD
ATOM     19  H12 UNL     1       7.295 105.961  81.445  1.00  0.00     0.274 HD
ATOM     20  H11 UNL     1       5.773 105.380  81.856  1.00  0.00     0.274 HD
ENDBRANCH  16  17
ENDBRANCH  15  16
ENDBRANCH  14  15
ENDBRANCH  13  14
ENDBRANCH  12  13
ENDBRANCH  10  12
ENDBRANCH   9  10
BRANCH   9  21
HETATM   21  C7  UNL     1       9.274 108.556  82.236  1.00  0.00     0.275 C 
BRANCH  21  22
HETATM   22  N3  UNL     1       8.206 109.028  83.088  1.00  0.00    -0.076 N 
ATOM     23  H33 UNL     1       7.323 109.072  82.581  1.00  0.00     0.274 HD
ATOM     24  H32 UNL     1       7.959 108.329  83.789  1.00  0.00     0.274 HD
ATOM     25  H31 UNL     1       8.425 109.924  83.524  1.00  0.00     0.274 HD
ENDBRANCH  21  22
ENDBRANCH   9  21
ENDBRANCH   7   9
ENDBRANCH   1   7
BRANCH   2  26
HETATM   26  N5  UNL     1      11.816 110.598  79.129  1.00  0.00    -0.070 N 
ATOM     27  H53 UNL     1      12.379 111.183  78.511  1.00  0.00     0.274 HD
ATOM     28  H52 UNL     1      12.544 109.959  79.447  1.00  0.00     0.274 HD
ATOM     29  H51 UNL     1      11.087 110.105  78.614  1.00  0.00     0.274 HD
ENDBRANCH   2  26
BRANCH   6  30
HETATM   30  N10 UNL     1       8.256 112.428  81.454  1.00  0.00    -0.068 N 
ATOM     31 3H10 UNL     1       7.429 111.994  81.863  1.00  0.00     0.275 HD
ATOM     32 2H10 UNL     1       8.884 112.306  82.248  1.00  0.00     0.275 HD
ATOM     33 1H10 UNL     1       8.109 113.408  81.216  1.00  0.00     0.275 HD
ENDBRANCH   6  30
BRANCH   3  34
HETATM   34  O1  UNL     1      12.310 112.963  78.876  1.00  0.00    -0.391 OA
ATOM     35  H1  UNL     1      13.164 113.156  79.244  1.00  0.00     0.210 HD
ENDBRANCH   3  34
BRANCH   5  36
HETATM   36  N6  UNL     1       9.071 112.222  77.871  1.00  0.00    -0.042 N 
ATOM     37  H63 UNL     1      10.017 111.898  77.666  1.00  0.00     0.278 HD
ATOM     38  H62 UNL     1       8.573 111.335  77.796  1.00  0.00     0.278 HD
ATOM     39  H61 UNL     1       8.749 112.882  77.163  1.00  0.00     0.278 HD
ENDBRANCH   5  36
BRANCH   5  40
HETATM   40  O3  UNL     1       7.898 113.647  79.161  1.00  0.00    -0.346 OA
BRANCH  40  41
HETATM   41  C13 UNL     1       7.527 114.021  77.905  1.00  0.00     0.215 C 
BRANCH  41  42
HETATM   42  C14 UNL     1       6.179 113.378  77.595  1.00  0.00     0.089 C 
BRANCH  42  43
HETATM   43  N7  UNL     1       5.770 113.544  76.264  1.00  0.00    -0.344 N 
HETATM   44  C15 UNL     1       6.211 113.154  75.154  1.00  0.00     0.200 C 
HETATM   45  N8  UNL     1       5.513 113.525  73.978  1.00  0.00    -0.067 NA
HETATM   46  N9  UNL     1       7.372 112.368  75.016  1.00  0.00    -0.067 NA
ATOM     47  H7  UNL     1       4.924 114.108  76.178  1.00  0.00     0.167 HD
ENDBRANCH  42  43
ENDBRANCH  41  42
ENDBRANCH  40  41
ENDBRANCH   5  40
BRANCH   4  48
HETATM   48  O2  UNL     1       9.754 114.422  80.644  1.00  0.00    -0.388 OA
ATOM     49  H2  UNL     1       9.397 115.240  80.318  1.00  0.00     0.210 HD
ENDBRANCH   4  48
TORSDOF 20
ENDMDL
MODEL 4
REMARK VINA RESULT: -6.987184234      2.297      4.217
REMARK  20 active torsions:
REMARK  status: ('A' for Active; 'I' for Inactive)
REMARK    1  A    between atoms: N1_1  and  C1_5 
REMARK    2  A    between atoms: C1_5  and  C2_6 
REMARK    3  A    between atoms: C2_6  and  C3_7 
REMARK    4  A    between atoms: C3_7  and  C4_8 
REMARK    5  A    between atoms: C4_8  and  C5_9 
REMARK    6  A    between atoms: C5_9  and  N2_10 
REMARK    7  A    between atoms: N2_10  and  C6_12 
REMARK    8  A    between atoms: C6_12  and  C7_13 
REMARK    9  A    between atoms: C6_12  and  N4_18 
REMARK   10  A    between atoms: C7_13  and  N3_14 
REMARK   11  A    between atoms: N4_18  and  C8_20 
REMARK   12  A    between atoms: C9_21  and  N5_22 
REMARK   13  A    between atoms: C10_26  and  O1_27 
REMARK   14  A    between atoms: C11_29  and  O2_30 
REMARK   15  A    between atoms: C12_32  and  N6_33 
REMARK   16  A    between atoms: C12_32  and  O3_37 
REMARK   17  A    between atoms: O3_37  and  C13_38 
REMARK   18  A    between atoms: C13_38  and  C14_39 
REMARK   19  A    between atoms: C14_39  and  N7_40 
REMARK   20  A    between atoms: C16_45  and  N10_46 
ROOT
HETATM    1  C8  UNL     1       9.978 110.970  80.762  1.00  0.00     0.147 C 
HETATM    2  C9  UNL     1      11.279 111.457  80.274  1.00  0.00     0.239 C 
HETATM    3  C10 UNL     1      11.362 112.884  79.831  1.00  0.00     0.184 C 
HETATM    4  C11 UNL     1      10.105 113.564  79.461  1.00  0.00     0.214 C 
HETATM    5  C12 UNL     1       8.916 112.658  79.233  1.00  0.00     0.283 C 
HETATM    6  C16 UNL     1       8.748 111.729  80.375  1.00  0.00     0.273 C 
ENDROOT
BRANCH   1   7
HETATM    7  N4  UNL     1       9.791 109.608  80.363  1.00  0.00    -0.392 N 
ATOM      8  H4  UNL     1      10.233 109.251  79.515  1.00  0.00     0.155 HD
BRANCH   7   9
HETATM    9  C6  UNL     1       8.987 108.766  81.161  1.00  0.00     0.198 C 
BRANCH   9  10
HETATM   10  N2  UNL     1       8.993 107.459  80.556  1.00  0.00    -0.400 N 
ATOM     11  H2  UNL     1       9.869 106.965  80.384  1.00  0.00     0.155 HD
BRANCH  10  12
HETATM   12  C5  UNL     1       7.750 106.883  80.206  1.00  0.00     0.115 C 
BRANCH  12  13
HETATM   13  C4  UNL     1       7.402 105.910  81.328  1.00  0.00     0.019 C 
BRANCH  13  14
HETATM   14  C3  UNL     1       7.172 104.515  80.828  1.00  0.00     0.003 C 
BRANCH  14  15
HETATM   15  C2  UNL     1       6.719 103.593  81.940  1.00  0.00     0.027 C 
BRANCH  15  16
HETATM   16  C1  UNL     1       6.634 102.186  81.428  1.00  0.00     0.229 C 
BRANCH  16  17
HETATM   17  N1  UNL     1       5.925 101.305  82.316  1.00  0.00    -0.079 N 
ATOM     18  H13 UNL     1       6.408 100.411  82.403  1.00  0.00     0.274 HD
ATOM     19  H12 UNL     1       5.995 101.628  83.281  1.00  0.00     0.274 HD
ATOM     20  H11 UNL     1       4.950 101.167  82.048  1.00  0.00     0.274 HD
ENDBRANCH  16  17
ENDBRANCH  15  16
ENDBRANCH  14  15
ENDBRANCH  13  14
ENDBRANCH  12  13
ENDBRANCH  10  12
ENDBRANCH   9  10
BRANCH   9  21
HETATM   21  C7  UNL     1       9.276 108.806  82.592  1.00  0.00     0.275 C 
BRANCH  21  22
HETATM   22  N3  UNL     1       8.168 109.320  83.363  1.00  0.00    -0.076 N 
ATOM     23  H33 UNL     1       8.493 109.935  84.110  1.00  0.00     0.274 HD
ATOM     24  H32 UNL     1       7.624 109.993  82.823  1.00  0.00     0.274 HD
ATOM     25  H31 UNL     1       7.573 108.578  83.731  1.00  0.00     0.274 HD
ENDBRANCH  21  22
ENDBRANCH   9  21
ENDBRANCH   7   9
ENDBRANCH   1   7
BRANCH   2  26
HETATM   26  N5  UNL     1      11.811 110.590  79.202  1.00  0.00    -0.070 N 
ATOM     27  H53 UNL     1      11.591 110.960  78.277  1.00  0.00     0.274 HD
ATOM     28  H52 UNL     1      12.829 110.639  79.153  1.00  0.00     0.274 HD
ATOM     29  H51 UNL     1      11.488 109.629  79.307  1.00  0.00     0.274 HD
ENDBRANCH   2  26
BRANCH   6  30
HETATM   30  N10 UNL     1       8.317 112.530  81.538  1.00  0.00    -0.068 N 
ATOM     31 3H10 UNL     1       7.423 112.996  81.384  1.00  0.00     0.275 HD
ATOM     32 2H10 UNL     1       8.037 111.953  82.330  1.00  0.00     0.275 HD
ATOM     33 1H10 UNL     1       9.065 113.181  81.771  1.00  0.00     0.275 HD
ENDBRANCH   6  30
BRANCH   3  34
HETATM   34  O1  UNL     1      12.210 112.934  78.702  1.00  0.00    -0.391 OA
ATOM     35  H1  UNL     1      11.825 113.539  78.079  1.00  0.00     0.210 HD
ENDBRANCH   3  34
BRANCH   5  36
HETATM   36  N6  UNL     1       8.951 112.006  77.951  1.00  0.00    -0.042 N 
ATOM     37  H63 UNL     1       8.017 111.708  77.667  1.00  0.00     0.278 HD
ATOM     38  H62 UNL     1       9.144 112.675  77.205  1.00  0.00     0.278 HD
ATOM     39  H61 UNL     1       9.608 111.226  77.922  1.00  0.00     0.278 HD
ENDBRANCH   5  36
BRANCH   5  40
HETATM   40  O3  UNL     1       7.798 113.512  79.164  1.00  0.00    -0.346 OA
BRANCH  40  41
HETATM   41  C13 UNL     1       6.696 112.954  78.589  1.00  0.00     0.215 C 
BRANCH  41  42
HETATM   42  C14 UNL     1       6.176 113.914  77.524  1.00  0.00     0.089 C 
BRANCH  42  43
HETATM   43  N7  UNL     1       6.023 113.324  76.262  1.00  0.00    -0.344 N 
HETATM   44  C15 UNL     1       6.803 113.076  75.308  1.00  0.00     0.200 C 
HETATM   45  N8  UNL     1       6.280 112.447  74.151  1.00  0.00    -0.067 NA
HETATM   46  N9  UNL     1       8.175 113.395  75.327  1.00  0.00    -0.067 NA
ATOM     47  H7  UNL     1       5.064 113.030  76.076  1.00  0.00     0.167 HD
ENDBRANCH  42  43
ENDBRANCH  41  42
ENDBRANCH  40  41
ENDBRANCH   5  40
BRANCH   4  48
HETATM   48  O2  UNL     1       9.701 114.480  80.462  1.00  0.00    -0.388 OA
ATOM     49  H2  UNL     1       8.843 114.842  80.273  1.00  0.00     0.210 HD
ENDBRANCH   4  48
TORSDOF 20
ENDMDL
MODEL 5
REMARK VINA RESULT: -6.969735276      3.095      4.857
REMARK  20 active torsions:
REMARK  status: ('A' for Active; 'I' for Inactive)
REMARK    1  A    between atoms: N1_1  and  C1_5 
REMARK    2  A    between atoms: C1_5  and  C2_6 
REMARK    3  A    between atoms: C2_6  and  C3_7 
REMARK    4  A    between atoms: C3_7  and  C4_8 
REMARK    5  A    between atoms: C4_8  and  C5_9 
REMARK    6  A    between atoms: C5_9  and  N2_10 
REMARK    7  A    between atoms: N2_10  and  C6_12 
REMARK    8  A    between atoms: C6_12  and  C7_13 
REMARK    9  A    between atoms: C6_12  and  N4_18 
REMARK   10  A    between atoms: C7_13  and  N3_14 
REMARK   11  A    between atoms: N4_18  and  C8_20 
REMARK   12  A    between atoms: C9_21  and  N5_22 
REMARK   13  A    between atoms: C10_26  and  O1_27 
REMARK   14  A    between atoms: C11_29  and  O2_30 
REMARK   15  A    between atoms: C12_32  and  N6_33 
REMARK   16  A    between atoms: C12_32  and  O3_37 
REMARK   17  A    between atoms: O3_37  and  C13_38 
REMARK   18  A    between atoms: C13_38  and  C14_39 
REMARK   19  A    between atoms: C14_39  and  N7_40 
REMARK   20  A    between atoms: C16_45  and  N10_46 
ROOT
HETATM    1  C8  UNL     1       9.921 110.875  80.759  1.00  0.00     0.147 C 
HETATM    2  C9  UNL     1      11.229 111.327  80.254  1.00  0.00     0.239 C 
HETATM    3  C10 UNL     1      11.339 112.746  79.791  1.00  0.00     0.184 C 
HETATM    4  C11 UNL     1      10.094 113.448  79.422  1.00  0.00     0.214 C 
HETATM    5  C12 UNL     1       8.884 112.565  79.217  1.00  0.00     0.283 C 
HETATM    6  C16 UNL     1       8.706 111.656  80.373  1.00  0.00     0.273 C 
ENDROOT
BRANCH   1   7
HETATM    7  N4  UNL     1       9.702 109.512  80.380  1.00  0.00    -0.392 N 
ATOM      8  H4  UNL     1      10.068 109.154  79.497  1.00  0.00     0.155 HD
BRANCH   7   9
HETATM    9  C6  UNL     1       8.971 108.671  81.247  1.00  0.00     0.198 C 
BRANCH   9  10
HETATM   10  N2  UNL     1       9.033 107.336  80.710  1.00  0.00    -0.400 N 
ATOM     11  H2  UNL     1       9.600 106.616  81.158  1.00  0.00     0.155 HD
BRANCH  10  12
HETATM   12  C5  UNL     1       8.286 107.054  79.543  1.00  0.00     0.115 C 
BRANCH  12  13
HETATM   13  C4  UNL     1       8.442 105.557  79.291  1.00  0.00     0.019 C 
BRANCH  13  14
HETATM   14  C3  UNL     1       8.634 105.236  77.838  1.00  0.00     0.003 C 
BRANCH  14  15
HETATM   15  C2  UNL     1       8.224 106.395  76.954  1.00  0.00     0.027 C 
BRANCH  15  16
HETATM   16  C1  UNL     1       7.036 106.005  76.126  1.00  0.00     0.229 C 
BRANCH  16  17
HETATM   17  N1  UNL     1       7.015 106.641  74.837  1.00  0.00    -0.079 N 
ATOM     18  H13 UNL     1       7.309 107.615  74.907  1.00  0.00     0.274 HD
ATOM     19  H12 UNL     1       7.762 106.283  74.242  1.00  0.00     0.274 HD
ATOM     20  H11 UNL     1       6.111 106.566  74.369  1.00  0.00     0.274 HD
ENDBRANCH  16  17
ENDBRANCH  15  16
ENDBRANCH  14  15
ENDBRANCH  13  14
ENDBRANCH  12  13
ENDBRANCH  10  12
ENDBRANCH   9  10
BRANCH   9  21
HETATM   21  C7  UNL     1       9.300 108.804  82.663  1.00  0.00     0.275 C 
BRANCH  21  22
HETATM   22  N3  UNL     1       8.211 109.363  83.431  1.00  0.00    -0.076 N 
ATOM     23  H33 UNL     1       7.364 109.437  82.869  1.00  0.00     0.274 HD
ATOM     24  H32 UNL     1       7.882 108.704  84.137  1.00  0.00     0.274 HD
ATOM     25  H31 UNL     1       8.453 110.261  83.852  1.00  0.00     0.274 HD
ENDBRANCH  21  22
ENDBRANCH   9  21
ENDBRANCH   7   9
ENDBRANCH   1   7
BRANCH   2  26
HETATM   26  N5  UNL     1      11.733 110.434  79.190  1.00  0.00    -0.070 N 
ATOM     27  H53 UNL     1      12.437 109.787  79.546  1.00  0.00     0.274 HD
ATOM     28  H52 UNL     1      11.026 109.757  78.904  1.00  0.00     0.274 HD
ATOM     29  H51 UNL     1      12.083 110.966  78.393  1.00  0.00     0.274 HD
ENDBRANCH   2  26
BRANCH   6  30
HETATM   30  N10 UNL     1       8.302 112.481  81.528  1.00  0.00    -0.068 N 
ATOM     31 3H10 UNL     1       8.349 113.481  81.332  1.00  0.00     0.275 HD
ATOM     32 2H10 UNL     1       7.302 112.425  81.721  1.00  0.00     0.275 HD
ATOM     33 1H10 UNL     1       8.872 112.209  82.328  1.00  0.00     0.275 HD
ENDBRANCH   6  30
BRANCH   3  34
HETATM   34  O1  UNL     1      12.178 112.762  78.654  1.00  0.00    -0.391 OA
ATOM     35  H1  UNL     1      12.348 111.860  78.409  1.00  0.00     0.210 HD
ENDBRANCH   3  34
BRANCH   5  36
HETATM   36  N6  UNL     1       8.893 111.895  77.943  1.00  0.00    -0.042 N 
ATOM     37  H63 UNL     1       9.463 111.050  77.978  1.00  0.00     0.278 HD
ATOM     38  H62 UNL     1       7.985 111.474  77.745  1.00  0.00     0.278 HD
ATOM     39  H61 UNL     1       9.187 112.504  77.179  1.00  0.00     0.278 HD
ENDBRANCH   5  36
BRANCH   5  40
HETATM   40  O3  UNL     1       7.784 113.443  79.145  1.00  0.00    -0.346 OA
BRANCH  40  41
HETATM   41  C13 UNL     1       6.671 112.907  78.572  1.00  0.00     0.215 C 
BRANCH  41  42
HETATM   42  C14 UNL     1       6.165 113.881  77.512  1.00  0.00     0.089 C 
BRANCH  42  43
HETATM   43  N7  UNL     1       6.011 113.302  76.245  1.00  0.00    -0.344 N 
HETATM   44  C15 UNL     1       6.795 113.043  75.297  1.00  0.00     0.200 C 
HETATM   45  N8  UNL     1       6.270 112.433  74.130  1.00  0.00    -0.067 NA
HETATM   46  N9  UNL     1       8.173 113.332  75.331  1.00  0.00    -0.067 NA
ATOM     47  H7  UNL     1       5.048 113.031  76.048  1.00  0.00     0.167 HD
ENDBRANCH  42  43
ENDBRANCH  41  42
ENDBRANCH  40  41
ENDBRANCH   5  40
BRANCH   4  48
HETATM   48  O2  UNL     1       9.719 114.386  80.415  1.00  0.00    -0.388 OA
ATOM     49  H2  UNL     1       9.429 113.952  81.208  1.00  0.00     0.210 HD
ENDBRANCH   4  48
TORSDOF 20
ENDMDL
