MODEL 1
REMARK VINA RESULT: -6.907278714      0.000      0.000
REMARK  19 active torsions:
REMARK  status: ('A' for Active; 'I' for Inactive)
REMARK    1  A    between atoms: N1_2  and  C2_5 
REMARK    2  A    between atoms: C2_5  and  C3_6 
REMARK    3  A    between atoms: C3_6  and  C4_7 
REMARK    4  A    between atoms: C4_7  and  C5_8 
REMARK    5  A    between atoms: C5_8  and  N2_9 
REMARK    6  A    between atoms: N2_9  and  C6_11 
REMARK    7  A    between atoms: C7_12  and  N3_13 
REMARK    8  A    between atoms: N3_13  and  N4_14 
REMARK    9  A    between atoms: C8_20  and  O1_21 
REMARK   10  A    between atoms: O1_21  and  C9_22 
REMARK   11  A    between atoms: C10_24  and  C11_25 
REMARK   12  A    between atoms: C11_25  and  N6_26 
REMARK   13  A    between atoms: N6_26  and  C12_28 
REMARK   14  A    between atoms: C12_28  and  O3_29 
REMARK   15  A    between atoms: C12_28  and  C13_31 
REMARK   16  A    between atoms: C13_31  and  N7_32 
REMARK   17  A    between atoms: C14_36  and  O4_37 
REMARK   18  A    between atoms: C15_39  and  N8_40 
REMARK   19  A    between atoms: C16_44  and  O5_45 
ROOT
HETATM    1  C9  UNL     1       8.399 107.815  80.272  1.00  0.00     0.294 C 
HETATM    2  O2  UNL     1       9.199 108.575  79.496  1.00  0.00    -0.349 OA
HETATM    3  C10 UNL     1       9.731 109.710  80.088  1.00  0.00     0.173 C 
HETATM    4  C14 UNL     1       9.888 109.529  81.570  1.00  0.00     0.181 C 
HETATM    5  C15 UNL     1       8.433 109.602  82.072  1.00  0.00     0.247 C 
HETATM    6  C16 UNL     1       7.762 108.388  81.479  1.00  0.00     0.206 C 
ENDROOT
BRANCH   1   7
HETATM    7  O1  UNL     1       7.460 107.213  79.405  1.00  0.00    -0.324 OA
BRANCH   7   8
HETATM    8  C8  UNL     1       7.250 105.905  79.624  1.00  0.00     0.351 C 
HETATM    9  C6  UNL     1       6.868 105.039  78.453  1.00  0.00     0.182 C 
HETATM   10  C7  UNL     1       7.526 103.958  79.347  1.00  0.00     0.326 C 
HETATM   11  N5  UNL     1       8.450 105.049  79.733  1.00  0.00    -0.025 N 
ATOM     12  H52 UNL     1       9.022 105.010  80.577  1.00  0.00     0.282 HD
ATOM     13  H51 UNL     1       9.312 105.244  79.224  1.00  0.00     0.282 HD
BRANCH   9  14
HETATM   14  N2  UNL     1       7.598 105.115  77.249  1.00  0.00    -0.410 N 
ATOM     15  H2  UNL     1       8.473 104.601  77.145  1.00  0.00     0.153 HD
BRANCH  14  16
HETATM   16  C5  UNL     1       7.108 105.909  76.188  1.00  0.00     0.114 C 
BRANCH  16  17
HETATM   17  C4  UNL     1       7.942 107.157  75.960  1.00  0.00     0.021 C 
BRANCH  17  18
HETATM   18  C3  UNL     1       7.165 108.277  75.336  1.00  0.00     0.029 C 
BRANCH  18  19
HETATM   19  C2  UNL     1       6.301 108.940  76.395  1.00  0.00     0.231 C 
BRANCH  19  20
HETATM   20  N1  UNL     1       7.105 109.385  77.481  1.00  0.00    -0.079 N 
HETATM   21  C1  UNL     1       7.118 110.811  77.551  1.00  0.00     0.266 C 
ATOM     22  H12 UNL     1       8.049 109.001  77.434  1.00  0.00     0.276 HD
ATOM     23  H11 UNL     1       6.812 108.966  78.364  1.00  0.00     0.276 HD
ENDBRANCH  19  20
ENDBRANCH  18  19
ENDBRANCH  17  18
ENDBRANCH  16  17
ENDBRANCH  14  16
ENDBRANCH   9  14
BRANCH  10  24
HETATM   24  N3  UNL     1       8.117 102.871  78.647  1.00  0.00    -0.112 NA
BRANCH  24  25
HETATM   25  N4  UNL     1       8.031 101.714  79.395  1.00  0.00    -0.346 N 
ATOM     26  H42 UNL     1       8.783 101.358  79.984  1.00  0.00     0.172 HD
ATOM     27  H41 UNL     1       7.117 101.278  79.270  1.00  0.00     0.172 HD
ENDBRANCH  24  25
ENDBRANCH  10  24
ENDBRANCH   7   8
ENDBRANCH   1   7
BRANCH   6  28
HETATM   28  O5  UNL     1       7.720 107.446  82.545  1.00  0.00    -0.388 OA
ATOM     29  H5  UNL     1       7.197 107.765  83.272  1.00  0.00     0.210 HD
ENDBRANCH   6  28
BRANCH   3  30
HETATM   30  C11 UNL     1      10.967 110.241  79.415  1.00  0.00     0.151 C 
BRANCH  30  31
HETATM   31  N6  UNL     1      10.682 111.588  78.968  1.00  0.00    -0.393 N 
ATOM     32  H6  UNL     1      10.172 111.770  78.105  1.00  0.00     0.155 HD
BRANCH  31  33
HETATM   33  C12 UNL     1      11.150 112.635  79.794  1.00  0.00     0.239 C 
BRANCH  33  34
HETATM   34  O3  UNL     1      12.181 113.290  79.087  1.00  0.00    -0.376 OA
ATOM     35  H3  UNL     1      11.960 114.213  79.063  1.00  0.00     0.212 HD
ENDBRANCH  33  34
BRANCH  33  36
HETATM   36  C13 UNL     1      10.143 113.708  80.132  1.00  0.00     0.282 C 
BRANCH  36  37
HETATM   37  N7  UNL     1       9.069 113.051  80.876  1.00  0.00    -0.075 N 
ATOM     38  H73 UNL     1       9.407 112.393  81.578  1.00  0.00     0.274 HD
ATOM     39  H72 UNL     1       8.578 113.678  81.515  1.00  0.00     0.274 HD
ATOM     40  H71 UNL     1       8.456 112.622  80.183  1.00  0.00     0.274 HD
ENDBRANCH  36  37
ENDBRANCH  33  36
ENDBRANCH  31  33
ENDBRANCH  30  31
ENDBRANCH   3  30
BRANCH   5  41
HETATM   41  N8  UNL     1       8.428 109.588  83.504  1.00  0.00    -0.070 N 
ATOM     42  H83 UNL     1       9.368 109.660  83.895  1.00  0.00     0.274 HD
ATOM     43  H82 UNL     1       8.042 110.446  83.898  1.00  0.00     0.274 HD
ATOM     44  H81 UNL     1       7.935 108.757  83.829  1.00  0.00     0.274 HD
ENDBRANCH   5  41
BRANCH   4  45
HETATM   45  O4  UNL     1      10.600 110.534  82.162  1.00  0.00    -0.391 OA
ATOM     46  H4  UNL     1      10.962 111.153  81.540  1.00  0.00     0.210 HD
ENDBRANCH   4  45
TORSDOF 19
ENDMDL
MODEL 2
REMARK VINA RESULT: -6.749869566      4.342      9.046
REMARK  19 active torsions:
REMARK  status: ('A' for Active; 'I' for Inactive)
REMARK    1  A    between atoms: N1_2  and  C2_5 
REMARK    2  A    between atoms: C2_5  and  C3_6 
REMARK    3  A    between atoms: C3_6  and  C4_7 
REMARK    4  A    between atoms: C4_7  and  C5_8 
REMARK    5  A    between atoms: C5_8  and  N2_9 
REMARK    6  A    between atoms: N2_9  and  C6_11 
REMARK    7  A    between atoms: C7_12  and  N3_13 
REMARK    8  A    between atoms: N3_13  and  N4_14 
REMARK    9  A    between atoms: C8_20  and  O1_21 
REMARK   10  A    between atoms: O1_21  and  C9_22 
REMARK   11  A    between atoms: C10_24  and  C11_25 
REMARK   12  A    between atoms: C11_25  and  N6_26 
REMARK   13  A    between atoms: N6_26  and  C12_28 
REMARK   14  A    between atoms: C12_28  and  O3_29 
REMARK   15  A    between atoms: C12_28  and  C13_31 
REMARK   16  A    between atoms: C13_31  and  N7_32 
REMARK   17  A    between atoms: C14_36  and  O4_37 
REMARK   18  A    between atoms: C15_39  and  N8_40 
REMARK   19  A    between atoms: C16_44  and  O5_45 
ROOT
HETATM    1  C9  UNL     1       7.637 102.434  80.117  1.00  0.00     0.294 C 
HETATM    2  O2  UNL     1       8.385 101.323  80.282  1.00  0.00    -0.349 OA
HETATM    3  C10 UNL     1       7.907 100.388  81.187  1.00  0.00     0.173 C 
HETATM    4  C14 UNL     1       6.410 100.440  81.284  1.00  0.00     0.181 C 
HETATM    5  C15 UNL     1       6.170 101.745  82.069  1.00  0.00     0.247 C 
HETATM    6  C16 UNL     1       6.659 102.839  81.152  1.00  0.00     0.206 C 
ENDROOT
BRANCH   1   7
HETATM    7  O1  UNL     1       8.535 103.474  79.792  1.00  0.00    -0.324 OA
BRANCH   7   8
HETATM    8  C8  UNL     1       8.178 104.215  78.731  1.00  0.00     0.351 C 
HETATM    9  C6  UNL     1       7.833 105.664  78.958  1.00  0.00     0.182 C 
HETATM   10  C7  UNL     1       8.291 105.754  77.480  1.00  0.00     0.326 C 
HETATM   11  N5  UNL     1       9.273 104.718  77.874  1.00  0.00    -0.025 N 
ATOM     12  H52 UNL     1       9.752 104.129  77.193  1.00  0.00     0.282 HD
ATOM     13  H51 UNL     1      10.197 104.948  78.242  1.00  0.00     0.282 HD
BRANCH   9  14
HETATM   14  N2  UNL     1       8.683 106.481  79.730  1.00  0.00    -0.410 N 
ATOM     15  H2  UNL     1       9.556 106.832  79.336  1.00  0.00     0.153 HD
BRANCH  14  16
HETATM   16  C5  UNL     1       8.315 106.810  81.054  1.00  0.00     0.114 C 
BRANCH  16  17
HETATM   17  C4  UNL     1       8.303 108.308  81.301  1.00  0.00     0.021 C 
BRANCH  17  18
HETATM   18  C3  UNL     1       9.463 108.777  82.126  1.00  0.00     0.029 C 
BRANCH  18  19
HETATM   19  C2  UNL     1      10.176 109.903  81.397  1.00  0.00     0.231 C 
BRANCH  19  20
HETATM   20  N1  UNL     1      11.303 109.399  80.692  1.00  0.00    -0.079 N 
HETATM   21  C1  UNL     1      11.475 110.087  79.452  1.00  0.00     0.266 C 
ATOM     22  H12 UNL     1      11.245 108.389  80.558  1.00  0.00     0.276 HD
ATOM     23  H11 UNL     1      12.149 109.429  81.261  1.00  0.00     0.276 HD
ENDBRANCH  19  20
ENDBRANCH  18  19
ENDBRANCH  17  18
ENDBRANCH  16  17
ENDBRANCH  14  16
ENDBRANCH   9  14
BRANCH  10  24
HETATM   24  N3  UNL     1       8.841 107.005  77.092  1.00  0.00    -0.112 NA
BRANCH  24  25
HETATM   25  N4  UNL     1       8.253 107.448  75.925  1.00  0.00    -0.346 N 
ATOM     26  H42 UNL     1       8.643 107.294  74.995  1.00  0.00     0.172 HD
ATOM     27  H41 UNL     1       7.384 107.943  76.130  1.00  0.00     0.172 HD
ENDBRANCH  24  25
ENDBRANCH  10  24
ENDBRANCH   7   8
ENDBRANCH   1   7
BRANCH   6  28
HETATM   28  O5  UNL     1       5.475 103.375  80.572  1.00  0.00    -0.388 OA
ATOM     29  H5  UNL     1       4.797 103.511  81.224  1.00  0.00     0.210 HD
ENDBRANCH   6  28
BRANCH   3  30
HETATM   30  C11 UNL     1       8.447  98.999  80.989  1.00  0.00     0.151 C 
BRANCH  30  31
HETATM   31  N6  UNL     1       7.891  98.482  79.756  1.00  0.00    -0.393 N 
ATOM     32  H6  UNL     1       7.629  99.096  78.986  1.00  0.00     0.155 HD
BRANCH  31  33
HETATM   33  C12 UNL     1       7.732  97.080  79.679  1.00  0.00     0.239 C 
BRANCH  33  34
HETATM   34  O3  UNL     1       9.002  96.534  79.397  1.00  0.00    -0.376 OA
ATOM     35  H3  UNL     1       9.370  96.243  80.223  1.00  0.00     0.212 HD
ENDBRANCH  33  34
BRANCH  33  36
HETATM   36  C13 UNL     1       7.265  96.397  80.942  1.00  0.00     0.282 C 
BRANCH  36  37
HETATM   37  N7  UNL     1       5.811  96.544  80.982  1.00  0.00    -0.075 N 
ATOM     38  H73 UNL     1       5.497  97.281  81.614  1.00  0.00     0.274 HD
ATOM     39  H72 UNL     1       5.421  96.938  80.125  1.00  0.00     0.274 HD
ATOM     40  H71 UNL     1       5.433  95.626  81.213  1.00  0.00     0.274 HD
ENDBRANCH  36  37
ENDBRANCH  33  36
ENDBRANCH  31  33
ENDBRANCH  30  31
ENDBRANCH   3  30
BRANCH   5  41
HETATM   41  N8  UNL     1       4.775 101.863  82.370  1.00  0.00    -0.070 N 
ATOM     42  H83 UNL     1       4.278 100.979  82.258  1.00  0.00     0.274 HD
ATOM     43  H82 UNL     1       4.605 101.997  83.366  1.00  0.00     0.274 HD
ATOM     44  H81 UNL     1       4.372 102.609  81.805  1.00  0.00     0.274 HD
ENDBRANCH   5  41
BRANCH   4  45
HETATM   45  O4  UNL     1       5.881  99.403  81.999  1.00  0.00    -0.391 OA
ATOM     46  H4  UNL     1       4.969  99.534  82.228  1.00  0.00     0.210 HD
ENDBRANCH   4  45
TORSDOF 19
ENDMDL
MODEL 3
REMARK VINA RESULT: -6.712082448      2.175      6.254
REMARK  19 active torsions:
REMARK  status: ('A' for Active; 'I' for Inactive)
REMARK    1  A    between atoms: N1_2  and  C2_5 
REMARK    2  A    between atoms: C2_5  and  C3_6 
REMARK    3  A    between atoms: C3_6  and  C4_7 
REMARK    4  A    between atoms: C4_7  and  C5_8 
REMARK    5  A    between atoms: C5_8  and  N2_9 
REMARK    6  A    between atoms: N2_9  and  C6_11 
REMARK    7  A    between atoms: C7_12  and  N3_13 
REMARK    8  A    between atoms: N3_13  and  N4_14 
REMARK    9  A    between atoms: C8_20  and  O1_21 
REMARK   10  A    between atoms: O1_21  and  C9_22 
REMARK   11  A    between atoms: C10_24  and  C11_25 
REMARK   12  A    between atoms: C11_25  and  N6_26 
REMARK   13  A    between atoms: N6_26  and  C12_28 
REMARK   14  A    between atoms: C12_28  and  O3_29 
REMARK   15  A    between atoms: C12_28  and  C13_31 
REMARK   16  A    between atoms: C13_31  and  N7_32 
REMARK   17  A    between atoms: C14_36  and  O4_37 
REMARK   18  A    between atoms: C15_39  and  N8_40 
REMARK   19  A    between atoms: C16_44  and  O5_45 
ROOT
HETATM    1  C9  UNL     1       7.907 107.318  80.540  1.00  0.00     0.294 C 
HETATM    2  O2  UNL     1       8.527 106.942  79.402  1.00  0.00    -0.349 OA
HETATM    3  C10 UNL     1       8.393 105.611  79.040  1.00  0.00     0.173 C 
HETATM    4  C14 UNL     1       7.104 105.035  79.548  1.00  0.00     0.181 C 
HETATM    5  C15 UNL     1       7.373 104.893  81.059  1.00  0.00     0.247 C 
HETATM    6  C16 UNL     1       7.529 106.309  81.555  1.00  0.00     0.206 C 
ENDROOT
BRANCH   1   7
HETATM    7  O1  UNL     1       8.680 108.365  81.087  1.00  0.00    -0.324 OA
BRANCH   7   8
HETATM    8  C8  UNL     1       9.569 108.910  80.241  1.00  0.00     0.351 C 
HETATM    9  C6  UNL     1       9.465 110.383  79.948  1.00  0.00     0.182 C 
HETATM   10  C7  UNL     1      10.978 110.191  79.677  1.00  0.00     0.326 C 
HETATM   11  N5  UNL     1      10.906 109.221  80.793  1.00  0.00    -0.025 N 
ATOM     12  H52 UNL     1      11.618 108.506  80.944  1.00  0.00     0.282 HD
ATOM     13  H51 UNL     1      11.048 109.492  81.766  1.00  0.00     0.282 HD
BRANCH   9  14
HETATM   14  N2  UNL     1       9.322 111.306  81.003  1.00  0.00    -0.410 N 
ATOM     15  H2  UNL     1       9.862 111.193  81.862  1.00  0.00     0.153 HD
BRANCH  14  16
HETATM   16  C5  UNL     1       8.426 112.390  80.862  1.00  0.00     0.114 C 
BRANCH  16  17
HETATM   17  C4  UNL     1       8.975 113.489  79.970  1.00  0.00     0.021 C 
BRANCH  17  18
HETATM   18  C3  UNL     1       8.074 113.814  78.818  1.00  0.00     0.029 C 
BRANCH  18  19
HETATM   19  C2  UNL     1       8.541 113.060  77.585  1.00  0.00     0.231 C 
BRANCH  19  20
HETATM   20  N1  UNL     1       7.517 112.187  77.123  1.00  0.00    -0.079 N 
HETATM   21  C1  UNL     1       6.238 112.610  77.597  1.00  0.00     0.266 C 
ATOM     22  H12 UNL     1       7.709 111.216  77.369  1.00  0.00     0.276 HD
ATOM     23  H11 UNL     1       7.531 112.093  76.107  1.00  0.00     0.276 HD
ENDBRANCH  19  20
ENDBRANCH  18  19
ENDBRANCH  17  18
ENDBRANCH  16  17
ENDBRANCH  14  16
ENDBRANCH   9  14
BRANCH  10  24
HETATM   24  N3  UNL     1      11.785 111.338  79.911  1.00  0.00    -0.112 NA
BRANCH  24  25
HETATM   25  N4  UNL     1      12.121 111.941  78.716  1.00  0.00    -0.346 N 
ATOM     26  H42 UNL     1      11.454 112.419  78.110  1.00  0.00     0.172 HD
ATOM     27  H41 UNL     1      13.120 111.838  78.535  1.00  0.00     0.172 HD
ENDBRANCH  24  25
ENDBRANCH  10  24
ENDBRANCH   7   8
ENDBRANCH   1   7
BRANCH   6  28
HETATM   28  O5  UNL     1       6.276 106.617  82.156  1.00  0.00    -0.388 OA
ATOM     29  H5  UNL     1       6.212 106.256  83.034  1.00  0.00     0.210 HD
ENDBRANCH   6  28
BRANCH   3  30
HETATM   30  C11 UNL     1       8.639 105.337  77.582  1.00  0.00     0.151 C 
BRANCH  30  31
HETATM   31  N6  UNL     1       7.403 105.587  76.871  1.00  0.00    -0.393 N 
ATOM     32  H6  UNL     1       6.579 105.001  77.004  1.00  0.00     0.155 HD
BRANCH  31  33
HETATM   33  C12 UNL     1       7.400 106.688  75.985  1.00  0.00     0.239 C 
BRANCH  33  34
HETATM   34  O3  UNL     1       6.912 106.220  74.746  1.00  0.00    -0.376 OA
ATOM     35  H3  UNL     1       7.320 106.748  74.070  1.00  0.00     0.212 HD
ENDBRANCH  33  34
BRANCH  33  36
HETATM   36  C13 UNL     1       6.502 107.841  76.368  1.00  0.00     0.282 C 
BRANCH  36  37
HETATM   37  N7  UNL     1       7.269 108.677  77.290  1.00  0.00    -0.075 N 
ATOM     38  H73 UNL     1       7.497 108.208  78.167  1.00  0.00     0.274 HD
ATOM     39  H72 UNL     1       8.228 108.843  76.982  1.00  0.00     0.274 HD
ATOM     40  H71 UNL     1       6.734 109.535  77.418  1.00  0.00     0.274 HD
ENDBRANCH  36  37
ENDBRANCH  33  36
ENDBRANCH  31  33
ENDBRANCH  30  31
ENDBRANCH   3  30
BRANCH   5  41
HETATM   41  N8  UNL     1       6.272 104.214  81.671  1.00  0.00    -0.070 N 
ATOM     42  H83 UNL     1       5.421 104.777  81.671  1.00  0.00     0.274 HD
ATOM     43  H82 UNL     1       5.931 103.439  81.104  1.00  0.00     0.274 HD
ATOM     44  H81 UNL     1       6.540 103.918  82.609  1.00  0.00     0.274 HD
ENDBRANCH   5  41
BRANCH   4  45
HETATM   45  O4  UNL     1       6.831 103.796  79.040  1.00  0.00    -0.391 OA
ATOM     46  H4  UNL     1       6.106 103.795  78.426  1.00  0.00     0.210 HD
ENDBRANCH   4  45
TORSDOF 19
ENDMDL
MODEL 4
REMARK VINA RESULT: -6.654375765      2.331      5.177
REMARK  19 active torsions:
REMARK  status: ('A' for Active; 'I' for Inactive)
REMARK    1  A    between atoms: N1_2  and  C2_5 
REMARK    2  A    between atoms: C2_5  and  C3_6 
REMARK    3  A    between atoms: C3_6  and  C4_7 
REMARK    4  A    between atoms: C4_7  and  C5_8 
REMARK    5  A    between atoms: C5_8  and  N2_9 
REMARK    6  A    between atoms: N2_9  and  C6_11 
REMARK    7  A    between atoms: C7_12  and  N3_13 
REMARK    8  A    between atoms: N3_13  and  N4_14 
REMARK    9  A    between atoms: C8_20  and  O1_21 
REMARK   10  A    between atoms: O1_21  and  C9_22 
REMARK   11  A    between atoms: C10_24  and  C11_25 
REMARK   12  A    between atoms: C11_25  and  N6_26 
REMARK   13  A    between atoms: N6_26  and  C12_28 
REMARK   14  A    between atoms: C12_28  and  O3_29 
REMARK   15  A    between atoms: C12_28  and  C13_31 
REMARK   16  A    between atoms: C13_31  and  N7_32 
REMARK   17  A    between atoms: C14_36  and  O4_37 
REMARK   18  A    between atoms: C15_39  and  N8_40 
REMARK   19  A    between atoms: C16_44  and  O5_45 
ROOT
HETATM    1  C9  UNL     1      10.095 110.313  79.282  1.00  0.00     0.294 C 
HETATM    2  O2  UNL     1       9.000 110.898  79.810  1.00  0.00    -0.349 OA
HETATM    3  C10 UNL     1       9.172 112.173  80.326  1.00  0.00     0.173 C 
HETATM    4  C14 UNL     1      10.283 112.899  79.625  1.00  0.00     0.181 C 
HETATM    5  C15 UNL     1      11.541 112.198  80.173  1.00  0.00     0.247 C 
HETATM    6  C16 UNL     1      11.448 110.784  79.653  1.00  0.00     0.206 C 
ENDROOT
BRANCH   1   7
HETATM    7  O1  UNL     1       9.939 108.924  79.481  1.00  0.00    -0.324 OA
BRANCH   7   8
HETATM    8  C8  UNL     1       8.908 108.581  80.271  1.00  0.00     0.351 C 
HETATM    9  C6  UNL     1       8.174 107.301  79.969  1.00  0.00     0.182 C 
HETATM   10  C7  UNL     1       7.878 107.395  81.487  1.00  0.00     0.326 C 
HETATM   11  N5  UNL     1       9.245 107.959  81.570  1.00  0.00    -0.025 N 
ATOM     12  H52 UNL     1       9.566 108.502  82.371  1.00  0.00     0.282 HD
ATOM     13  H51 UNL     1      10.072 107.376  81.701  1.00  0.00     0.282 HD
BRANCH   9  14
HETATM   14  N2  UNL     1       8.893 106.111  79.736  1.00  0.00    -0.410 N 
ATOM     15  H2  UNL     1       9.619 105.813  80.387  1.00  0.00     0.153 HD
BRANCH  14  16
HETATM   16  C5  UNL     1       8.598 105.334  78.593  1.00  0.00     0.114 C 
BRANCH  16  17
HETATM   17  C4  UNL     1       8.393 103.867  78.921  1.00  0.00     0.021 C 
BRANCH  17  18
HETATM   18  C3  UNL     1       7.130 103.607  79.685  1.00  0.00     0.029 C 
BRANCH  18  19
HETATM   19  C2  UNL     1       7.403 102.586  80.776  1.00  0.00     0.231 C 
BRANCH  19  20
HETATM   20  N1  UNL     1       7.967 101.405  80.218  1.00  0.00    -0.079 N 
HETATM   21  C1  UNL     1       8.527 100.579  81.239  1.00  0.00     0.266 C 
ATOM     22  H12 UNL     1       8.649 101.621  79.490  1.00  0.00     0.276 HD
ATOM     23  H11 UNL     1       7.291 100.896  79.648  1.00  0.00     0.276 HD
ENDBRANCH  19  20
ENDBRANCH  18  19
ENDBRANCH  17  18
ENDBRANCH  16  17
ENDBRANCH  14  16
ENDBRANCH   9  14
BRANCH  10  24
HETATM   24  N3  UNL     1       7.687 106.150  82.144  1.00  0.00    -0.112 NA
BRANCH  24  25
HETATM   25  N4  UNL     1       6.346 105.939  82.394  1.00  0.00    -0.346 N 
ATOM     26  H42 UNL     1       5.701 106.668  82.700  1.00  0.00     0.172 HD
ATOM     27  H41 UNL     1       6.103 104.962  82.230  1.00  0.00     0.172 HD
ENDBRANCH  24  25
ENDBRANCH  10  24
ENDBRANCH   7   8
ENDBRANCH   1   7
BRANCH   6  28
HETATM   28  O5  UNL     1      12.336 110.754  78.541  1.00  0.00    -0.388 OA
ATOM     29  H5  UNL     1      13.229 110.948  78.801  1.00  0.00     0.210 HD
ENDBRANCH   6  28
BRANCH   3  30
HETATM   30  C11 UNL     1       7.906 112.976  80.435  1.00  0.00     0.151 C 
BRANCH  30  31
HETATM   31  N6  UNL     1       7.574 113.458  79.110  1.00  0.00    -0.393 N 
ATOM     32  H6  UNL     1       8.266 113.914  78.516  1.00  0.00     0.155 HD
BRANCH  31  33
HETATM   33  C12 UNL     1       6.241 113.261  78.686  1.00  0.00     0.239 C 
BRANCH  33  34
HETATM   34  O3  UNL     1       5.677 114.539  78.486  1.00  0.00    -0.376 OA
ATOM     35  H3  UNL     1       4.773 114.407  78.225  1.00  0.00     0.212 HD
ENDBRANCH  33  34
BRANCH  33  36
HETATM   36  C13 UNL     1       6.066 112.529  77.377  1.00  0.00     0.282 C 
BRANCH  36  37
HETATM   37  N7  UNL     1       6.985 111.391  77.410  1.00  0.00    -0.075 N 
ATOM     38  H73 UNL     1       7.662 111.442  78.171  1.00  0.00     0.274 HD
ATOM     39  H72 UNL     1       6.538 110.520  77.696  1.00  0.00     0.274 HD
ATOM     40  H71 UNL     1       7.417 111.340  76.488  1.00  0.00     0.274 HD
ENDBRANCH  36  37
ENDBRANCH  33  36
ENDBRANCH  31  33
ENDBRANCH  30  31
ENDBRANCH   3  30
BRANCH   5  41
HETATM   41  N8  UNL     1      12.705 112.883  79.699  1.00  0.00    -0.070 N 
ATOM     42  H83 UNL     1      12.869 112.727  78.704  1.00  0.00     0.274 HD
ATOM     43  H82 UNL     1      12.574 113.893  79.667  1.00  0.00     0.274 HD
ATOM     44  H81 UNL     1      13.507 112.614  80.269  1.00  0.00     0.274 HD
ENDBRANCH   5  41
BRANCH   4  45
HETATM   45  O4  UNL     1      10.350 114.224  79.952  1.00  0.00    -0.391 OA
ATOM     46  H4  UNL     1      10.300 114.381  80.887  1.00  0.00     0.210 HD
ENDBRANCH   4  45
TORSDOF 19
ENDMDL
MODEL 5
REMARK VINA RESULT: -6.650330189      1.965      4.367
REMARK  19 active torsions:
REMARK  status: ('A' for Active; 'I' for Inactive)
REMARK    1  A    between atoms: N1_2  and  C2_5 
REMARK    2  A    between atoms: C2_5  and  C3_6 
REMARK    3  A    between atoms: C3_6  and  C4_7 
REMARK    4  A    between atoms: C4_7  and  C5_8 
REMARK    5  A    between atoms: C5_8  and  N2_9 
REMARK    6  A    between atoms: N2_9  and  C6_11 
REMARK    7  A    between atoms: C7_12  and  N3_13 
REMARK    8  A    between atoms: N3_13  and  N4_14 
REMARK    9  A    between atoms: C8_20  and  O1_21 
REMARK   10  A    between atoms: O1_21  and  C9_22 
REMARK   11  A    between atoms: C10_24  and  C11_25 
REMARK   12  A    between atoms: C11_25  and  N6_26 
REMARK   13  A    between atoms: N6_26  and  C12_28 
REMARK   14  A    between atoms: C12_28  and  O3_29 
REMARK   15  A    between atoms: C12_28  and  C13_31 
REMARK   16  A    between atoms: C13_31  and  N7_32 
REMARK   17  A    between atoms: C14_36  and  O4_37 
REMARK   18  A    between atoms: C15_39  and  N8_40 
REMARK   19  A    between atoms: C16_44  and  O5_45 
ROOT
HETATM    1  C9  UNL     1       8.593 107.627  80.206  1.00  0.00     0.294 C 
HETATM    2  O2  UNL     1       9.492 108.392  79.554  1.00  0.00    -0.349 OA
HETATM    3  C10 UNL     1       9.888 109.557  80.193  1.00  0.00     0.173 C 
HETATM    4  C14 UNL     1       9.799 109.416  81.685  1.00  0.00     0.181 C 
HETATM    5  C15 UNL     1       8.279 109.457  81.935  1.00  0.00     0.247 C 
HETATM    6  C16 UNL     1       7.748 108.210  81.273  1.00  0.00     0.206 C 
ENDROOT
BRANCH   1   7
HETATM    7  O1  UNL     1       7.829 106.977  79.213  1.00  0.00    -0.324 OA
BRANCH   7   8
HETATM    8  C8  UNL     1       8.294 105.772  78.844  1.00  0.00     0.351 C 
HETATM    9  C6  UNL     1       8.121 104.618  79.796  1.00  0.00     0.182 C 
HETATM   10  C7  UNL     1       8.174 103.826  78.466  1.00  0.00     0.326 C 
HETATM   11  N5  UNL     1       7.451 104.993  77.911  1.00  0.00    -0.025 N 
ATOM     12  H52 UNL     1       7.413 105.190  76.910  1.00  0.00     0.282 HD
ATOM     13  H51 UNL     1       6.433 105.057  77.907  1.00  0.00     0.282 HD
BRANCH   9  14
HETATM   14  N2  UNL     1       6.869 104.379  80.398  1.00  0.00    -0.410 N 
ATOM     15  H2  UNL     1       6.011 104.686  79.940  1.00  0.00     0.153 HD
BRANCH  14  16
HETATM   16  C5  UNL     1       6.813 103.710  81.642  1.00  0.00     0.114 C 
BRANCH  16  17
HETATM   17  C4  UNL     1       5.778 102.600  81.661  1.00  0.00     0.021 C 
BRANCH  17  18
HETATM   18  C3  UNL     1       6.386 101.230  81.657  1.00  0.00     0.029 C 
BRANCH  18  19
HETATM   19  C2  UNL     1       7.866 101.335  81.982  1.00  0.00     0.231 C 
BRANCH  19  20
HETATM   20  N1  UNL     1       8.588 100.295  81.334  1.00  0.00    -0.079 N 
HETATM   21  C1  UNL     1       7.754  99.156  81.120  1.00  0.00     0.266 C 
ATOM     22  H12 UNL     1       9.437 100.051  81.844  1.00  0.00     0.276 HD
ATOM     23  H11 UNL     1       9.018 100.617  80.466  1.00  0.00     0.276 HD
ENDBRANCH  19  20
ENDBRANCH  18  19
ENDBRANCH  17  18
ENDBRANCH  16  17
ENDBRANCH  14  16
ENDBRANCH   9  14
BRANCH  10  24
HETATM   24  N3  UNL     1       7.456 102.600  78.462  1.00  0.00    -0.112 NA
BRANCH  24  25
HETATM   25  N4  UNL     1       8.317 101.539  78.270  1.00  0.00    -0.346 N 
ATOM     26  H42 UNL     1       9.258 101.630  77.887  1.00  0.00     0.172 HD
ATOM     27  H41 UNL     1       7.877 100.666  78.563  1.00  0.00     0.172 HD
ENDBRANCH  24  25
ENDBRANCH  10  24
ENDBRANCH   7   8
ENDBRANCH   1   7
BRANCH   6  28
HETATM   28  O5  UNL     1       7.552 107.293  82.344  1.00  0.00    -0.388 OA
ATOM     29  H5  UNL     1       8.197 106.595  82.328  1.00  0.00     0.210 HD
ENDBRANCH   6  28
BRANCH   3  30
HETATM   30  C11 UNL     1      11.205 110.108  79.720  1.00  0.00     0.151 C 
BRANCH  30  31
HETATM   31  N6  UNL     1      10.948 111.387  79.093  1.00  0.00    -0.393 N 
ATOM     32  H6  UNL     1      10.662 111.459  78.117  1.00  0.00     0.155 HD
BRANCH  31  33
HETATM   33  C12 UNL     1      11.116 112.530  79.907  1.00  0.00     0.239 C 
BRANCH  33  34
HETATM   34  O3  UNL     1      11.946 113.425  79.197  1.00  0.00    -0.376 OA
ATOM     35  H3  UNL     1      11.414 113.815  78.514  1.00  0.00     0.212 HD
ENDBRANCH  33  34
BRANCH  33  36
HETATM   36  C13 UNL     1       9.860 113.304  80.225  1.00  0.00     0.282 C 
BRANCH  36  37
HETATM   37  N7  UNL     1      10.223 114.720  80.192  1.00  0.00    -0.075 N 
ATOM     38  H73 UNL     1       9.582 115.314  80.718  1.00  0.00     0.274 HD
ATOM     39  H72 UNL     1      11.064 114.934  80.728  1.00  0.00     0.274 HD
ATOM     40  H71 UNL     1      10.295 114.978  79.208  1.00  0.00     0.274 HD
ENDBRANCH  36  37
ENDBRANCH  33  36
ENDBRANCH  31  33
ENDBRANCH  30  31
ENDBRANCH   3  30
BRANCH   5  41
HETATM   41  N8  UNL     1       8.035 109.478  83.345  1.00  0.00    -0.070 N 
ATOM     42  H83 UNL     1       7.360 108.769  83.632  1.00  0.00     0.274 HD
ATOM     43  H82 UNL     1       8.833 109.141  83.882  1.00  0.00     0.274 HD
ATOM     44  H81 UNL     1       7.751 110.417  83.622  1.00  0.00     0.274 HD
ENDBRANCH   5  41
BRANCH   4  45
HETATM   45  O4  UNL     1      10.376 110.456  82.358  1.00  0.00    -0.391 OA
ATOM     46  H4  UNL     1      10.396 110.326  83.299  1.00  0.00     0.210 HD
ENDBRANCH   4  45
TORSDOF 19
ENDMDL
