MODEL 1
REMARK VINA RESULT: -6.465098698      0.000      0.000
REMARK  5 active torsions:
REMARK  status: ('A' for Active; 'I' for Inactive)
REMARK    1  A    between atoms: C2_2  and  C3_3 
REMARK    2  A    between atoms: C3_3  and  C4_4 
REMARK    3  A    between atoms: C7_7  and  C8_8 
REMARK    4  A    between atoms: C8_8  and  C9_9 
REMARK    5  A    between atoms: C9_9  and  N1_10 
ROOT
HETATM    1  C4  UNL     1      -1.906   1.602   3.790  1.00  0.00    -0.007 C 
HETATM    2  C5  UNL     1      -1.976   0.732   2.534  1.00  0.00     0.005 C 
HETATM    3  C6  UNL     1      -0.537   1.161   2.284  1.00  0.00     0.005 C 
HETATM    4  C7  UNL     1      -0.428   1.384   3.786  1.00  0.00    -0.009 C 
ENDROOT
BRANCH   4   5
HETATM    5  C8  UNL     1       0.066   0.168   4.496  1.00  0.00     0.032 C 
BRANCH   5   6
HETATM    6  C9  UNL     1       1.475   0.454   5.002  1.00  0.00     0.230 C 
BRANCH   6   7
HETATM    7  N1  UNL     1       1.931  -0.610   5.887  1.00  0.00    -0.079 N 
ATOM      8  H13 UNL     1       1.151  -1.071   6.356  1.00  0.00     0.274 HD
ATOM      9  H12 UNL     1       2.290  -1.408   5.364  1.00  0.00     0.274 HD
ATOM     10  H11 UNL     1       2.616  -0.255   6.554  1.00  0.00     0.274 HD
ENDBRANCH   6   7
ENDBRANCH   5   6
ENDBRANCH   4   5
BRANCH   1  11
HETATM   11  C3  UNL     1      -2.688   0.940   4.881  1.00  0.00     0.031 C 
BRANCH  11  12
HETATM   12  C2  UNL     1      -4.027   0.578   4.314  1.00  0.00    -0.037 C 
HETATM   13  C1  UNL     1      -5.062   1.389   4.421  1.00  0.00     0.007 C 
ENDBRANCH  11  12
ENDBRANCH   1  11
TORSDOF 5
ENDMDL
MODEL 2
REMARK VINA RESULT: -6.389715072      1.553      2.337
REMARK  5 active torsions:
REMARK  status: ('A' for Active; 'I' for Inactive)
REMARK    1  A    between atoms: C2_2  and  C3_3 
REMARK    2  A    between atoms: C3_3  and  C4_4 
REMARK    3  A    between atoms: C7_7  and  C8_8 
REMARK    4  A    between atoms: C8_8  and  C9_9 
REMARK    5  A    between atoms: C9_9  and  N1_10 
ROOT
HETATM    1  C4  UNL     1       0.336   1.144   4.811  1.00  0.00    -0.007 C 
HETATM    2  C5  UNL     1       0.232   0.412   3.471  1.00  0.00     0.005 C 
HETATM    3  C6  UNL     1       1.635  -0.104   3.764  1.00  0.00     0.005 C 
HETATM    4  C7  UNL     1       1.314   0.097   5.239  1.00  0.00    -0.009 C 
ENDROOT
BRANCH   4   5
HETATM    5  C8  UNL     1       0.741  -1.134   5.858  1.00  0.00     0.032 C 
BRANCH   5   6
HETATM    6  C9  UNL     1       1.638  -1.540   7.020  1.00  0.00     0.230 C 
BRANCH   6   7
HETATM    7  N1  UNL     1       2.807  -2.265   6.540  1.00  0.00    -0.079 N 
ATOM      8  H13 UNL     1       3.408  -1.674   5.966  1.00  0.00     0.274 HD
ATOM      9  H12 UNL     1       3.464  -2.465   7.294  1.00  0.00     0.274 HD
ATOM     10  H11 UNL     1       2.528  -3.114   6.047  1.00  0.00     0.274 HD
ENDBRANCH   6   7
ENDBRANCH   5   6
ENDBRANCH   4   5
BRANCH   1  11
HETATM   11  C3  UNL     1      -1.006   1.132   5.473  1.00  0.00     0.031 C 
BRANCH  11  12
HETATM   12  C2  UNL     1      -2.035   1.297   4.398  1.00  0.00    -0.037 C 
HETATM   13  C1  UNL     1      -3.282   0.904   4.573  1.00  0.00     0.007 C 
ENDBRANCH  11  12
ENDBRANCH   1  11
TORSDOF 5
ENDMDL
MODEL 3
REMARK VINA RESULT: -6.264024515      1.516      1.910
REMARK  5 active torsions:
REMARK  status: ('A' for Active; 'I' for Inactive)
REMARK    1  A    between atoms: C2_2  and  C3_3 
REMARK    2  A    between atoms: C3_3  and  C4_4 
REMARK    3  A    between atoms: C7_7  and  C8_8 
REMARK    4  A    between atoms: C8_8  and  C9_9 
REMARK    5  A    between atoms: C9_9  and  N1_10 
ROOT
HETATM    1  C4  UNL     1      -2.149   1.442   4.002  1.00  0.00    -0.007 C 
HETATM    2  C5  UNL     1      -0.903   1.729   3.163  1.00  0.00     0.005 C 
HETATM    3  C6  UNL     1      -0.149   1.764   4.485  1.00  0.00     0.005 C 
HETATM    4  C7  UNL     1      -1.244   0.862   5.040  1.00  0.00    -0.009 C 
ENDROOT
BRANCH   4   5
HETATM    5  C8  UNL     1      -0.905  -0.584   4.893  1.00  0.00     0.032 C 
BRANCH   5   6
HETATM    6  C9  UNL     1      -1.325  -1.301   6.170  1.00  0.00     0.230 C 
BRANCH   6   7
HETATM    7  N1  UNL     1      -0.386  -2.366   6.496  1.00  0.00    -0.079 N 
ATOM      8  H13 UNL     1       0.578  -2.034   6.491  1.00  0.00     0.274 HD
ATOM      9  H12 UNL     1      -0.450  -2.638   7.477  1.00  0.00     0.274 HD
ATOM     10  H11 UNL     1      -0.514  -3.163   5.873  1.00  0.00     0.274 HD
ENDBRANCH   6   7
ENDBRANCH   5   6
ENDBRANCH   4   5
BRANCH   1  11
HETATM   11  C3  UNL     1      -3.026   0.487   3.255  1.00  0.00     0.031 C 
BRANCH  11  12
HETATM   12  C2  UNL     1      -4.310   0.370   4.017  1.00  0.00    -0.037 C 
HETATM   13  C1  UNL     1      -4.961   1.437   4.438  1.00  0.00     0.007 C 
ENDBRANCH  11  12
ENDBRANCH   1  11
TORSDOF 5
ENDMDL
MODEL 4
REMARK VINA RESULT: -6.244822860      1.649      2.555
REMARK  5 active torsions:
REMARK  status: ('A' for Active; 'I' for Inactive)
REMARK    1  A    between atoms: C2_2  and  C3_3 
REMARK    2  A    between atoms: C3_3  and  C4_4 
REMARK    3  A    between atoms: C7_7  and  C8_8 
REMARK    4  A    between atoms: C8_8  and  C9_9 
REMARK    5  A    between atoms: C9_9  and  N1_10 
ROOT
HETATM    1  C4  UNL     1      -1.646   0.847   4.882  1.00  0.00    -0.007 C 
HETATM    2  C5  UNL     1      -2.360   1.325   3.616  1.00  0.00     0.005 C 
HETATM    3  C6  UNL     1      -1.103   2.141   3.342  1.00  0.00     0.005 C 
HETATM    4  C7  UNL     1      -0.353   1.116   4.182  1.00  0.00    -0.009 C 
ENDROOT
BRANCH   4   5
HETATM    5  C8  UNL     1       0.196   0.006   3.349  1.00  0.00     0.032 C 
BRANCH   5   6
HETATM    6  C9  UNL     1       1.570  -0.361   3.895  1.00  0.00     0.230 C 
BRANCH   6   7
HETATM    7  N1  UNL     1       1.974   0.569   4.941  1.00  0.00    -0.079 N 
ATOM      8  H13 UNL     1       2.971   0.777   4.896  1.00  0.00     0.274 HD
ATOM      9  H12 UNL     1       1.613   1.508   4.772  1.00  0.00     0.274 HD
ATOM     10  H11 UNL     1       1.702   0.219   5.860  1.00  0.00     0.274 HD
ENDBRANCH   6   7
ENDBRANCH   5   6
ENDBRANCH   4   5
BRANCH   1  11
HETATM   11  C3  UNL     1      -2.002  -0.587   5.125  1.00  0.00     0.031 C 
BRANCH  11  12
HETATM   12  C2  UNL     1      -1.290  -1.017   6.370  1.00  0.00    -0.037 C 
HETATM   13  C1  UNL     1      -0.563  -2.118   6.403  1.00  0.00     0.007 C 
ENDBRANCH  11  12
ENDBRANCH   1  11
TORSDOF 5
ENDMDL
MODEL 5
REMARK VINA RESULT: -6.193595614      1.173      1.586
REMARK  5 active torsions:
REMARK  status: ('A' for Active; 'I' for Inactive)
REMARK    1  A    between atoms: C2_2  and  C3_3 
REMARK    2  A    between atoms: C3_3  and  C4_4 
REMARK    3  A    between atoms: C7_7  and  C8_8 
REMARK    4  A    between atoms: C8_8  and  C9_9 
REMARK    5  A    between atoms: C9_9  and  N1_10 
ROOT
HETATM    1  C4  UNL     1      -1.684   1.202   5.056  1.00  0.00    -0.007 C 
HETATM    2  C5  UNL     1      -0.942   1.667   3.802  1.00  0.00     0.005 C 
HETATM    3  C6  UNL     1       0.302   1.705   4.678  1.00  0.00     0.005 C 
HETATM    4  C7  UNL     1      -0.381   0.663   5.553  1.00  0.00    -0.009 C 
ENDROOT
BRANCH   4   5
HETATM    5  C8  UNL     1      -0.036  -0.728   5.137  1.00  0.00     0.032 C 
BRANCH   5   6
HETATM    6  C9  UNL     1       0.518  -1.462   6.352  1.00  0.00     0.230 C 
BRANCH   6   7
HETATM    7  N1  UNL     1       1.903  -1.082   6.596  1.00  0.00    -0.079 N 
ATOM      8  H13 UNL     1       1.969  -0.276   7.217  1.00  0.00     0.274 HD
ATOM      9  H12 UNL     1       2.385  -1.766   7.180  1.00  0.00     0.274 HD
ATOM     10  H11 UNL     1       2.394  -0.923   5.716  1.00  0.00     0.274 HD
ENDBRANCH   6   7
ENDBRANCH   5   6
ENDBRANCH   4   5
BRANCH   1  11
HETATM   11  C3  UNL     1      -2.726   0.204   4.660  1.00  0.00     0.031 C 
BRANCH  11  12
HETATM   12  C2  UNL     1      -3.746   0.928   3.836  1.00  0.00    -0.037 C 
HETATM   13  C1  UNL     1      -4.918   1.270   4.335  1.00  0.00     0.007 C 
ENDBRANCH  11  12
ENDBRANCH   1  11
TORSDOF 5
ENDMDL
