MODEL 1
REMARK VINA RESULT: -6.531467725      0.000      0.000
REMARK  9 active torsions:
REMARK  status: ('A' for Active; 'I' for Inactive)
REMARK    1  A    between atoms: O1_2  and  C2_3 
REMARK    2  A    between atoms: C2_3  and  C3_4 
REMARK    3  A    between atoms: C3_4  and  C4_5 
REMARK    4  A    between atoms: C4_5  and  N1_6 
REMARK    5  A    between atoms: N1_6  and  C5_9 
REMARK    6  A    between atoms: C5_9  and  C6_10 
REMARK    7  A    between atoms: C7_13  and  N3_14 
REMARK    8  A    between atoms: C8_19  and  N5_20 
REMARK    9  A    between atoms: N7_26  and  N8_28 
ROOT
HETATM    1  C6  UNL     1      16.746  10.455  29.093  1.00  0.00     0.098 C 
HETATM    2  N2  UNL     1      17.567  11.451  29.272  1.00  0.00    -0.190 N 
ATOM      3  H2  UNL     1      18.320  11.272  29.937  1.00  0.00     0.184 HD
HETATM    4  C7  UNL     1      17.583  12.714  28.705  1.00  0.00     0.690 C 
HETATM    5  N4  UNL     1      16.832  13.097  27.641  1.00  0.00    -0.023 N 
ATOM      6  H4  UNL     1      17.007  14.045  27.308  1.00  0.00     0.203 HD
HETATM    7  C8  UNL     1      15.870  12.403  26.942  1.00  0.00     0.692 C 
HETATM    8  N6  UNL     1      15.199  11.336  27.480  1.00  0.00    -0.173 N 
ATOM      9  H6  UNL     1      14.274  11.182  27.078  1.00  0.00     0.186 HD
HETATM   10  C9  UNL     1      15.526  10.472  28.422  1.00  0.00     0.160 C 
HETATM   11  N7  UNL     1      14.719   9.624  28.755  1.00  0.00    -0.290 N 
ATOM     12  H7  UNL     1      15.192   9.106  29.495  1.00  0.00     0.188 HD
ENDROOT
BRANCH   1  13
HETATM   13  C5  UNL     1      17.069   9.102  29.586  1.00  0.00     0.293 C 
BRANCH  13  14
HETATM   14  N1  UNL     1      17.289   9.122  31.038  1.00  0.00    -0.070 N 
ATOM     15  H12 UNL     1      16.504   8.706  31.540  1.00  0.00     0.277 HD
ATOM     16  H11 UNL     1      17.231  10.070  31.412  1.00  0.00     0.277 HD
BRANCH  14  17
HETATM   17  C4  UNL     1      18.538   8.490  31.394  1.00  0.00     0.235 C 
BRANCH  17  18
HETATM   18  C3  UNL     1      19.358   8.337  30.081  1.00  0.00     0.054 C 
BRANCH  18  19
HETATM   19  C2  UNL     1      20.778   8.048  30.493  1.00  0.00     0.168 C 
BRANCH  19  20
HETATM   20  O1  UNL     1      21.618   9.121  30.246  1.00  0.00    -0.396 OA
HETATM   21  C1  UNL     1      20.899  10.106  29.585  1.00  0.00     0.201 C 
ENDBRANCH  19  20
ENDBRANCH  18  19
ENDBRANCH  17  18
ENDBRANCH  14  17
ENDBRANCH  13  14
ENDBRANCH   1  13
BRANCH   4  22
HETATM   22  N3  UNL     1      18.366  13.525  29.204  1.00  0.00    -0.234 N 
ATOM     23  H32 UNL     1      18.441  13.575  30.220  1.00  0.00     0.174 HD
ATOM     24  H31 UNL     1      18.877  14.117  28.550  1.00  0.00     0.174 HD
ENDBRANCH   4  22
BRANCH  11  25
HETATM   25  N8  UNL     1      13.573   9.046  28.649  1.00  0.00    -0.344 N 
ATOM     26  H82 UNL     1      12.981   9.811  28.325  1.00  0.00     0.176 HD
ATOM     27  H81 UNL     1      12.971   8.227  28.724  1.00  0.00     0.176 HD
ENDBRANCH  11  25
BRANCH   7  28
HETATM   28  N5  UNL     1      15.634  12.782  25.817  1.00  0.00    -0.234 N 
ATOM     29  H52 UNL     1      15.971  13.686  25.488  1.00  0.00     0.174 HD
ATOM     30  H51 UNL     1      15.092  12.153  25.226  1.00  0.00     0.174 HD
ENDBRANCH   7  28
TORSDOF 9
ENDMDL
MODEL 2
REMARK VINA RESULT: -6.492438769      1.838      2.631
REMARK  9 active torsions:
REMARK  status: ('A' for Active; 'I' for Inactive)
REMARK    1  A    between atoms: O1_2  and  C2_3 
REMARK    2  A    between atoms: C2_3  and  C3_4 
REMARK    3  A    between atoms: C3_4  and  C4_5 
REMARK    4  A    between atoms: C4_5  and  N1_6 
REMARK    5  A    between atoms: N1_6  and  C5_9 
REMARK    6  A    between atoms: C5_9  and  C6_10 
REMARK    7  A    between atoms: C7_13  and  N3_14 
REMARK    8  A    between atoms: C8_19  and  N5_20 
REMARK    9  A    between atoms: N7_26  and  N8_28 
ROOT
HETATM    1  C6  UNL     1      17.144   9.349  28.777  1.00  0.00     0.098 C 
HETATM    2  N2  UNL     1      16.086  10.019  29.139  1.00  0.00    -0.190 N 
ATOM      3  H2  UNL     1      15.487   9.541  29.812  1.00  0.00     0.184 HD
HETATM    4  C7  UNL     1      15.646  11.275  28.759  1.00  0.00     0.690 C 
HETATM    5  N4  UNL     1      16.382  12.179  28.064  1.00  0.00    -0.023 N 
ATOM      6  H4  UNL     1      15.930  13.081  27.917  1.00  0.00     0.203 HD
HETATM    7  C8  UNL     1      17.645  12.065  27.527  1.00  0.00     0.692 C 
HETATM    8  N6  UNL     1      18.210  10.851  27.235  1.00  0.00    -0.173 N 
ATOM      9  H6  UNL     1      18.910  10.887  26.493  1.00  0.00     0.186 HD
HETATM   10  C9  UNL     1      18.019   9.646  27.735  1.00  0.00     0.160 C 
HETATM   11  N7  UNL     1      18.630   8.705  27.264  1.00  0.00    -0.290 N 
ATOM     12  H7  UNL     1      18.298   7.900  27.795  1.00  0.00     0.188 HD
ENDROOT
BRANCH   1  13
HETATM   13  C5  UNL     1      17.572   8.143  29.511  1.00  0.00     0.293 C 
BRANCH  13  14
HETATM   14  N1  UNL     1      17.474   8.361  30.961  1.00  0.00    -0.070 N 
ATOM     15  H12 UNL     1      16.899   7.645  31.407  1.00  0.00     0.277 HD
ATOM     16  H11 UNL     1      16.905   9.179  31.177  1.00  0.00     0.277 HD
BRANCH  14  17
HETATM   17  C4  UNL     1      18.778   8.447  31.573  1.00  0.00     0.235 C 
BRANCH  17  18
HETATM   18  C3  UNL     1      19.704   7.455  30.812  1.00  0.00     0.054 C 
BRANCH  18  19
HETATM   19  C2  UNL     1      20.980   8.199  30.515  1.00  0.00     0.168 C 
BRANCH  19  20
HETATM   20  O1  UNL     1      20.906   8.900  29.323  1.00  0.00    -0.396 OA
HETATM   21  C1  UNL     1      20.974  10.258  29.602  1.00  0.00     0.201 C 
ENDBRANCH  19  20
ENDBRANCH  18  19
ENDBRANCH  17  18
ENDBRANCH  14  17
ENDBRANCH  13  14
ENDBRANCH   1  13
BRANCH   4  22
HETATM   22  N3  UNL     1      14.506  11.582  29.115  1.00  0.00    -0.234 N 
ATOM     23  H32 UNL     1      14.219  11.385  30.073  1.00  0.00     0.174 HD
ATOM     24  H31 UNL     1      13.910  12.000  28.400  1.00  0.00     0.174 HD
ENDBRANCH   4  22
BRANCH  11  25
HETATM   25  N8  UNL     1      19.483   8.206  26.438  1.00  0.00    -0.344 N 
ATOM     26  H82 UNL     1      18.882   7.665  25.815  1.00  0.00     0.176 HD
ATOM     27  H81 UNL     1      20.436   8.082  26.098  1.00  0.00     0.176 HD
ENDBRANCH  11  25
BRANCH   7  28
HETATM   28  N5  UNL     1      18.241  13.096  27.315  1.00  0.00    -0.234 N 
ATOM     29  H52 UNL     1      17.764  13.905  26.918  1.00  0.00     0.174 HD
ATOM     30  H51 UNL     1      19.232  13.110  27.555  1.00  0.00     0.174 HD
ENDBRANCH   7  28
TORSDOF 9
ENDMDL
MODEL 3
REMARK VINA RESULT: -6.458979568      1.130      1.233
REMARK  9 active torsions:
REMARK  status: ('A' for Active; 'I' for Inactive)
REMARK    1  A    between atoms: O1_2  and  C2_3 
REMARK    2  A    between atoms: C2_3  and  C3_4 
REMARK    3  A    between atoms: C3_4  and  C4_5 
REMARK    4  A    between atoms: C4_5  and  N1_6 
REMARK    5  A    between atoms: N1_6  and  C5_9 
REMARK    6  A    between atoms: C5_9  and  C6_10 
REMARK    7  A    between atoms: C7_13  and  N3_14 
REMARK    8  A    between atoms: C8_19  and  N5_20 
REMARK    9  A    between atoms: N7_26  and  N8_28 
ROOT
HETATM    1  C6  UNL     1      17.173   9.846  28.208  1.00  0.00     0.098 C 
HETATM    2  N2  UNL     1      18.219  10.601  28.391  1.00  0.00    -0.190 N 
ATOM      3  H2  UNL     1      19.036  10.119  28.767  1.00  0.00     0.184 HD
HETATM    4  C7  UNL     1      18.401  11.953  28.158  1.00  0.00     0.690 C 
HETATM    5  N4  UNL     1      17.547  12.743  27.458  1.00  0.00    -0.023 N 
ATOM      6  H4  UNL     1      17.859  13.705  27.326  1.00  0.00     0.203 HD
HETATM    7  C8  UNL     1      16.325  12.445  26.899  1.00  0.00     0.692 C 
HETATM    8  N6  UNL     1      15.559  11.393  27.328  1.00  0.00    -0.173 N 
ATOM      9  H6  UNL     1      14.559  11.513  27.165  1.00  0.00     0.186 HD
HETATM   10  C9  UNL     1      15.875  10.253  27.913  1.00  0.00     0.160 C 
HETATM   11  N7  UNL     1      14.986   9.488  28.239  1.00  0.00    -0.290 N 
ATOM     12  H7  UNL     1      15.475   8.710  28.680  1.00  0.00     0.188 HD
ENDROOT
BRANCH   1  13
HETATM   13  C5  UNL     1      17.277   8.375  28.260  1.00  0.00     0.293 C 
BRANCH  13  14
HETATM   14  N1  UNL     1      18.023   7.952  29.451  1.00  0.00    -0.070 N 
ATOM     15  H12 UNL     1      18.966   8.342  29.460  1.00  0.00     0.277 HD
ATOM     16  H11 UNL     1      18.263   6.961  29.409  1.00  0.00     0.277 HD
BRANCH  14  17
HETATM   17  C4  UNL     1      17.309   8.271  30.665  1.00  0.00     0.235 C 
BRANCH  17  18
HETATM   18  C3  UNL     1      18.379   8.556  31.758  1.00  0.00     0.054 C 
BRANCH  18  19
HETATM   19  C2  UNL     1      19.718   8.520  31.069  1.00  0.00     0.168 C 
BRANCH  19  20
HETATM   20  O1  UNL     1      20.076   9.759  30.566  1.00  0.00    -0.396 OA
HETATM   21  C1  UNL     1      21.240   9.618  29.824  1.00  0.00     0.201 C 
ENDBRANCH  19  20
ENDBRANCH  18  19
ENDBRANCH  17  18
ENDBRANCH  14  17
ENDBRANCH  13  14
ENDBRANCH   1  13
BRANCH   4  22
HETATM   22  N3  UNL     1      19.437  12.448  28.607  1.00  0.00    -0.234 N 
ATOM     23  H32 UNL     1      20.126  12.823  27.955  1.00  0.00     0.174 HD
ATOM     24  H31 UNL     1      19.544  12.426  29.621  1.00  0.00     0.174 HD
ENDBRANCH   4  22
BRANCH  11  25
HETATM   25  N8  UNL     1      13.743   9.159  28.311  1.00  0.00    -0.344 N 
ATOM     26  H82 UNL     1      13.481   9.109  27.326  1.00  0.00     0.176 HD
ATOM     27  H81 UNL     1      12.905   8.929  28.844  1.00  0.00     0.176 HD
ENDBRANCH  11  25
BRANCH   7  28
HETATM   28  N5  UNL     1      15.946  13.164  26.003  1.00  0.00    -0.234 N 
ATOM     29  H52 UNL     1      15.788  12.795  25.065  1.00  0.00     0.174 HD
ATOM     30  H51 UNL     1      15.791  14.145  26.237  1.00  0.00     0.174 HD
ENDBRANCH   7  28
TORSDOF 9
ENDMDL
MODEL 4
REMARK VINA RESULT: -6.451498393      1.378      1.425
REMARK  9 active torsions:
REMARK  status: ('A' for Active; 'I' for Inactive)
REMARK    1  A    between atoms: O1_2  and  C2_3 
REMARK    2  A    between atoms: C2_3  and  C3_4 
REMARK    3  A    between atoms: C3_4  and  C4_5 
REMARK    4  A    between atoms: C4_5  and  N1_6 
REMARK    5  A    between atoms: N1_6  and  C5_9 
REMARK    6  A    between atoms: C5_9  and  C6_10 
REMARK    7  A    between atoms: C7_13  and  N3_14 
REMARK    8  A    between atoms: C8_19  and  N5_20 
REMARK    9  A    between atoms: N7_26  and  N8_28 
ROOT
HETATM    1  C6  UNL     1      15.643  10.218  29.812  1.00  0.00     0.098 C 
HETATM    2  N2  UNL     1      16.230  11.224  30.398  1.00  0.00    -0.190 N 
ATOM      3  H2  UNL     1      16.512  11.052  31.364  1.00  0.00     0.184 HD
HETATM    4  C7  UNL     1      16.533  12.488  29.922  1.00  0.00     0.690 C 
HETATM    5  N4  UNL     1      16.464  12.864  28.620  1.00  0.00    -0.023 N 
ATOM      6  H4  UNL     1      16.780  13.815  28.429  1.00  0.00     0.203 HD
HETATM    7  C8  UNL     1      16.034  12.160  27.518  1.00  0.00     0.692 C 
HETATM    8  N6  UNL     1      15.190  11.085  27.618  1.00  0.00    -0.173 N 
ATOM      9  H6  UNL     1      14.626  10.921  26.784  1.00  0.00     0.186 HD
HETATM   10  C9  UNL     1      14.972  10.223  28.592  1.00  0.00     0.160 C 
HETATM   11  N7  UNL     1      14.122   9.365  28.445  1.00  0.00    -0.290 N 
ATOM     12  H7  UNL     1      14.130   8.851  29.326  1.00  0.00     0.188 HD
ENDROOT
BRANCH   1  13
HETATM   13  C5  UNL     1      15.667   8.869  30.408  1.00  0.00     0.293 C 
BRANCH  13  14
HETATM   14  N1  UNL     1      17.018   8.297  30.336  1.00  0.00    -0.070 N 
ATOM     15  H12 UNL     1      17.523   8.634  29.516  1.00  0.00     0.277 HD
ATOM     16  H11 UNL     1      16.991   7.303  30.107  1.00  0.00     0.277 HD
BRANCH  14  17
HETATM   17  C4  UNL     1      17.762   8.539  31.550  1.00  0.00     0.235 C 
BRANCH  17  18
HETATM   18  C3  UNL     1      19.255   8.237  31.233  1.00  0.00     0.054 C 
BRANCH  18  19
HETATM   19  C2  UNL     1      19.529   8.808  29.867  1.00  0.00     0.168 C 
BRANCH  19  20
HETATM   20  O1  UNL     1      19.194  10.149  29.788  1.00  0.00    -0.396 OA
HETATM   21  C1  UNL     1      19.252  10.545  28.459  1.00  0.00     0.201 C 
ENDBRANCH  19  20
ENDBRANCH  18  19
ENDBRANCH  17  18
ENDBRANCH  14  17
ENDBRANCH  13  14
ENDBRANCH   1  13
BRANCH   4  22
HETATM   22  N3  UNL     1      16.918  13.307  30.760  1.00  0.00    -0.234 N 
ATOM     23  H32 UNL     1      17.574  13.004  31.479  1.00  0.00     0.174 HD
ATOM     24  H31 UNL     1      16.526  14.245  30.684  1.00  0.00     0.174 HD
ENDBRANCH   4  22
BRANCH  11  25
HETATM   25  N8  UNL     1      13.217   8.774  27.745  1.00  0.00    -0.344 N 
ATOM     26  H82 UNL     1      13.779   8.249  27.075  1.00  0.00     0.176 HD
ATOM     27  H81 UNL     1      12.242   8.570  27.527  1.00  0.00     0.176 HD
ENDBRANCH  11  25
BRANCH   7  28
HETATM   28  N5  UNL     1      16.432  12.539  26.440  1.00  0.00    -0.234 N 
ATOM     29  H52 UNL     1      16.511  11.894  25.654  1.00  0.00     0.174 HD
ATOM     30  H51 UNL     1      16.677  13.526  26.363  1.00  0.00     0.174 HD
ENDBRANCH   7  28
TORSDOF 9
ENDMDL
MODEL 5
REMARK VINA RESULT: -6.399917704      1.090      1.350
REMARK  9 active torsions:
REMARK  status: ('A' for Active; 'I' for Inactive)
REMARK    1  A    between atoms: O1_2  and  C2_3 
REMARK    2  A    between atoms: C2_3  and  C3_4 
REMARK    3  A    between atoms: C3_4  and  C4_5 
REMARK    4  A    between atoms: C4_5  and  N1_6 
REMARK    5  A    between atoms: N1_6  and  C5_9 
REMARK    6  A    between atoms: C5_9  and  C6_10 
REMARK    7  A    between atoms: C7_13  and  N3_14 
REMARK    8  A    between atoms: C8_19  and  N5_20 
REMARK    9  A    between atoms: N7_26  and  N8_28 
ROOT
HETATM    1  C6  UNL     1      16.257  10.439  29.424  1.00  0.00     0.098 C 
HETATM    2  N2  UNL     1      16.992  11.422  29.861  1.00  0.00    -0.190 N 
ATOM      3  H2  UNL     1      17.484  11.234  30.735  1.00  0.00     0.184 HD
HETATM    4  C7  UNL     1      17.214  12.681  29.330  1.00  0.00     0.690 C 
HETATM    5  N4  UNL     1      16.858  13.070  28.080  1.00  0.00    -0.023 N 
ATOM      6  H4  UNL     1      17.148  14.013  27.822  1.00  0.00     0.203 HD
HETATM    7  C8  UNL     1      16.164  12.388  27.105  1.00  0.00     0.692 C 
HETATM    8  N6  UNL     1      15.336  11.336  27.395  1.00  0.00    -0.173 N 
ATOM      9  H6  UNL     1      14.590  11.195  26.714  1.00  0.00     0.186 HD
HETATM   10  C9  UNL     1      15.324  10.472  28.392  1.00  0.00     0.160 C 
HETATM   11  N7  UNL     1      14.437   9.639  28.444  1.00  0.00    -0.290 N 
ATOM     12  H7  UNL     1      14.634   9.118  29.298  1.00  0.00     0.188 HD
ENDROOT
BRANCH   1  13
HETATM   13  C5  UNL     1      16.379   9.084  29.996  1.00  0.00     0.293 C 
BRANCH  13  14
HETATM   14  N1  UNL     1      17.791   8.724  30.175  1.00  0.00    -0.070 N 
ATOM     15  H12 UNL     1      17.898   7.938  30.817  1.00  0.00     0.277 HD
ATOM     16  H11 UNL     1      18.292   9.434  30.711  1.00  0.00     0.277 HD
BRANCH  14  17
HETATM   17  C4  UNL     1      18.437   8.465  28.910  1.00  0.00     0.235 C 
BRANCH  17  18
HETATM   18  C3  UNL     1      19.752   9.297  28.894  1.00  0.00     0.054 C 
BRANCH  18  19
HETATM   19  C2  UNL     1      20.643   8.714  29.959  1.00  0.00     0.168 C 
BRANCH  19  20
HETATM   20  O1  UNL     1      20.394   7.367  30.164  1.00  0.00    -0.396 OA
HETATM   21  C1  UNL     1      21.039   6.968  31.326  1.00  0.00     0.201 C 
ENDBRANCH  19  20
ENDBRANCH  18  19
ENDBRANCH  17  18
ENDBRANCH  14  17
ENDBRANCH  13  14
ENDBRANCH   1  13
BRANCH   4  22
HETATM   22  N3  UNL     1      17.805  13.482  30.057  1.00  0.00    -0.234 N 
ATOM     23  H32 UNL     1      17.492  13.596  31.021  1.00  0.00     0.174 HD
ATOM     24  H31 UNL     1      18.569  14.002  29.626  1.00  0.00     0.174 HD
ENDBRANCH   4  22
BRANCH  11  25
HETATM   25  N8  UNL     1      13.379   9.080  27.970  1.00  0.00    -0.344 N 
ATOM     26  H82 UNL     1      12.659   9.766  28.197  1.00  0.00     0.176 HD
ATOM     27  H81 UNL     1      12.906   8.313  27.493  1.00  0.00     0.176 HD
ENDBRANCH  11  25
BRANCH   7  28
HETATM   28  N5  UNL     1      16.314  12.765  25.965  1.00  0.00    -0.234 N 
ATOM     29  H52 UNL     1      16.170  13.743  25.713  1.00  0.00     0.174 HD
ATOM     30  H51 UNL     1      16.593  12.061  25.283  1.00  0.00     0.174 HD
ENDBRANCH   7  28
TORSDOF 9
ENDMDL
