MODEL 1
REMARK VINA RESULT: -6.746428124      0.000      0.000
REMARK  12 active torsions:
REMARK  status: ('A' for Active; 'I' for Inactive)
REMARK    1  A    between atoms: N1_1  and  C1_4 
REMARK    2  A    between atoms: C2_7  and  C3_8 
REMARK    3  A    between atoms: C3_8  and  N3_9 
REMARK    4  A    between atoms: C3_8  and  N4_13 
REMARK    5  A    between atoms: N6_19  and  C4_20 
REMARK    6  A    between atoms: C4_20  and  C5_21 
REMARK    7  A    between atoms: C5_21  and  C6_22 
REMARK    8  A    between atoms: C6_22  and  C7_23 
REMARK    9  A    between atoms: C7_23  and  C8_24 
REMARK   10  A    between atoms: C8_24  and  O1_25 
REMARK   11  A    between atoms: C9_27  and  N7_28 
REMARK   12  A    between atoms: N7_28  and  N8_30 
ROOT
HETATM    1  C1  UNL     1      15.435  11.401  27.808  1.00  0.00     0.148 A 
HETATM    2  N2  UNL     1      16.331  12.395  27.780  1.00  0.00    -0.325 N 
ATOM      3  H2  UNL     1      16.113  13.286  27.334  1.00  0.00     0.169 HD
HETATM    4  C2  UNL     1      17.526  12.183  28.357  1.00  0.00     0.156 A 
HETATM    5  N5  UNL     1      17.826  10.998  28.953  1.00  0.00    -0.282 N 
ATOM      6  H5  UNL     1      18.745  10.877  29.380  1.00  0.00     0.188 HD
HETATM    7  N6  UNL     1      16.964  10.000  28.996  1.00  0.00    -0.271 N 
HETATM    8  C9  UNL     1      15.769  10.209  28.420  1.00  0.00     0.181 A 
ENDROOT
BRANCH   4   9
HETATM    9  C3  UNL     1      18.560  13.261  28.354  1.00  0.00     0.446 C 
BRANCH   9  10
HETATM   10  N3  UNL     1      18.514  14.065  29.547  1.00  0.00    -0.043 N 
ATOM     11  H33 UNL     1      17.558  14.165  29.887  1.00  0.00     0.277 HD
ATOM     12  H32 UNL     1      18.919  13.568  30.340  1.00  0.00     0.277 HD
ATOM     13  H31 UNL     1      18.956  14.976  29.417  1.00  0.00     0.277 HD
ENDBRANCH   9  10
BRANCH   9  14
HETATM   14  N4  UNL     1      18.327  14.098  27.186  1.00  0.00    -0.043 N 
ATOM     15  H43 UNL     1      17.563  13.759  26.602  1.00  0.00     0.277 HD
ATOM     16  H42 UNL     1      17.924  15.005  27.423  1.00  0.00     0.277 HD
ATOM     17  H41 UNL     1      19.208  14.177  26.677  1.00  0.00     0.277 HD
ENDBRANCH   9  14
ENDBRANCH   4   9
BRANCH   1  18
HETATM   18  N1  UNL     1      14.277  11.560  27.267  1.00  0.00    -0.382 N 
ATOM     19  H12 UNL     1      14.192  11.904  26.310  1.00  0.00     0.157 HD
ATOM     20  H11 UNL     1      13.431  11.343  27.796  1.00  0.00     0.157 HD
ENDBRANCH   1  18
BRANCH   7  21
HETATM   21  C4  UNL     1      17.259   8.757  29.614  1.00  0.00     0.151 C 
BRANCH  21  22
HETATM   22  C5  UNL     1      17.261   8.800  31.123  1.00  0.00     0.022 C 
BRANCH  22  23
HETATM   23  C6  UNL     1      18.681   8.512  31.549  1.00  0.00     0.004 C 
BRANCH  23  24
HETATM   24  C7  UNL     1      19.549   7.958  30.464  1.00  0.00     0.026 C 
BRANCH  24  25
HETATM   25  C8  UNL     1      20.726   7.262  31.072  1.00  0.00     0.164 C 
BRANCH  25  26
HETATM   26  O1  UNL     1      20.391   5.957  31.461  1.00  0.00    -0.401 OA
ATOM     27  H1  UNL     1      20.804   5.731  32.286  1.00  0.00     0.209 HD
ENDBRANCH  25  26
ENDBRANCH  24  25
ENDBRANCH  23  24
ENDBRANCH  22  23
ENDBRANCH  21  22
ENDBRANCH   7  21
BRANCH   8  28
HETATM   28  N7  UNL     1      14.908   9.277  28.436  1.00  0.00    -0.288 N 
ATOM     29  H7  UNL     1      15.001   8.564  27.713  1.00  0.00     0.188 HD
BRANCH  28  30
HETATM   30  N8  UNL     1      13.867   9.118  29.316  1.00  0.00    -0.343 N 
ATOM     31  H82 UNL     1      14.011   9.532  30.237  1.00  0.00     0.176 HD
ATOM     32  H81 UNL     1      12.982   8.638  29.149  1.00  0.00     0.176 HD
ENDBRANCH  28  30
ENDBRANCH   8  28
TORSDOF 12
ENDMDL
MODEL 2
REMARK VINA RESULT: -6.715042787      3.685      6.034
REMARK  12 active torsions:
REMARK  status: ('A' for Active; 'I' for Inactive)
REMARK    1  A    between atoms: N1_1  and  C1_4 
REMARK    2  A    between atoms: C2_7  and  C3_8 
REMARK    3  A    between atoms: C3_8  and  N3_9 
REMARK    4  A    between atoms: C3_8  and  N4_13 
REMARK    5  A    between atoms: N6_19  and  C4_20 
REMARK    6  A    between atoms: C4_20  and  C5_21 
REMARK    7  A    between atoms: C5_21  and  C6_22 
REMARK    8  A    between atoms: C6_22  and  C7_23 
REMARK    9  A    between atoms: C7_23  and  C8_24 
REMARK   10  A    between atoms: C8_24  and  O1_25 
REMARK   11  A    between atoms: C9_27  and  N7_28 
REMARK   12  A    between atoms: N7_28  and  N8_30 
ROOT
HETATM    1  C1  UNL     1      15.109   9.606  29.335  1.00  0.00     0.148 A 
HETATM    2  N2  UNL     1      16.108   8.919  29.901  1.00  0.00    -0.325 N 
ATOM      3  H2  UNL     1      15.946   8.001  30.314  1.00  0.00     0.169 HD
HETATM    4  C2  UNL     1      17.332   9.475  29.908  1.00  0.00     0.156 A 
HETATM    5  N5  UNL     1      17.558  10.700  29.360  1.00  0.00    -0.282 N 
ATOM      6  H5  UNL     1      18.501  11.088  29.386  1.00  0.00     0.188 HD
HETATM    7  N6  UNL     1      16.592  11.401  28.795  1.00  0.00    -0.271 N 
HETATM    8  C9  UNL     1      15.369  10.846  28.787  1.00  0.00     0.181 A 
ENDROOT
BRANCH   4   9
HETATM    9  C3  UNL     1      18.481   8.749  30.526  1.00  0.00     0.446 C 
BRANCH   9  10
HETATM   10  N3  UNL     1      18.893   7.613  29.744  1.00  0.00    -0.043 N 
ATOM     11  H33 UNL     1      18.635   6.739  30.201  1.00  0.00     0.277 HD
ATOM     12  H32 UNL     1      18.332   7.527  28.897  1.00  0.00     0.277 HD
ATOM     13  H31 UNL     1      19.890   7.634  29.527  1.00  0.00     0.277 HD
ENDBRANCH   9  10
BRANCH   9  14
HETATM   14  N4  UNL     1      18.070   8.312  31.852  1.00  0.00    -0.043 N 
ATOM     15  H43 UNL     1      18.399   7.374  32.080  1.00  0.00     0.277 HD
ATOM     16  H42 UNL     1      18.553   8.810  32.600  1.00  0.00     0.277 HD
ATOM     17  H41 UNL     1      17.055   8.400  31.911  1.00  0.00     0.277 HD
ENDBRANCH   9  14
ENDBRANCH   4   9
BRANCH   1  18
HETATM   18  N1  UNL     1      13.920   9.110  29.306  1.00  0.00    -0.382 N 
ATOM     19  H12 UNL     1      13.302   9.192  30.113  1.00  0.00     0.157 HD
ATOM     20  H11 UNL     1      13.587   8.629  28.470  1.00  0.00     0.157 HD
ENDBRANCH   1  18
BRANCH   7  21
HETATM   21  C4  UNL     1      16.808  12.679  28.218  1.00  0.00     0.151 C 
BRANCH  21  22
HETATM   22  C5  UNL     1      17.674  12.662  26.981  1.00  0.00     0.022 C 
BRANCH  22  23
HETATM   23  C6  UNL     1      17.236  13.842  26.146  1.00  0.00     0.004 C 
BRANCH  23  24
HETATM   24  C7  UNL     1      16.077  13.560  25.242  1.00  0.00     0.026 C 
BRANCH  24  25
HETATM   25  C8  UNL     1      15.889  14.708  24.300  1.00  0.00     0.164 C 
BRANCH  25  26
HETATM   26  O1  UNL     1      14.977  15.639  24.821  1.00  0.00    -0.401 OA
ATOM     27  H1  UNL     1      14.389  15.226  25.443  1.00  0.00     0.209 HD
ENDBRANCH  25  26
ENDBRANCH  24  25
ENDBRANCH  23  24
ENDBRANCH  22  23
ENDBRANCH  21  22
ENDBRANCH   7  21
BRANCH   8  28
HETATM   28  N7  UNL     1      14.409  11.485  28.255  1.00  0.00    -0.288 N 
ATOM     29  H7  UNL     1      13.953  12.185  28.841  1.00  0.00     0.188 HD
BRANCH  28  30
HETATM   30  N8  UNL     1      13.915  11.341  26.984  1.00  0.00    -0.343 N 
ATOM     31  H82 UNL     1      14.096  10.437  26.548  1.00  0.00     0.176 HD
ATOM     32  H81 UNL     1      13.396  12.030  26.439  1.00  0.00     0.176 HD
ENDBRANCH  28  30
ENDBRANCH   8  28
TORSDOF 12
ENDMDL
MODEL 3
REMARK VINA RESULT: -6.680087099      1.279      1.389
REMARK  12 active torsions:
REMARK  status: ('A' for Active; 'I' for Inactive)
REMARK    1  A    between atoms: N1_1  and  C1_4 
REMARK    2  A    between atoms: C2_7  and  C3_8 
REMARK    3  A    between atoms: C3_8  and  N3_9 
REMARK    4  A    between atoms: C3_8  and  N4_13 
REMARK    5  A    between atoms: N6_19  and  C4_20 
REMARK    6  A    between atoms: C4_20  and  C5_21 
REMARK    7  A    between atoms: C5_21  and  C6_22 
REMARK    8  A    between atoms: C6_22  and  C7_23 
REMARK    9  A    between atoms: C7_23  and  C8_24 
REMARK   10  A    between atoms: C8_24  and  O1_25 
REMARK   11  A    between atoms: C9_27  and  N7_28 
REMARK   12  A    between atoms: N7_28  and  N8_30 
ROOT
HETATM    1  C1  UNL     1      15.115  11.507  28.090  1.00  0.00     0.148 A 
HETATM    2  N2  UNL     1      16.102  12.318  27.691  1.00  0.00    -0.325 N 
ATOM      3  H2  UNL     1      15.965  12.970  26.919  1.00  0.00     0.169 HD
HETATM    4  C2  UNL     1      17.277  12.248  28.339  1.00  0.00     0.156 A 
HETATM    5  N5  UNL     1      17.469  11.381  29.370  1.00  0.00    -0.282 N 
ATOM      6  H5  UNL     1      18.376  11.358  29.835  1.00  0.00     0.188 HD
HETATM    7  N6  UNL     1      16.515  10.569  29.785  1.00  0.00    -0.271 N 
HETATM    8  C9  UNL     1      15.339  10.638  29.139  1.00  0.00     0.181 A 
ENDROOT
BRANCH   4   9
HETATM    9  C3  UNL     1      18.410  13.133  27.932  1.00  0.00     0.446 C 
BRANCH   9  10
HETATM   10  N3  UNL     1      18.740  14.099  28.946  1.00  0.00    -0.043 N 
ATOM     11  H33 UNL     1      17.956  14.247  29.582  1.00  0.00     0.277 HD
ATOM     12  H32 UNL     1      19.418  13.720  29.608  1.00  0.00     0.277 HD
ATOM     13  H31 UNL     1      19.064  14.981  28.550  1.00  0.00     0.277 HD
ENDBRANCH   9  10
BRANCH   9  14
HETATM   14  N4  UNL     1      18.023  13.816  26.707  1.00  0.00    -0.043 N 
ATOM     15  H43 UNL     1      17.481  13.224  26.077  1.00  0.00     0.277 HD
ATOM     16  H42 UNL     1      17.315  14.534  26.860  1.00  0.00     0.277 HD
ATOM     17  H41 UNL     1      18.871  14.183  26.272  1.00  0.00     0.277 HD
ENDBRANCH   9  14
ENDBRANCH   4   9
BRANCH   1  18
HETATM   18  N1  UNL     1      13.972  11.541  27.498  1.00  0.00    -0.382 N 
ATOM     19  H12 UNL     1      13.472  12.423  27.381  1.00  0.00     0.157 HD
ATOM     20  H11 UNL     1      13.555  10.681  27.140  1.00  0.00     0.157 HD
ENDBRANCH   1  18
BRANCH   7  21
HETATM   21  C4  UNL     1      16.696   9.659  30.859  1.00  0.00     0.151 C 
BRANCH  21  22
HETATM   22  C5  UNL     1      17.534   8.451  30.512  1.00  0.00     0.022 C 
BRANCH  22  23
HETATM   23  C6  UNL     1      18.834   8.613  31.266  1.00  0.00     0.004 C 
BRANCH  23  24
HETATM   24  C7  UNL     1      20.052   8.240  30.480  1.00  0.00     0.026 C 
BRANCH  24  25
HETATM   25  C8  UNL     1      20.544   9.435  29.726  1.00  0.00     0.164 C 
BRANCH  25  26
HETATM   26  O1  UNL     1      21.881   9.714  30.048  1.00  0.00    -0.401 OA
ATOM     27  H1  UNL     1      22.223  10.413  29.502  1.00  0.00     0.209 HD
ENDBRANCH  25  26
ENDBRANCH  24  25
ENDBRANCH  23  24
ENDBRANCH  22  23
ENDBRANCH  21  22
ENDBRANCH   7  21
BRANCH   8  28
HETATM   28  N7  UNL     1      14.393   9.875  29.504  1.00  0.00    -0.288 N 
ATOM     29  H7  UNL     1      14.049  10.005  30.456  1.00  0.00     0.188 HD
BRANCH  28  30
HETATM   30  N8  UNL     1      13.779   8.895  28.766  1.00  0.00    -0.343 N 
ATOM     31  H82 UNL     1      12.770   8.998  28.664  1.00  0.00     0.176 HD
ATOM     32  H81 UNL     1      14.217   8.090  28.318  1.00  0.00     0.176 HD
ENDBRANCH  28  30
ENDBRANCH   8  28
TORSDOF 12
ENDMDL
MODEL 4
REMARK VINA RESULT: -6.596576968      3.845      5.966
REMARK  12 active torsions:
REMARK  status: ('A' for Active; 'I' for Inactive)
REMARK    1  A    between atoms: N1_1  and  C1_4 
REMARK    2  A    between atoms: C2_7  and  C3_8 
REMARK    3  A    between atoms: C3_8  and  N3_9 
REMARK    4  A    between atoms: C3_8  and  N4_13 
REMARK    5  A    between atoms: N6_19  and  C4_20 
REMARK    6  A    between atoms: C4_20  and  C5_21 
REMARK    7  A    between atoms: C5_21  and  C6_22 
REMARK    8  A    between atoms: C6_22  and  C7_23 
REMARK    9  A    between atoms: C7_23  and  C8_24 
REMARK   10  A    between atoms: C8_24  and  O1_25 
REMARK   11  A    between atoms: C9_27  and  N7_28 
REMARK   12  A    between atoms: N7_28  and  N8_30 
ROOT
HETATM    1  C1  UNL     1      17.170   8.799  30.598  1.00  0.00     0.148 A 
HETATM    2  N2  UNL     1      18.452   8.415  30.565  1.00  0.00    -0.325 N 
ATOM      3  H2  UNL     1      18.765   7.589  31.073  1.00  0.00     0.169 HD
HETATM    4  C2  UNL     1      19.313   9.153  29.843  1.00  0.00     0.156 A 
HETATM    5  N5  UNL     1      18.904  10.258  29.163  1.00  0.00    -0.282 N 
ATOM      6  H5  UNL     1      19.589  10.791  28.626  1.00  0.00     0.188 HD
HETATM    7  N6  UNL     1      17.647  10.660  29.176  1.00  0.00    -0.271 N 
HETATM    8  C9  UNL     1      16.785   9.925  29.897  1.00  0.00     0.181 A 
ENDROOT
BRANCH   4   9
HETATM    9  C3  UNL     1      20.753   8.766  29.774  1.00  0.00     0.446 C 
BRANCH   9  10
HETATM   10  N3  UNL     1      21.056   7.632  30.607  1.00  0.00    -0.043 N 
ATOM     11  H33 UNL     1      21.790   7.058  30.194  1.00  0.00     0.277 HD
ATOM     12  H32 UNL     1      21.533   7.919  31.461  1.00  0.00     0.277 HD
ATOM     13  H31 UNL     1      20.227   7.074  30.817  1.00  0.00     0.277 HD
ENDBRANCH   9  10
BRANCH   9  14
HETATM   14  N4  UNL     1      21.544   9.913  30.197  1.00  0.00    -0.043 N 
ATOM     15  H43 UNL     1      22.508   9.873  29.868  1.00  0.00     0.277 HD
ATOM     16  H42 UNL     1      21.275  10.775  29.723  1.00  0.00     0.277 HD
ATOM     17  H41 UNL     1      21.476   9.983  31.213  1.00  0.00     0.277 HD
ENDBRANCH   9  14
ENDBRANCH   4   9
BRANCH   1  18
HETATM   18  N1  UNL     1      16.310   8.122  31.277  1.00  0.00    -0.382 N 
ATOM     19  H12 UNL     1      16.295   7.103  31.229  1.00  0.00     0.157 HD
ATOM     20  H11 UNL     1      15.635   8.603  31.872  1.00  0.00     0.157 HD
ENDBRANCH   1  18
BRANCH   7  21
HETATM   21  C4  UNL     1      17.202  11.809  28.473  1.00  0.00     0.151 C 
BRANCH  21  22
HETATM   22  C5  UNL     1      17.491  11.779  26.991  1.00  0.00     0.022 C 
BRANCH  22  23
HETATM   23  C6  UNL     1      17.243  13.181  26.487  1.00  0.00     0.004 C 
BRANCH  23  24
HETATM   24  C7  UNL     1      16.091  13.299  25.537  1.00  0.00     0.026 C 
BRANCH  24  25
HETATM   25  C8  UNL     1      16.236  14.552  24.731  1.00  0.00     0.164 C 
BRANCH  25  26
HETATM   26  O1  UNL     1      15.061  15.318  24.781  1.00  0.00    -0.401 OA
ATOM     27  H1  UNL     1      14.670  15.395  23.919  1.00  0.00     0.209 HD
ENDBRANCH  25  26
ENDBRANCH  24  25
ENDBRANCH  23  24
ENDBRANCH  22  23
ENDBRANCH  21  22
ENDBRANCH   7  21
BRANCH   8  28
HETATM   28  N7  UNL     1      15.565  10.275  29.940  1.00  0.00    -0.288 N 
ATOM     29  H7  UNL     1      15.348  11.086  30.519  1.00  0.00     0.188 HD
BRANCH  28  30
HETATM   30  N8  UNL     1      14.506   9.687  29.296  1.00  0.00    -0.343 N 
ATOM     31  H82 UNL     1      14.646   9.513  28.301  1.00  0.00     0.176 HD
ATOM     32  H81 UNL     1      13.611   9.412  29.699  1.00  0.00     0.176 HD
ENDBRANCH  28  30
ENDBRANCH   8  28
TORSDOF 12
ENDMDL
MODEL 5
REMARK VINA RESULT: -6.593930199      2.874      5.692
REMARK  12 active torsions:
REMARK  status: ('A' for Active; 'I' for Inactive)
REMARK    1  A    between atoms: N1_1  and  C1_4 
REMARK    2  A    between atoms: C2_7  and  C3_8 
REMARK    3  A    between atoms: C3_8  and  N3_9 
REMARK    4  A    between atoms: C3_8  and  N4_13 
REMARK    5  A    between atoms: N6_19  and  C4_20 
REMARK    6  A    between atoms: C4_20  and  C5_21 
REMARK    7  A    between atoms: C5_21  and  C6_22 
REMARK    8  A    between atoms: C6_22  and  C7_23 
REMARK    9  A    between atoms: C7_23  and  C8_24 
REMARK   10  A    between atoms: C8_24  and  O1_25 
REMARK   11  A    between atoms: C9_27  and  N7_28 
REMARK   12  A    between atoms: N7_28  and  N8_30 
ROOT
HETATM    1  C1  UNL     1      18.375   8.620  29.876  1.00  0.00     0.148 A 
HETATM    2  N2  UNL     1      17.058   8.810  30.027  1.00  0.00    -0.325 N 
ATOM      3  H2  UNL     1      16.460   8.072  30.398  1.00  0.00     0.169 HD
HETATM    4  C2  UNL     1      16.548  10.003  29.674  1.00  0.00     0.156 A 
HETATM    5  N5  UNL     1      17.338  10.993  29.177  1.00  0.00    -0.282 N 
ATOM      6  H5  UNL     1      16.912  11.885  28.921  1.00  0.00     0.188 HD
HETATM    7  N6  UNL     1      18.639  10.835  29.017  1.00  0.00    -0.271 N 
HETATM    8  C9  UNL     1      19.150   9.644  29.369  1.00  0.00     0.181 A 
ENDROOT
BRANCH   4   9
HETATM    9  C3  UNL     1      15.086  10.265  29.824  1.00  0.00     0.446 C 
BRANCH   9  10
HETATM   10  N3  UNL     1      14.282   9.187  29.313  1.00  0.00    -0.043 N 
ATOM     11  H33 UNL     1      14.768   8.685  28.570  1.00  0.00     0.277 HD
ATOM     12  H32 UNL     1      14.203   8.432  29.995  1.00  0.00     0.277 HD
ATOM     13  H31 UNL     1      13.363   9.502  29.003  1.00  0.00     0.277 HD
ENDBRANCH   9  10
BRANCH   9  14
HETATM   14  N4  UNL     1      14.777  11.493  29.107  1.00  0.00    -0.043 N 
ATOM     15  H43 UNL     1      15.362  12.278  29.395  1.00  0.00     0.277 HD
ATOM     16  H42 UNL     1      15.064  11.463  28.129  1.00  0.00     0.277 HD
ATOM     17  H41 UNL     1      13.781  11.681  29.221  1.00  0.00     0.277 HD
ENDBRANCH   9  14
ENDBRANCH   4   9
BRANCH   1  18
HETATM   18  N1  UNL     1      18.905   7.493  30.201  1.00  0.00    -0.382 N 
ATOM     19  H12 UNL     1      18.322   6.706  30.487  1.00  0.00     0.157 HD
ATOM     20  H11 UNL     1      19.919   7.378  30.176  1.00  0.00     0.157 HD
ENDBRANCH   1  18
BRANCH   7  21
HETATM   21  C4  UNL     1      19.478  11.856  28.501  1.00  0.00     0.151 C 
BRANCH  21  22
HETATM   22  C5  UNL     1      18.943  13.255  28.697  1.00  0.00     0.022 C 
BRANCH  22  23
HETATM   23  C6  UNL     1      18.882  13.877  27.321  1.00  0.00     0.004 C 
BRANCH  23  24
HETATM   24  C7  UNL     1      17.495  14.084  26.800  1.00  0.00     0.026 C 
BRANCH  24  25
HETATM   25  C8  UNL     1      17.096  12.910  25.963  1.00  0.00     0.164 C 
BRANCH  25  26
HETATM   26  O1  UNL     1      16.130  12.132  26.619  1.00  0.00    -0.401 OA
ATOM     27  H1  UNL     1      15.352  12.033  26.082  1.00  0.00     0.209 HD
ENDBRANCH  25  26
ENDBRANCH  24  25
ENDBRANCH  23  24
ENDBRANCH  22  23
ENDBRANCH  21  22
ENDBRANCH   7  21
BRANCH   8  28
HETATM   28  N7  UNL     1      20.396   9.447  29.232  1.00  0.00    -0.288 N 
ATOM     29  H7  UNL     1      20.694   9.045  28.343  1.00  0.00     0.188 HD
BRANCH  28  30
HETATM   30  N8  UNL     1      21.388   9.712  30.142  1.00  0.00    -0.343 N 
ATOM     31  H82 UNL     1      21.067  10.083  31.036  1.00  0.00     0.176 HD
ATOM     32  H81 UNL     1      22.392   9.580  30.020  1.00  0.00     0.176 HD
ENDBRANCH  28  30
ENDBRANCH   8  28
TORSDOF 12
ENDMDL
