MODEL 1
REMARK VINA RESULT: -7.774986575      0.000      0.000
REMARK  10 active torsions:
REMARK  status: ('A' for Active; 'I' for Inactive)
REMARK    1  A    between atoms: C2_3  and  N2_4 
REMARK    2  A    between atoms: C2_3  and  C3_8 
REMARK    3  A    between atoms: C2_3  and  C4_13 
REMARK    4  A    between atoms: C3_8  and  N3_9 
REMARK    5  A    between atoms: C4_13  and  C5_14 
REMARK    6  A    between atoms: C5_14  and  O1_15 
REMARK    7  A    between atoms: O1_15  and  N4_16 
REMARK    8  A    between atoms: N4_16  and  C6_18 
REMARK    9  A    between atoms: C7_21  and  N6_22 
REMARK   10  A    between atoms: C8_27  and  N8_28 
ROOT
HETATM    1  N1  UNL     1      13.628  10.940  26.263  1.00  0.00    -0.195 NA
HETATM    2  C1  UNL     1      14.354  10.884  27.161  1.00  0.00     0.100 C 
HETATM    3  C2  UNL     1      15.277  10.811  28.314  1.00  0.00     0.235 C 
ENDROOT
BRANCH   3   4
HETATM    4  N2  UNL     1      14.796  11.652  29.402  1.00  0.00    -0.056 N 
ATOM      5  H23 UNL     1      14.782  12.639  29.143  1.00  0.00     0.276 HD
ATOM      6  H22 UNL     1      13.798  11.525  29.568  1.00  0.00     0.276 HD
ATOM      7  H21 UNL     1      15.345  11.489  30.247  1.00  0.00     0.276 HD
ENDBRANCH   3   4
BRANCH   3   8
HETATM    8  C3  UNL     1      16.618  11.326  27.891  1.00  0.00     0.283 C 
BRANCH   8   9
HETATM    9  N3  UNL     1      16.391  12.385  26.920  1.00  0.00    -0.076 N 
ATOM     10  H33 UNL     1      15.572  12.221  26.336  1.00  0.00     0.274 HD
ATOM     11  H32 UNL     1      16.078  13.257  27.348  1.00  0.00     0.274 HD
ATOM     12  H31 UNL     1      17.250  12.494  26.380  1.00  0.00     0.274 HD
ENDBRANCH   8   9
ENDBRANCH   3   8
BRANCH   3  13
HETATM   13  C4  UNL     1      15.311   9.398  28.836  1.00  0.00     0.085 C 
BRANCH  13  14
HETATM   14  C5  UNL     1      15.672   9.430  30.304  1.00  0.00     0.205 C 
BRANCH  14  15
HETATM   15  O1  UNL     1      16.493   8.273  30.531  1.00  0.00    -0.266 OA
BRANCH  15  16
HETATM   16  N4  UNL     1      17.463   8.039  29.590  1.00  0.00    -0.095 N 
ATOM     17  H4  UNL     1      17.204   7.734  28.652  1.00  0.00     0.213 HD
BRANCH  16  18
HETATM   18  C6  UNL     1      18.692   8.204  29.896  1.00  0.00     0.731 A 
HETATM   19  N5  UNL     1      19.315   9.352  29.609  1.00  0.00    -0.020 N 
HETATM   20  C7  UNL     1      20.607   9.505  29.940  1.00  0.00     0.705 A 
ATOM     21  H5  UNL     1      18.812  10.106  29.141  1.00  0.00     0.203 HD
HETATM   22  N7  UNL     1      21.281   8.519  30.556  1.00  0.00    -0.022 N 
HETATM   23  C8  UNL     1      20.673   7.364  30.853  1.00  0.00     0.705 A 
ATOM     24  H7  UNL     1      22.262   8.652  30.800  1.00  0.00     0.203 HD
HETATM   25  N9  UNL     1      19.365   7.225  30.511  1.00  0.00    -0.020 N 
ATOM     26  H9  UNL     1      18.884   6.351  30.728  1.00  0.00     0.203 HD
BRANCH  20  27
HETATM   27  N6  UNL     1      21.241  10.623  29.666  1.00  0.00    -0.234 N 
ATOM     28  H62 UNL     1      21.622  11.168  30.439  1.00  0.00     0.174 HD
ATOM     29  H61 UNL     1      21.348  10.936  28.702  1.00  0.00     0.174 HD
ENDBRANCH  20  27
BRANCH  23  30
HETATM   30  N8  UNL     1      21.233   6.375  31.437  1.00  0.00    -0.234 N 
ATOM     31  H82 UNL     1      20.688   5.881  32.145  1.00  0.00     0.174 HD
ATOM     32  H81 UNL     1      22.179   6.046  31.245  1.00  0.00     0.174 HD
ENDBRANCH  23  30
ENDBRANCH  16  18
ENDBRANCH  15  16
ENDBRANCH  14  15
ENDBRANCH  13  14
ENDBRANCH   3  13
TORSDOF 10
ENDMDL
MODEL 2
REMARK VINA RESULT: -7.767281388      0.058      1.884
REMARK  10 active torsions:
REMARK  status: ('A' for Active; 'I' for Inactive)
REMARK    1  A    between atoms: C2_3  and  N2_4 
REMARK    2  A    between atoms: C2_3  and  C3_8 
REMARK    3  A    between atoms: C2_3  and  C4_13 
REMARK    4  A    between atoms: C3_8  and  N3_9 
REMARK    5  A    between atoms: C4_13  and  C5_14 
REMARK    6  A    between atoms: C5_14  and  O1_15 
REMARK    7  A    between atoms: O1_15  and  N4_16 
REMARK    8  A    between atoms: N4_16  and  C6_18 
REMARK    9  A    between atoms: C7_21  and  N6_22 
REMARK   10  A    between atoms: C8_27  and  N8_28 
ROOT
HETATM    1  N1  UNL     1      13.627  10.919  26.280  1.00  0.00    -0.195 NA
HETATM    2  C1  UNL     1      14.342  10.879  27.189  1.00  0.00     0.100 C 
HETATM    3  C2  UNL     1      15.250  10.829  28.354  1.00  0.00     0.235 C 
ENDROOT
BRANCH   3   4
HETATM    4  N2  UNL     1      14.748  11.680  29.425  1.00  0.00    -0.056 N 
ATOM      5  H23 UNL     1      13.745  11.844  29.343  1.00  0.00     0.276 HD
ATOM      6  H22 UNL     1      14.749  11.199  30.324  1.00  0.00     0.276 HD
ATOM      7  H21 UNL     1      15.274  12.554  29.461  1.00  0.00     0.276 HD
ENDBRANCH   3   4
BRANCH   3   8
HETATM    8  C3  UNL     1      16.592  11.348  27.943  1.00  0.00     0.283 C 
BRANCH   8   9
HETATM    9  N3  UNL     1      16.371  12.381  26.942  1.00  0.00    -0.076 N 
ATOM     10  H33 UNL     1      15.429  12.769  26.972  1.00  0.00     0.274 HD
ATOM     11  H32 UNL     1      16.877  13.243  27.141  1.00  0.00     0.274 HD
ATOM     12  H31 UNL     1      16.609  11.982  26.033  1.00  0.00     0.274 HD
ENDBRANCH   8   9
ENDBRANCH   3   8
BRANCH   3  13
HETATM   13  C4  UNL     1      15.288   9.423  28.895  1.00  0.00     0.085 C 
BRANCH  13  14
HETATM   14  C5  UNL     1      15.717   9.470  30.344  1.00  0.00     0.205 C 
BRANCH  14  15
HETATM   15  O1  UNL     1      16.514   8.294  30.555  1.00  0.00    -0.266 OA
BRANCH  15  16
HETATM   16  N4  UNL     1      17.480   8.054  29.612  1.00  0.00    -0.095 N 
ATOM     17  H4  UNL     1      17.217   7.760  28.672  1.00  0.00     0.213 HD
BRANCH  16  18
HETATM   18  C6  UNL     1      18.712   8.200  29.919  1.00  0.00     0.731 A 
HETATM   19  N5  UNL     1      19.382   7.216  30.527  1.00  0.00    -0.020 N 
HETATM   20  C7  UNL     1      20.676   7.391  30.841  1.00  0.00     0.705 A 
ATOM     21  H5  UNL     1      18.914   6.337  30.751  1.00  0.00     0.203 HD
HETATM   22  N7  UNL     1      21.305   8.542  30.551  1.00  0.00    -0.022 N 
HETATM   23  C8  UNL     1      20.650   9.538  29.942  1.00  0.00     0.705 A 
ATOM     24  H7  UNL     1      22.288   8.658  30.797  1.00  0.00     0.203 HD
HETATM   25  N9  UNL     1      19.341   9.346  29.631  1.00  0.00    -0.020 N 
ATOM     26  H9  UNL     1      18.824  10.093  29.167  1.00  0.00     0.203 HD
BRANCH  20  27
HETATM   27  N6  UNL     1      21.354   6.438  31.439  1.00  0.00    -0.234 N 
ATOM     28  H62 UNL     1      20.952   5.502  31.474  1.00  0.00     0.174 HD
ATOM     29  H61 UNL     1      22.263   6.632  31.858  1.00  0.00     0.174 HD
ENDBRANCH  20  27
BRANCH  23  30
HETATM   30  N8  UNL     1      21.165  10.665  29.628  1.00  0.00    -0.234 N 
ATOM     31  H82 UNL     1      21.814  10.678  28.840  1.00  0.00     0.174 HD
ATOM     32  H81 UNL     1      20.974  11.545  30.106  1.00  0.00     0.174 HD
ENDBRANCH  23  30
ENDBRANCH  16  18
ENDBRANCH  15  16
ENDBRANCH  14  15
ENDBRANCH  13  14
ENDBRANCH   3  13
TORSDOF 10
ENDMDL
MODEL 3
REMARK VINA RESULT: -7.694395832      0.881      1.434
REMARK  10 active torsions:
REMARK  status: ('A' for Active; 'I' for Inactive)
REMARK    1  A    between atoms: C2_3  and  N2_4 
REMARK    2  A    between atoms: C2_3  and  C3_8 
REMARK    3  A    between atoms: C2_3  and  C4_13 
REMARK    4  A    between atoms: C3_8  and  N3_9 
REMARK    5  A    between atoms: C4_13  and  C5_14 
REMARK    6  A    between atoms: C5_14  and  O1_15 
REMARK    7  A    between atoms: O1_15  and  N4_16 
REMARK    8  A    between atoms: N4_16  and  C6_18 
REMARK    9  A    between atoms: C7_21  and  N6_22 
REMARK   10  A    between atoms: C8_27  and  N8_28 
ROOT
HETATM    1  N1  UNL     1      17.698  11.062  27.078  1.00  0.00    -0.195 NA
HETATM    2  C1  UNL     1      16.715  11.016  27.686  1.00  0.00     0.100 C 
HETATM    3  C2  UNL     1      15.456  10.954  28.458  1.00  0.00     0.235 C 
ENDROOT
BRANCH   3   4
HETATM    4  N2  UNL     1      14.318  11.253  27.598  1.00  0.00    -0.056 N 
ATOM      5  H23 UNL     1      13.442  10.911  27.993  1.00  0.00     0.276 HD
ATOM      6  H22 UNL     1      14.101  12.249  27.589  1.00  0.00     0.276 HD
ATOM      7  H21 UNL     1      14.478  10.890  26.658  1.00  0.00     0.276 HD
ENDBRANCH   3   4
BRANCH   3   8
HETATM    8  C3  UNL     1      15.501  11.989  29.539  1.00  0.00     0.283 C 
BRANCH   8   9
HETATM    9  N3  UNL     1      16.596  12.895  29.228  1.00  0.00    -0.076 N 
ATOM     10  H33 UNL     1      17.505  12.433  29.219  1.00  0.00     0.274 HD
ATOM     11  H32 UNL     1      16.594  13.203  28.255  1.00  0.00     0.274 HD
ATOM     12  H31 UNL     1      16.549  13.670  29.890  1.00  0.00     0.274 HD
ENDBRANCH   8   9
ENDBRANCH   3   8
BRANCH   3  13
HETATM   13  C4  UNL     1      15.257   9.552  28.974  1.00  0.00     0.085 C 
BRANCH  13  14
HETATM   14  C5  UNL     1      15.692   9.500  30.422  1.00  0.00     0.205 C 
BRANCH  14  15
HETATM   15  O1  UNL     1      16.435   8.279  30.563  1.00  0.00    -0.266 OA
BRANCH  15  16
HETATM   16  N4  UNL     1      17.388   8.047  29.604  1.00  0.00    -0.095 N 
ATOM     17  H4  UNL     1      17.113   7.732  28.674  1.00  0.00     0.213 HD
BRANCH  16  18
HETATM   18  C6  UNL     1      18.621   8.230  29.884  1.00  0.00     0.731 A 
HETATM   19  N5  UNL     1      19.223   9.385  29.581  1.00  0.00    -0.020 N 
HETATM   20  C7  UNL     1      20.520   9.555  29.884  1.00  0.00     0.705 A 
ATOM     21  H5  UNL     1      18.700  10.132  29.124  1.00  0.00     0.203 HD
HETATM   22  N7  UNL     1      21.219   8.580  30.487  1.00  0.00    -0.022 N 
HETATM   23  C8  UNL     1      20.633   7.417  30.798  1.00  0.00     0.705 A 
ATOM     24  H7  UNL     1      22.204   8.726  30.709  1.00  0.00     0.203 HD
HETATM   25  N9  UNL     1      19.320   7.260  30.485  1.00  0.00    -0.020 N 
ATOM     26  H9  UNL     1      18.856   6.381  30.714  1.00  0.00     0.203 HD
BRANCH  20  27
HETATM   27  N6  UNL     1      21.132  10.681  29.595  1.00  0.00    -0.234 N 
ATOM     28  H62 UNL     1      20.579  11.536  29.538  1.00  0.00     0.174 HD
ATOM     29  H61 UNL     1      22.138  10.698  29.433  1.00  0.00     0.174 HD
ENDBRANCH  20  27
BRANCH  23  30
HETATM   30  N8  UNL     1      21.219   6.436  31.371  1.00  0.00    -0.234 N 
ATOM     31  H82 UNL     1      21.375   5.595  30.814  1.00  0.00     0.174 HD
ATOM     32  H81 UNL     1      21.540   6.436  32.339  1.00  0.00     0.174 HD
ENDBRANCH  23  30
ENDBRANCH  16  18
ENDBRANCH  15  16
ENDBRANCH  14  15
ENDBRANCH  13  14
ENDBRANCH   3  13
TORSDOF 10
ENDMDL
MODEL 4
REMARK VINA RESULT: -7.677726906      0.914      2.375
REMARK  10 active torsions:
REMARK  status: ('A' for Active; 'I' for Inactive)
REMARK    1  A    between atoms: C2_3  and  N2_4 
REMARK    2  A    between atoms: C2_3  and  C3_8 
REMARK    3  A    between atoms: C2_3  and  C4_13 
REMARK    4  A    between atoms: C3_8  and  N3_9 
REMARK    5  A    between atoms: C4_13  and  C5_14 
REMARK    6  A    between atoms: C5_14  and  O1_15 
REMARK    7  A    between atoms: O1_15  and  N4_16 
REMARK    8  A    between atoms: N4_16  and  C6_18 
REMARK    9  A    between atoms: C7_21  and  N6_22 
REMARK   10  A    between atoms: C8_27  and  N8_28 
ROOT
HETATM    1  N1  UNL     1      17.709  11.165  27.023  1.00  0.00    -0.195 NA
HETATM    2  C1  UNL     1      16.731  11.136  27.640  1.00  0.00     0.100 C 
HETATM    3  C2  UNL     1      15.477  11.096  28.423  1.00  0.00     0.235 C 
ENDROOT
BRANCH   3   4
HETATM    4  N2  UNL     1      14.346  11.484  27.590  1.00  0.00    -0.056 N 
ATOM      5  H23 UNL     1      14.087  12.461  27.732  1.00  0.00     0.276 HD
ATOM      6  H22 UNL     1      14.601  11.537  26.604  1.00  0.00     0.276 HD
ATOM      7  H21 UNL     1      13.557  10.856  27.746  1.00  0.00     0.276 HD
ENDBRANCH   3   4
BRANCH   3   8
HETATM    8  C3  UNL     1      15.580  12.078  29.548  1.00  0.00     0.283 C 
BRANCH   8   9
HETATM    9  N3  UNL     1      16.746  12.909  29.295  1.00  0.00    -0.076 N 
ATOM     10  H33 UNL     1      17.398  12.930  30.079  1.00  0.00     0.274 HD
ATOM     11  H32 UNL     1      17.380  12.507  28.605  1.00  0.00     0.274 HD
ATOM     12  H31 UNL     1      16.409  13.836  29.033  1.00  0.00     0.274 HD
ENDBRANCH   8   9
ENDBRANCH   3   8
BRANCH   3  13
HETATM   13  C4  UNL     1      15.219   9.682  28.878  1.00  0.00     0.085 C 
BRANCH  13  14
HETATM   14  C5  UNL     1      15.670   9.543  30.314  1.00  0.00     0.205 C 
BRANCH  14  15
HETATM   15  O1  UNL     1      16.407   8.312  30.376  1.00  0.00    -0.266 OA
BRANCH  15  16
HETATM   16  N4  UNL     1      17.397   8.164  29.438  1.00  0.00    -0.095 N 
ATOM     17  H4  UNL     1      17.159   7.954  28.470  1.00  0.00     0.213 HD
BRANCH  16  18
HETATM   18  C6  UNL     1      18.620   8.291  29.786  1.00  0.00     0.731 A 
HETATM   19  N5  UNL     1      19.255   7.297  30.415  1.00  0.00    -0.020 N 
HETATM   20  C7  UNL     1      20.540   7.452  30.772  1.00  0.00     0.705 A 
ATOM     21  H5  UNL     1      18.765   6.426  30.623  1.00  0.00     0.203 HD
HETATM   22  N7  UNL     1      21.196   8.593  30.504  1.00  0.00    -0.022 N 
HETATM   23  C8  UNL     1      20.577   9.599  29.873  1.00  0.00     0.705 A 
ATOM     24  H7  UNL     1      22.171   8.694  30.782  1.00  0.00     0.203 HD
HETATM   25  N9  UNL     1      19.276   9.427  29.519  1.00  0.00    -0.020 N 
ATOM     26  H9  UNL     1      18.787  10.182  29.038  1.00  0.00     0.203 HD
BRANCH  20  27
HETATM   27  N6  UNL     1      21.183   6.489  31.392  1.00  0.00    -0.234 N 
ATOM     28  H62 UNL     1      20.693   5.961  32.114  1.00  0.00     0.174 HD
ATOM     29  H61 UNL     1      22.151   6.274  31.155  1.00  0.00     0.174 HD
ENDBRANCH  20  27
BRANCH  23  30
HETATM   30  N8  UNL     1      21.120  10.717  29.577  1.00  0.00    -0.234 N 
ATOM     31  H82 UNL     1      21.846  11.064  30.205  1.00  0.00     0.174 HD
ATOM     32  H81 UNL     1      20.881  11.282  28.763  1.00  0.00     0.174 HD
ENDBRANCH  23  30
ENDBRANCH  16  18
ENDBRANCH  15  16
ENDBRANCH  14  15
ENDBRANCH  13  14
ENDBRANCH   3  13
TORSDOF 10
ENDMDL
MODEL 5
REMARK VINA RESULT: -7.411882665      1.274      2.032
REMARK  10 active torsions:
REMARK  status: ('A' for Active; 'I' for Inactive)
REMARK    1  A    between atoms: C2_3  and  N2_4 
REMARK    2  A    between atoms: C2_3  and  C3_8 
REMARK    3  A    between atoms: C2_3  and  C4_13 
REMARK    4  A    between atoms: C3_8  and  N3_9 
REMARK    5  A    between atoms: C4_13  and  C5_14 
REMARK    6  A    between atoms: C5_14  and  O1_15 
REMARK    7  A    between atoms: O1_15  and  N4_16 
REMARK    8  A    between atoms: N4_16  and  C6_18 
REMARK    9  A    between atoms: C7_21  and  N6_22 
REMARK   10  A    between atoms: C8_27  and  N8_28 
ROOT
HETATM    1  N1  UNL     1      18.406  12.227  29.044  1.00  0.00    -0.195 NA
HETATM    2  C1  UNL     1      17.418  11.659  28.847  1.00  0.00     0.100 C 
HETATM    3  C2  UNL     1      16.158  10.927  28.599  1.00  0.00     0.235 C 
ENDROOT
BRANCH   3   4
HETATM    4  N2  UNL     1      16.439   9.563  28.171  1.00  0.00    -0.056 N 
ATOM      5  H23 UNL     1      15.584   9.043  27.969  1.00  0.00     0.276 HD
ATOM      6  H22 UNL     1      16.856   9.535  27.241  1.00  0.00     0.276 HD
ATOM      7  H21 UNL     1      17.018   9.086  28.863  1.00  0.00     0.276 HD
ENDBRANCH   3   4
BRANCH   3   8
HETATM    8  C3  UNL     1      15.412  11.611  27.495  1.00  0.00     0.283 C 
BRANCH   8   9
HETATM    9  N3  UNL     1      14.090  11.007  27.423  1.00  0.00    -0.076 N 
ATOM     10  H33 UNL     1      13.713  10.766  28.339  1.00  0.00     0.274 HD
ATOM     11  H32 UNL     1      13.365  11.670  27.150  1.00  0.00     0.274 HD
ATOM     12  H31 UNL     1      14.155  10.206  26.795  1.00  0.00     0.274 HD
ENDBRANCH   8   9
ENDBRANCH   3   8
BRANCH   3  13
HETATM   13  C4  UNL     1      15.377  10.830  29.884  1.00  0.00     0.085 C 
BRANCH  13  14
HETATM   14  C5  UNL     1      15.490   9.419  30.417  1.00  0.00     0.205 C 
BRANCH  14  15
HETATM   15  O1  UNL     1      16.652   9.411  31.260  1.00  0.00    -0.266 OA
BRANCH  15  16
HETATM   16  N4  UNL     1      17.380   8.249  31.260  1.00  0.00    -0.095 N 
ATOM     17  H4  UNL     1      16.926   7.361  31.472  1.00  0.00     0.213 HD
BRANCH  16  18
HETATM   18  C6  UNL     1      18.629   8.286  30.993  1.00  0.00     0.731 A 
HETATM   19  N5  UNL     1      19.169   9.367  30.422  1.00  0.00    -0.020 N 
HETATM   20  C7  UNL     1      20.484   9.385  30.150  1.00  0.00     0.705 A 
ATOM     21  H5  UNL     1      18.587  10.173  30.194  1.00  0.00     0.203 HD
HETATM   22  N7  UNL     1      21.262   8.330  30.445  1.00  0.00    -0.022 N 
HETATM   23  C8  UNL     1      20.738   7.240  31.018  1.00  0.00     0.705 A 
ATOM     24  H7  UNL     1      22.259   8.361  30.231  1.00  0.00     0.203 HD
HETATM   25  N9  UNL     1      19.406   7.237  31.287  1.00  0.00    -0.020 N 
ATOM     26  H9  UNL     1      18.988   6.415  31.723  1.00  0.00     0.203 HD
BRANCH  20  27
HETATM   27  N6  UNL     1      21.037  10.436  29.588  1.00  0.00    -0.234 N 
ATOM     28  H62 UNL     1      21.036  11.318  30.098  1.00  0.00     0.174 HD
ATOM     29  H61 UNL     1      21.458  10.368  28.662  1.00  0.00     0.174 HD
ENDBRANCH  20  27
BRANCH  23  30
HETATM   30  N8  UNL     1      21.400   6.193  31.334  1.00  0.00    -0.234 N 
ATOM     31  H82 UNL     1      21.476   5.459  30.630  1.00  0.00     0.174 HD
ATOM     32  H81 UNL     1      21.855   6.043  32.234  1.00  0.00     0.174 HD
ENDBRANCH  23  30
ENDBRANCH  16  18
ENDBRANCH  15  16
ENDBRANCH  14  15
ENDBRANCH  13  14
ENDBRANCH   3  13
TORSDOF 10
ENDMDL
