MODEL 1
REMARK VINA RESULT: -6.657534592      0.000      0.000
REMARK  9 active torsions:
REMARK  status: ('A' for Active; 'I' for Inactive)
REMARK    1  A    between atoms: C1_4  and  N2_5 
REMARK    2  A    between atoms: N2_5  and  C2_7 
REMARK    3  A    between atoms: C3_9  and  C4_10 
REMARK    4  A    between atoms: C4_10  and  S1_11 
REMARK    5  A    between atoms: S1_11  and  C5_12 
REMARK    6  A    between atoms: C5_12  and  C6_13 
REMARK    7  A    between atoms: C6_13  and  N3_14 
REMARK    8  A    between atoms: C7_21  and  O2_22 
REMARK    9  A    between atoms: C8_24  and  O3_25 
ROOT
HETATM    1  C2  UNL     1      15.574  11.178  28.021  1.00  0.00     0.257 C 
HETATM    2  O1  UNL     1      16.608  10.276  28.167  1.00  0.00    -0.331 OA
HETATM    3  C3  UNL     1      17.751  10.990  28.487  1.00  0.00     0.335 C 
HETATM    4  N4  UNL     1      18.217  11.627  27.285  1.00  0.00    -0.019 N 
ATOM      5  H41 UNL     1      18.559  10.930  26.622  1.00  0.00     0.283 HD
ATOM      6  H42 UNL     1      19.083  12.136  27.465  1.00  0.00     0.283 HD
HETATM    7  C7  UNL     1      17.258  12.481  26.659  1.00  0.00     0.355 C 
HETATM    8  C8  UNL     1      15.867  12.354  27.157  1.00  0.00     0.223 C 
ENDROOT
BRANCH   3   9
HETATM    9  C4  UNL     1      18.835  10.032  28.943  1.00  0.00     0.135 C 
BRANCH   9  10
HETATM   10  S1  UNL     1      18.137   8.640  29.873  1.00  0.00    -0.163 SA
BRANCH  10  11
HETATM   11  C5  UNL     1      19.326   8.172  31.153  1.00  0.00     0.101 C 
BRANCH  11  12
HETATM   12  C6  UNL     1      20.669   7.789  30.540  1.00  0.00     0.239 C 
BRANCH  12  13
HETATM   13  N3  UNL     1      21.414   7.044  31.539  1.00  0.00    -0.079 N 
ATOM     14  H33 UNL     1      20.846   6.788  32.346  1.00  0.00     0.274 HD
ATOM     15  H32 UNL     1      21.649   6.100  31.235  1.00  0.00     0.274 HD
ATOM     16  H31 UNL     1      22.234   7.596  31.791  1.00  0.00     0.274 HD
ENDBRANCH  12  13
ENDBRANCH  11  12
ENDBRANCH  10  11
ENDBRANCH   9  10
ENDBRANCH   3   9
BRANCH   1  17
HETATM   17  N2  UNL     1      14.380  10.492  27.543  1.00  0.00    -0.358 N 
ATOM     18  H2  UNL     1      13.801  10.949  26.839  1.00  0.00     0.162 HD
BRANCH  17  19
HETATM   19  C1  UNL     1      13.991   9.211  28.021  1.00  0.00     0.170 C 
HETATM   20  N1  UNL     1      13.862   9.006  29.300  1.00  0.00    -0.395 N 
ATOM     21  H12 UNL     1      14.043   9.775  29.945  1.00  0.00     0.156 HD
ATOM     22  H11 UNL     1      13.584   8.087  29.644  1.00  0.00     0.156 HD
ENDBRANCH  17  19
ENDBRANCH   1  17
BRANCH   7  23
HETATM   23  O2  UNL     1      17.339  12.313  25.276  1.00  0.00    -0.368 OA
ATOM     24  H2  UNL     1      16.932  13.060  24.851  1.00  0.00     0.212 HD
ENDBRANCH   7  23
BRANCH   8  25
HETATM   25  O3  UNL     1      15.017  12.329  26.025  1.00  0.00    -0.387 OA
ATOM     26  H3  UNL     1      14.665  13.198  25.876  1.00  0.00     0.210 HD
ENDBRANCH   8  25
TORSDOF 9
ENDMDL
MODEL 2
REMARK VINA RESULT: -6.425124458      2.844      5.878
REMARK  9 active torsions:
REMARK  status: ('A' for Active; 'I' for Inactive)
REMARK    1  A    between atoms: C1_4  and  N2_5 
REMARK    2  A    between atoms: N2_5  and  C2_7 
REMARK    3  A    between atoms: C3_9  and  C4_10 
REMARK    4  A    between atoms: C4_10  and  S1_11 
REMARK    5  A    between atoms: S1_11  and  C5_12 
REMARK    6  A    between atoms: C5_12  and  C6_13 
REMARK    7  A    between atoms: C6_13  and  N3_14 
REMARK    8  A    between atoms: C7_21  and  O2_22 
REMARK    9  A    between atoms: C8_24  and  O3_25 
ROOT
HETATM    1  C2  UNL     1      19.199   8.668  30.260  1.00  0.00     0.257 C 
HETATM    2  O1  UNL     1      18.182   9.527  30.622  1.00  0.00    -0.331 OA
HETATM    3  C3  UNL     1      17.711  10.135  29.471  1.00  0.00     0.335 C 
HETATM    4  N4  UNL     1      18.673  11.130  29.080  1.00  0.00    -0.019 N 
ATOM      5  H41 UNL     1      18.689  11.895  29.755  1.00  0.00     0.283 HD
ATOM      6  H42 UNL     1      18.350  11.633  28.253  1.00  0.00     0.283 HD
HETATM    7  C7  UNL     1      19.993  10.623  28.869  1.00  0.00     0.355 C 
HETATM    8  C8  UNL     1      20.236   9.246  29.363  1.00  0.00     0.223 C 
ENDROOT
BRANCH   3   9
HETATM    9  C4  UNL     1      16.411  10.857  29.774  1.00  0.00     0.135 C 
BRANCH   9  10
HETATM   10  S1  UNL     1      15.797  11.747  28.318  1.00  0.00    -0.163 SA
BRANCH  10  11
HETATM   11  C5  UNL     1      14.424  10.798  27.622  1.00  0.00     0.101 C 
BRANCH  11  12
HETATM   12  C6  UNL     1      14.540   9.321  27.984  1.00  0.00     0.239 C 
BRANCH  12  13
HETATM   13  N3  UNL     1      13.653   9.071  29.106  1.00  0.00    -0.079 N 
ATOM     14  H33 UNL     1      13.352   9.926  29.571  1.00  0.00     0.274 HD
ATOM     15  H32 UNL     1      12.731   8.744  28.817  1.00  0.00     0.274 HD
ATOM     16  H31 UNL     1      14.125   8.422  29.736  1.00  0.00     0.274 HD
ENDBRANCH  12  13
ENDBRANCH  11  12
ENDBRANCH  10  11
ENDBRANCH   9  10
ENDBRANCH   3   9
BRANCH   1  17
HETATM   17  N2  UNL     1      19.825   8.109  31.452  1.00  0.00    -0.358 N 
ATOM     18  H2  UNL     1      19.827   8.661  32.310  1.00  0.00     0.162 HD
BRANCH  17  19
HETATM   19  C1  UNL     1      20.433   6.824  31.464  1.00  0.00     0.170 C 
HETATM   20  N1  UNL     1      21.721   6.716  31.619  1.00  0.00    -0.395 N 
ATOM     21  H12 UNL     1      22.279   7.563  31.731  1.00  0.00     0.156 HD
ATOM     22  H11 UNL     1      22.158   5.794  31.628  1.00  0.00     0.156 HD
ENDBRANCH  17  19
ENDBRANCH   1  17
BRANCH   7  23
HETATM   23  O2  UNL     1      20.914  11.536  29.384  1.00  0.00    -0.368 OA
ATOM     24  H2  UNL     1      20.642  12.415  29.146  1.00  0.00     0.212 HD
ENDBRANCH   7  23
BRANCH   8  25
HETATM   25  O3  UNL     1      21.484   9.254  30.030  1.00  0.00    -0.387 OA
ATOM     26  H3  UNL     1      21.697   8.372  30.312  1.00  0.00     0.210 HD
ENDBRANCH   8  25
TORSDOF 9
ENDMDL
MODEL 3
REMARK VINA RESULT: -6.405730907      2.789      5.470
REMARK  9 active torsions:
REMARK  status: ('A' for Active; 'I' for Inactive)
REMARK    1  A    between atoms: C1_4  and  N2_5 
REMARK    2  A    between atoms: N2_5  and  C2_7 
REMARK    3  A    between atoms: C3_9  and  C4_10 
REMARK    4  A    between atoms: C4_10  and  S1_11 
REMARK    5  A    between atoms: S1_11  and  C5_12 
REMARK    6  A    between atoms: C5_12  and  C6_13 
REMARK    7  A    between atoms: C6_13  and  N3_14 
REMARK    8  A    between atoms: C7_21  and  O2_22 
REMARK    9  A    between atoms: C8_24  and  O3_25 
ROOT
HETATM    1  C2  UNL     1      18.570   9.135  28.216  1.00  0.00     0.257 C 
HETATM    2  O1  UNL     1      17.673  10.145  27.941  1.00  0.00    -0.331 OA
HETATM    3  C3  UNL     1      17.654  11.002  29.029  1.00  0.00     0.335 C 
HETATM    4  N4  UNL     1      16.907  10.359  30.076  1.00  0.00    -0.019 N 
ATOM      5  H41 UNL     1      15.921  10.290  29.820  1.00  0.00     0.283 HD
ATOM      6  H42 UNL     1      16.833  10.972  30.888  1.00  0.00     0.283 HD
HETATM    7  C7  UNL     1      17.412   9.080  30.462  1.00  0.00     0.355 C 
HETATM    8  C8  UNL     1      18.419   8.488  29.547  1.00  0.00     0.223 C 
ENDROOT
BRANCH   3   9
HETATM    9  C4  UNL     1      16.914  12.274  28.659  1.00  0.00     0.135 C 
BRANCH   9  10
HETATM   10  S1  UNL     1      15.827  12.013  27.230  1.00  0.00    -0.163 SA
BRANCH  10  11
HETATM   11  C5  UNL     1      14.289  11.273  27.827  1.00  0.00     0.101 C 
BRANCH  11  12
HETATM   12  C6  UNL     1      14.341   9.752  27.737  1.00  0.00     0.239 C 
BRANCH  12  13
HETATM   13  N3  UNL     1      13.868   9.218  29.002  1.00  0.00    -0.079 N 
ATOM     14  H33 UNL     1      14.311   9.659  29.808  1.00  0.00     0.274 HD
ATOM     15  H32 UNL     1      12.907   9.489  29.212  1.00  0.00     0.274 HD
ATOM     16  H31 UNL     1      14.000   8.207  28.981  1.00  0.00     0.274 HD
ENDBRANCH  12  13
ENDBRANCH  11  12
ENDBRANCH  10  11
ENDBRANCH   9  10
ENDBRANCH   3   9
BRANCH   1  17
HETATM   17  N2  UNL     1      18.522   8.127  27.163  1.00  0.00    -0.358 N 
ATOM     18  H2  UNL     1      17.933   7.306  27.296  1.00  0.00     0.162 HD
BRANCH  17  19
HETATM   19  C1  UNL     1      19.266   8.246  25.958  1.00  0.00     0.170 C 
HETATM   20  N1  UNL     1      19.381   7.223  25.161  1.00  0.00    -0.395 N 
ATOM     21  H12 UNL     1      18.932   6.344  25.416  1.00  0.00     0.156 HD
ATOM     22  H11 UNL     1      19.915   7.308  24.296  1.00  0.00     0.156 HD
ENDBRANCH  17  19
ENDBRANCH   1  17
BRANCH   7  23
HETATM   23  O2  UNL     1      16.337   8.219  30.688  1.00  0.00    -0.368 OA
ATOM     24  H2  UNL     1      16.670   7.338  30.814  1.00  0.00     0.212 HD
ENDBRANCH   7  23
BRANCH   8  25
HETATM   25  O3  UNL     1      18.076   7.125  29.372  1.00  0.00    -0.387 OA
ATOM     26  H3  UNL     1      18.819   6.657  29.009  1.00  0.00     0.210 HD
ENDBRANCH   8  25
TORSDOF 9
ENDMDL
MODEL 4
REMARK VINA RESULT: -6.324013874      2.708      5.144
REMARK  9 active torsions:
REMARK  status: ('A' for Active; 'I' for Inactive)
REMARK    1  A    between atoms: C1_4  and  N2_5 
REMARK    2  A    between atoms: N2_5  and  C2_7 
REMARK    3  A    between atoms: C3_9  and  C4_10 
REMARK    4  A    between atoms: C4_10  and  S1_11 
REMARK    5  A    between atoms: S1_11  and  C5_12 
REMARK    6  A    between atoms: C5_12  and  C6_13 
REMARK    7  A    between atoms: C6_13  and  N3_14 
REMARK    8  A    between atoms: C7_21  and  O2_22 
REMARK    9  A    between atoms: C8_24  and  O3_25 
ROOT
HETATM    1  C2  UNL     1      18.445   8.741  29.493  1.00  0.00     0.257 C 
HETATM    2  O1  UNL     1      17.782   9.895  29.129  1.00  0.00    -0.331 OA
HETATM    3  C3  UNL     1      18.470  10.463  28.071  1.00  0.00     0.335 C 
HETATM    4  N4  UNL     1      19.656  11.080  28.603  1.00  0.00    -0.019 N 
ATOM      5  H41 UNL     1      19.410  11.886  29.177  1.00  0.00     0.283 HD
ATOM      6  H42 UNL     1      20.178  11.546  27.861  1.00  0.00     0.283 HD
HETATM    7  C7  UNL     1      20.508  10.192  29.329  1.00  0.00     0.355 C 
HETATM    8  C8  UNL     1      19.915   8.877  29.675  1.00  0.00     0.223 C 
ENDROOT
BRANCH   3   9
HETATM    9  C4  UNL     1      17.628  11.561  27.449  1.00  0.00     0.135 C 
BRANCH   9  10
HETATM   10  S1  UNL     1      16.131  11.875  28.424  1.00  0.00    -0.163 SA
BRANCH  10  11
HETATM   11  C5  UNL     1      14.753  11.024  27.619  1.00  0.00     0.101 C 
BRANCH  11  12
HETATM   12  C6  UNL     1      14.769   9.533  27.937  1.00  0.00     0.239 C 
BRANCH  12  13
HETATM   13  N3  UNL     1      13.765   9.287  28.956  1.00  0.00    -0.079 N 
ATOM     14  H33 UNL     1      14.157   8.891  29.810  1.00  0.00     0.274 HD
ATOM     15  H32 UNL     1      13.396  10.146  29.364  1.00  0.00     0.274 HD
ATOM     16  H31 UNL     1      13.040   8.700  28.543  1.00  0.00     0.274 HD
ENDBRANCH  12  13
ENDBRANCH  11  12
ENDBRANCH  10  11
ENDBRANCH   9  10
ENDBRANCH   3   9
BRANCH   1  17
HETATM   17  N2  UNL     1      17.843   8.180  30.696  1.00  0.00    -0.358 N 
ATOM     18  H2  UNL     1      18.395   7.543  31.270  1.00  0.00     0.162 HD
BRANCH  17  19
HETATM   19  C1  UNL     1      16.515   8.486  31.100  1.00  0.00     0.170 C 
HETATM   20  N1  UNL     1      16.208   9.699  31.460  1.00  0.00    -0.395 N 
ATOM     21  H12 UNL     1      16.932  10.417  31.447  1.00  0.00     0.156 HD
ATOM     22  H11 UNL     1      15.255   9.919  31.751  1.00  0.00     0.156 HD
ENDBRANCH  17  19
ENDBRANCH   1  17
BRANCH   7  23
HETATM   23  O2  UNL     1      21.002  10.858  30.452  1.00  0.00    -0.368 OA
ATOM     24  H2  UNL     1      20.352  10.816  31.144  1.00  0.00     0.212 HD
ENDBRANCH   7  23
BRANCH   8  25
HETATM   25  O3  UNL     1      20.250   8.609  31.024  1.00  0.00    -0.387 OA
ATOM     26  H3  UNL     1      20.514   7.700  31.109  1.00  0.00     0.210 HD
ENDBRANCH   8  25
TORSDOF 9
ENDMDL
MODEL 5
REMARK VINA RESULT: -6.267705656      1.416      1.551
REMARK  9 active torsions:
REMARK  status: ('A' for Active; 'I' for Inactive)
REMARK    1  A    between atoms: C1_4  and  N2_5 
REMARK    2  A    between atoms: N2_5  and  C2_7 
REMARK    3  A    between atoms: C3_9  and  C4_10 
REMARK    4  A    between atoms: C4_10  and  S1_11 
REMARK    5  A    between atoms: S1_11  and  C5_12 
REMARK    6  A    between atoms: C5_12  and  C6_13 
REMARK    7  A    between atoms: C6_13  and  N3_14 
REMARK    8  A    between atoms: C7_21  and  O2_22 
REMARK    9  A    between atoms: C8_24  and  O3_25 
ROOT
HETATM    1  C2  UNL     1      16.033  11.150  28.360  1.00  0.00     0.257 C 
HETATM    2  O1  UNL     1      16.832  10.047  28.143  1.00  0.00    -0.331 OA
HETATM    3  C3  UNL     1      18.151  10.463  28.187  1.00  0.00     0.335 C 
HETATM    4  N4  UNL     1      18.432  11.151  26.956  1.00  0.00    -0.019 N 
ATOM      5  H41 UNL     1      18.423  10.496  26.173  1.00  0.00     0.283 HD
ATOM      6  H42 UNL     1      19.408  11.444  26.927  1.00  0.00     0.283 HD
HETATM    7  C7  UNL     1      17.570  12.259  26.689  1.00  0.00     0.355 C 
HETATM    8  C8  UNL     1      16.361  12.349  27.542  1.00  0.00     0.223 C 
ENDROOT
BRANCH   3   9
HETATM    9  C4  UNL     1      19.063   9.253  28.249  1.00  0.00     0.135 C 
BRANCH   9  10
HETATM   10  S1  UNL     1      20.073   9.264  29.756  1.00  0.00    -0.163 SA
BRANCH  10  11
HETATM   11  C5  UNL     1      19.363   8.066  30.911  1.00  0.00     0.101 C 
BRANCH  11  12
HETATM   12  C6  UNL     1      18.120   8.630  31.590  1.00  0.00     0.239 C 
BRANCH  12  13
HETATM   13  N3  UNL     1      16.964   8.192  30.829  1.00  0.00    -0.079 N 
ATOM     14  H33 UNL     1      16.610   8.910  30.198  1.00  0.00     0.274 HD
ATOM     15  H32 UNL     1      17.196   7.494  30.122  1.00  0.00     0.274 HD
ATOM     16  H31 UNL     1      16.261   7.866  31.493  1.00  0.00     0.274 HD
ENDBRANCH  12  13
ENDBRANCH  11  12
ENDBRANCH  10  11
ENDBRANCH   9  10
ENDBRANCH   3   9
BRANCH   1  17
HETATM   17  N2  UNL     1      14.631  10.792  28.181  1.00  0.00    -0.358 N 
ATOM     18  H2  UNL     1      13.943  11.539  28.083  1.00  0.00     0.162 HD
BRANCH  17  19
HETATM   19  C1  UNL     1      14.186   9.443  28.139  1.00  0.00     0.170 C 
HETATM   20  N1  UNL     1      13.803   8.850  29.233  1.00  0.00    -0.395 N 
ATOM     21  H12 UNL     1      13.828   9.368  30.111  1.00  0.00     0.156 HD
ATOM     22  H11 UNL     1      13.484   7.882  29.203  1.00  0.00     0.156 HD
ENDBRANCH  17  19
ENDBRANCH   1  17
BRANCH   7  23
HETATM   23  O2  UNL     1      17.256  12.269  25.329  1.00  0.00    -0.368 OA
ATOM     24  H2  UNL     1      16.786  13.070  25.128  1.00  0.00     0.212 HD
ENDBRANCH   7  23
BRANCH   8  25
HETATM   25  O3  UNL     1      15.270  12.652  26.693  1.00  0.00    -0.387 OA
ATOM     26  H3  UNL     1      15.577  13.166  25.955  1.00  0.00     0.210 HD
ENDBRANCH   8  25
TORSDOF 9
ENDMDL
