MODEL 1
REMARK VINA RESULT: -10.246515011      0.000      0.000
REMARK  13 active torsions:
REMARK  status: ('A' for Active; 'I' for Inactive)
REMARK    1  A    between atoms: C2_2  and  C5_5 
REMARK       I    between atoms: C5_5  and  N1_7 
REMARK    2  A    between atoms: N2_10  and  C8_11 
REMARK    3  A    between atoms: N5_16  and  C9_17 
REMARK    4  A    between atoms: C9_17  and  C10_18 
REMARK    5  A    between atoms: C11_20  and  O3_21 
REMARK    6  A    between atoms: O3_21  and  C12_22 
REMARK    7  A    between atoms: C12_22  and  C13_23 
REMARK    8  A    between atoms: C13_23  and  N6_24 
REMARK    9  A    between atoms: C15_27  and  C16_28 
REMARK   10  A    between atoms: C18_39  and  O4_40 
REMARK   11  A    between atoms: C18_39  and  C19_42 
REMARK   12  A    between atoms: C19_42  and  O5_43 
REMARK   13  A    between atoms: C20_45  and  O6_46 
ROOT
HETATM    1  C10 UNL     1      26.925  44.709  58.741  1.00  0.00     0.178 C 
HETATM    2  O2  UNL     1      26.664  44.861  60.127  1.00  0.00    -0.348 OA
HETATM    3  C11 UNL     1      27.587  45.761  60.580  1.00  0.00     0.299 C 
HETATM    4  C18 UNL     1      28.837  45.588  59.743  1.00  0.00     0.156 C 
HETATM    5  C20 UNL     1      28.427  44.603  58.671  1.00  0.00     0.190 C 
ENDROOT
BRANCH   1   6
HETATM    6  C9  UNL     1      26.463  45.887  57.963  1.00  0.00     0.206 C 
BRANCH   6   7
HETATM    7  N5  UNL     1      25.670  45.492  56.826  1.00  0.00    -0.202 N 
HETATM    8  N4  UNL     1      26.078  44.556  55.955  1.00  0.00    -0.211 N 
HETATM    9  N3  UNL     1      25.137  44.412  55.044  1.00  0.00    -0.115 N 
ATOM     10  H4  UNL     1      26.961  44.046  55.993  1.00  0.00     0.210 HD
HETATM   11  C8  UNL     1      24.118  45.239  55.299  1.00  0.00     0.712 A 
ATOM     12  H3  UNL     1      25.180  43.764  54.257  1.00  0.00     0.207 HD
HETATM   13  N11 UNL     1      24.482  45.896  56.416  1.00  0.00    -0.113 N 
ATOM     14  H11 UNL     1      23.919  46.607  56.881  1.00  0.00     0.207 HD
BRANCH  11  15
HETATM   15  N2  UNL     1      22.927  45.368  54.537  1.00  0.00    -0.212 N 
HETATM   16  C7  UNL     1      22.356  46.631  54.124  1.00  0.00     0.161 C 
HETATM   17  C6  UNL     1      20.891  46.689  54.492  1.00  0.00     0.146 C 
HETATM   18  N1  UNL     1      20.217  45.431  54.280  1.00  0.00    -0.348 N 
HETATM   19  C5  UNL     1      18.998  45.408  53.582  1.00  0.00     0.227 C 
HETATM   20  C22 UNL     1      20.842  44.247  54.802  1.00  0.00     0.146 C 
HETATM   21  O1  UNL     1      18.536  46.533  53.161  1.00  0.00    -0.273 OA
HETATM   22  C21 UNL     1      22.228  44.167  54.140  1.00  0.00     0.161 C 
BRANCH  19  23
HETATM   23  C2  UNL     1      18.184  44.207  53.282  1.00  0.00     0.030 C 
HETATM   24  C1  UNL     1      18.933  43.148  52.522  1.00  0.00     0.025 C 
HETATM   25  C3  UNL     1      17.600  43.682  54.584  1.00  0.00     0.025 C 
HETATM   26  C4  UNL     1      17.011  44.613  52.390  1.00  0.00     0.025 C 
ENDBRANCH  19  23
ENDBRANCH  11  15
ENDBRANCH   6   7
ENDBRANCH   1   6
BRANCH   5  27
HETATM   27  O6  UNL     1      28.866  43.317  58.990  1.00  0.00    -0.390 OA
ATOM     28  H6  UNL     1      29.103  42.826  58.212  1.00  0.00     0.210 HD
ENDBRANCH   5  27
BRANCH   3  29
HETATM   29  O3  UNL     1      27.954  45.589  61.902  1.00  0.00    -0.356 OA
BRANCH  29  30
HETATM   30  C12 UNL     1      27.853  46.713  62.677  1.00  0.00     0.192 C 
BRANCH  30  31
HETATM   31  C13 UNL     1      26.377  47.136  62.635  1.00  0.00     0.176 C 
BRANCH  31  32
HETATM   32  N6  UNL     1      26.096  48.234  63.482  1.00  0.00    -0.153 N 
HETATM   33  C14 UNL     1      25.783  48.157  64.801  1.00  0.00     0.235 A 
HETATM   34  F1  UNL     1      25.693  46.983  65.517  1.00  0.00    -0.183 F 
HETATM   35  C15 UNL     1      25.578  49.398  65.287  1.00  0.00     0.146 A 
HETATM   36  N9  UNL     1      25.770  50.255  64.239  1.00  0.00    -0.184 N 
HETATM   37  C17 UNL     1      26.083  49.526  63.159  1.00  0.00     0.681 A 
ATOM     38  H9  UNL     1      25.690  51.271  64.274  1.00  0.00     0.184 HD
HETATM   39  N10 UNL     1      26.325  50.073  61.991  1.00  0.00    -0.234 N 
ATOM     40 2H10 UNL     1      26.562  49.518  61.169  1.00  0.00     0.174 HD
ATOM     41 1H10 UNL     1      26.314  51.062  61.744  1.00  0.00     0.174 HD
BRANCH  35  42
HETATM   42  C16 UNL     1      25.224  49.791  66.642  1.00  0.00     0.142 C 
HETATM   43  N7  UNL     1      25.639  50.826  67.234  1.00  0.00    -0.386 N 
ATOM     44  H72 UNL     1      26.272  51.418  66.696  1.00  0.00     0.157 HD
ATOM     45  H71 UNL     1      25.391  51.103  68.185  1.00  0.00     0.157 HD
HETATM   46  N8  UNL     1      24.319  48.946  67.412  1.00  0.00    -0.081 NA
ENDBRANCH  35  42
ENDBRANCH  31  32
ENDBRANCH  30  31
ENDBRANCH  29  30
ENDBRANCH   3  29
BRANCH   4  47
HETATM   47  O4  UNL     1      29.230  46.807  59.249  1.00  0.00    -0.380 OA
ATOM     48  H4  UNL     1      28.629  47.082  58.567  1.00  0.00     0.211 HD
ENDBRANCH   4  47
BRANCH   4  49
HETATM   49  C19 UNL     1      29.960  44.989  60.552  1.00  0.00     0.210 C 
BRANCH  49  50
HETATM   50  O5  UNL     1      30.874  46.000  60.834  1.00  0.00    -0.398 OA
ATOM     51  H5  UNL     1      31.686  45.593  61.112  1.00  0.00     0.209 HD
ENDBRANCH  49  50
ENDBRANCH   4  49
TORSDOF 13
ENDMDL
MODEL 2
REMARK VINA RESULT: -10.220783658      1.139      1.568
REMARK  13 active torsions:
REMARK  status: ('A' for Active; 'I' for Inactive)
REMARK    1  A    between atoms: C2_2  and  C5_5 
REMARK       I    between atoms: C5_5  and  N1_7 
REMARK    2  A    between atoms: N2_10  and  C8_11 
REMARK    3  A    between atoms: N5_16  and  C9_17 
REMARK    4  A    between atoms: C9_17  and  C10_18 
REMARK    5  A    between atoms: C11_20  and  O3_21 
REMARK    6  A    between atoms: O3_21  and  C12_22 
REMARK    7  A    between atoms: C12_22  and  C13_23 
REMARK    8  A    between atoms: C13_23  and  N6_24 
REMARK    9  A    between atoms: C15_27  and  C16_28 
REMARK   10  A    between atoms: C18_39  and  O4_40 
REMARK   11  A    between atoms: C18_39  and  C19_42 
REMARK   12  A    between atoms: C19_42  and  O5_43 
REMARK   13  A    between atoms: C20_45  and  O6_46 
ROOT
HETATM    1  C10 UNL     1      26.663  44.956  59.230  1.00  0.00     0.178 C 
HETATM    2  O2  UNL     1      26.382  45.364  60.559  1.00  0.00    -0.348 OA
HETATM    3  C11 UNL     1      27.455  46.116  60.950  1.00  0.00     0.299 C 
HETATM    4  C18 UNL     1      28.674  45.569  60.238  1.00  0.00     0.156 C 
HETATM    5  C20 UNL     1      28.110  44.539  59.285  1.00  0.00     0.190 C 
ENDROOT
BRANCH   1   6
HETATM    6  C9  UNL     1      26.494  46.074  58.265  1.00  0.00     0.206 C 
BRANCH   6   7
HETATM    7  N5  UNL     1      25.723  45.669  57.117  1.00  0.00    -0.202 N 
HETATM    8  N4  UNL     1      26.143  44.719  56.268  1.00  0.00    -0.211 N 
HETATM    9  N3  UNL     1      25.220  44.569  55.339  1.00  0.00    -0.115 N 
ATOM     10  H4  UNL     1      27.021  44.203  56.331  1.00  0.00     0.210 HD
HETATM   11  C8  UNL     1      24.201  45.407  55.561  1.00  0.00     0.712 A 
ATOM     12  H3  UNL     1      25.275  43.910  54.561  1.00  0.00     0.207 HD
HETATM   13  N11 UNL     1      24.547  46.076  56.677  1.00  0.00    -0.113 N 
ATOM     14  H11 UNL     1      23.979  46.797  57.120  1.00  0.00     0.207 HD
BRANCH  11  15
HETATM   15  N2  UNL     1      23.028  45.534  54.773  1.00  0.00    -0.212 N 
HETATM   16  C7  UNL     1      22.552  46.780  54.214  1.00  0.00     0.161 C 
HETATM   17  C6  UNL     1      21.092  46.982  54.552  1.00  0.00     0.146 C 
HETATM   18  N1  UNL     1      20.332  45.759  54.470  1.00  0.00    -0.348 N 
HETATM   19  C5  UNL     1      19.118  45.744  53.762  1.00  0.00     0.227 C 
HETATM   20  C22 UNL     1      20.866  44.599  55.129  1.00  0.00     0.146 C 
HETATM   21  O1  UNL     1      18.742  46.845  53.213  1.00  0.00    -0.273 OA
HETATM   22  C21 UNL     1      22.248  44.348  54.500  1.00  0.00     0.161 C 
BRANCH  19  23
HETATM   23  C2  UNL     1      18.222  44.578  53.585  1.00  0.00     0.030 C 
HETATM   24  C1  UNL     1      18.889  43.403  52.924  1.00  0.00     0.025 C 
HETATM   25  C3  UNL     1      17.623  44.220  54.935  1.00  0.00     0.025 C 
HETATM   26  C4  UNL     1      17.067  44.975  52.666  1.00  0.00     0.025 C 
ENDBRANCH  19  23
ENDBRANCH  11  15
ENDBRANCH   6   7
ENDBRANCH   1   6
BRANCH   5  27
HETATM   27  O6  UNL     1      28.253  43.252  59.809  1.00  0.00    -0.390 OA
ATOM     28  H6  UNL     1      28.825  43.246  60.567  1.00  0.00     0.210 HD
ENDBRANCH   5  27
BRANCH   3  29
HETATM   29  O3  UNL     1      27.720  46.073  62.305  1.00  0.00    -0.356 OA
BRANCH  29  30
HETATM   30  C12 UNL     1      27.475  47.241  62.977  1.00  0.00     0.192 C 
BRANCH  30  31
HETATM   31  C13 UNL     1      26.127  47.054  63.689  1.00  0.00     0.176 C 
BRANCH  31  32
HETATM   32  N6  UNL     1      25.941  47.961  64.759  1.00  0.00    -0.153 N 
HETATM   33  C14 UNL     1      25.517  49.245  64.645  1.00  0.00     0.235 A 
HETATM   34  F1  UNL     1      25.202  49.863  63.454  1.00  0.00    -0.183 F 
HETATM   35  C15 UNL     1      25.457  49.809  65.868  1.00  0.00     0.146 A 
HETATM   36  N9  UNL     1      25.854  48.845  66.753  1.00  0.00    -0.184 N 
HETATM   37  C17 UNL     1      26.141  47.737  66.057  1.00  0.00     0.681 A 
ATOM     38  H9  UNL     1      25.919  48.951  67.766  1.00  0.00     0.184 HD
HETATM   39  N10 UNL     1      26.553  46.634  66.636  1.00  0.00    -0.234 N 
ATOM     40 2H10 UNL     1      26.771  45.790  66.106  1.00  0.00     0.174 HD
ATOM     41 1H10 UNL     1      26.706  46.462  67.630  1.00  0.00     0.174 HD
BRANCH  35  42
HETATM   42  C16 UNL     1      25.057  51.162  66.222  1.00  0.00     0.142 C 
HETATM   43  N7  UNL     1      24.215  51.864  65.594  1.00  0.00    -0.386 N 
ATOM     44  H72 UNL     1      23.797  51.421  64.776  1.00  0.00     0.157 HD
ATOM     45  H71 UNL     1      23.935  52.813  65.842  1.00  0.00     0.157 HD
HETATM   46  N8  UNL     1      25.655  51.796  67.392  1.00  0.00    -0.081 NA
ENDBRANCH  35  42
ENDBRANCH  31  32
ENDBRANCH  30  31
ENDBRANCH  29  30
ENDBRANCH   3  29
BRANCH   4  47
HETATM   47  O4  UNL     1      29.337  46.594  59.610  1.00  0.00    -0.380 OA
ATOM     48  H4  UNL     1      30.266  46.398  59.576  1.00  0.00     0.211 HD
ENDBRANCH   4  47
BRANCH   4  49
HETATM   49  C19 UNL     1      29.609  44.882  61.200  1.00  0.00     0.210 C 
BRANCH  49  50
HETATM   50  O5  UNL     1      30.794  44.603  60.524  1.00  0.00    -0.398 OA
ATOM     51  H5  UNL     1      30.778  43.688  60.269  1.00  0.00     0.209 HD
ENDBRANCH  49  50
ENDBRANCH   4  49
TORSDOF 13
ENDMDL
MODEL 3
REMARK VINA RESULT: -10.193119732      1.249      1.516
REMARK  13 active torsions:
REMARK  status: ('A' for Active; 'I' for Inactive)
REMARK    1  A    between atoms: C2_2  and  C5_5 
REMARK       I    between atoms: C5_5  and  N1_7 
REMARK    2  A    between atoms: N2_10  and  C8_11 
REMARK    3  A    between atoms: N5_16  and  C9_17 
REMARK    4  A    between atoms: C9_17  and  C10_18 
REMARK    5  A    between atoms: C11_20  and  O3_21 
REMARK    6  A    between atoms: O3_21  and  C12_22 
REMARK    7  A    between atoms: C12_22  and  C13_23 
REMARK    8  A    between atoms: C13_23  and  N6_24 
REMARK    9  A    between atoms: C15_27  and  C16_28 
REMARK   10  A    between atoms: C18_39  and  O4_40 
REMARK   11  A    between atoms: C18_39  and  C19_42 
REMARK   12  A    between atoms: C19_42  and  O5_43 
REMARK   13  A    between atoms: C20_45  and  O6_46 
ROOT
HETATM    1  C10 UNL     1      26.915  44.961  59.310  1.00  0.00     0.178 C 
HETATM    2  O2  UNL     1      26.563  45.380  60.619  1.00  0.00    -0.348 OA
HETATM    3  C11 UNL     1      27.596  46.167  61.045  1.00  0.00     0.299 C 
HETATM    4  C18 UNL     1      28.860  45.645  60.398  1.00  0.00     0.156 C 
HETATM    5  C20 UNL     1      28.369  44.586  59.436  1.00  0.00     0.190 C 
ENDROOT
BRANCH   1   6
HETATM    6  C9  UNL     1      26.759  46.059  58.322  1.00  0.00     0.206 C 
BRANCH   6   7
HETATM    7  N5  UNL     1      25.978  45.641  57.185  1.00  0.00    -0.202 N 
HETATM    8  N4  UNL     1      26.366  44.645  56.374  1.00  0.00    -0.211 N 
HETATM    9  N3  UNL     1      25.442  44.495  55.446  1.00  0.00    -0.115 N 
ATOM     10  H4  UNL     1      27.224  44.101  56.460  1.00  0.00     0.210 HD
HETATM   11  C8  UNL     1      24.453  45.376  55.633  1.00  0.00     0.712 A 
ATOM     12  H3  UNL     1      25.476  43.806  54.694  1.00  0.00     0.207 HD
HETATM   13  N11 UNL     1      24.819  46.073  56.724  1.00  0.00    -0.113 N 
ATOM     14  H11 UNL     1      24.276  46.830  57.138  1.00  0.00     0.207 HD
BRANCH  11  15
HETATM   15  N2  UNL     1      23.289  45.516  54.834  1.00  0.00    -0.212 N 
HETATM   16  C7  UNL     1      22.831  46.767  54.272  1.00  0.00     0.161 C 
HETATM   17  C6  UNL     1      21.371  46.986  54.597  1.00  0.00     0.146 C 
HETATM   18  N1  UNL     1      20.598  45.771  54.508  1.00  0.00    -0.348 N 
HETATM   19  C5  UNL     1      19.390  45.770  53.789  1.00  0.00     0.227 C 
HETATM   20  C22 UNL     1      21.114  44.605  55.171  1.00  0.00     0.146 C 
HETATM   21  O1  UNL     1      19.030  46.875  53.237  1.00  0.00    -0.273 OA
HETATM   22  C21 UNL     1      22.498  44.339  54.554  1.00  0.00     0.161 C 
BRANCH  19  23
HETATM   23  C2  UNL     1      18.483  44.613  53.604  1.00  0.00     0.030 C 
HETATM   24  C1  UNL     1      19.182  43.373  53.118  1.00  0.00     0.025 C 
HETATM   25  C3  UNL     1      17.725  44.381  54.901  1.00  0.00     0.025 C 
HETATM   26  C4  UNL     1      17.451  44.959  52.530  1.00  0.00     0.025 C 
ENDBRANCH  19  23
ENDBRANCH  11  15
ENDBRANCH   6   7
ENDBRANCH   1   6
BRANCH   5  27
HETATM   27  O6  UNL     1      28.524  43.311  59.986  1.00  0.00    -0.390 OA
ATOM     28  H6  UNL     1      28.873  42.698  59.351  1.00  0.00     0.210 HD
ENDBRANCH   5  27
BRANCH   3  29
HETATM   29  O3  UNL     1      27.801  46.151  62.412  1.00  0.00    -0.356 OA
BRANCH  29  30
HETATM   30  C12 UNL     1      27.162  47.147  63.101  1.00  0.00     0.192 C 
BRANCH  30  31
HETATM   31  C13 UNL     1      27.618  47.022  64.563  1.00  0.00     0.176 C 
BRANCH  31  32
HETATM   32  N6  UNL     1      26.845  47.810  65.448  1.00  0.00    -0.153 N 
HETATM   33  C14 UNL     1      25.525  47.639  65.714  1.00  0.00     0.235 A 
HETATM   34  F1  UNL     1      24.733  46.661  65.152  1.00  0.00    -0.183 F 
HETATM   35  C15 UNL     1      25.121  48.570  66.602  1.00  0.00     0.146 A 
HETATM   36  N9  UNL     1      26.222  49.328  66.888  1.00  0.00    -0.184 N 
HETATM   37  C17 UNL     1      27.252  48.848  66.177  1.00  0.00     0.681 A 
ATOM     38  H9  UNL     1      26.255  50.121  67.529  1.00  0.00     0.184 HD
HETATM   39  N10 UNL     1      28.452  49.375  66.239  1.00  0.00    -0.234 N 
ATOM     40 2H10 UNL     1      29.235  49.010  65.698  1.00  0.00     0.174 HD
ATOM     41 1H10 UNL     1      28.763  50.170  66.797  1.00  0.00     0.174 HD
BRANCH  35  42
HETATM   42  C16 UNL     1      23.796  48.764  67.170  1.00  0.00     0.142 C 
HETATM   43  N7  UNL     1      22.844  47.937  67.104  1.00  0.00    -0.386 N 
ATOM     44  H72 UNL     1      23.047  47.071  66.605  1.00  0.00     0.157 HD
ATOM     45  H71 UNL     1      21.914  48.073  67.501  1.00  0.00     0.157 HD
HETATM   46  N8  UNL     1      23.504  50.002  67.883  1.00  0.00    -0.081 NA
ENDBRANCH  35  42
ENDBRANCH  31  32
ENDBRANCH  30  31
ENDBRANCH  29  30
ENDBRANCH   3  29
BRANCH   4  47
HETATM   47  O4  UNL     1      29.522  46.680  59.784  1.00  0.00    -0.380 OA
ATOM     48  H4  UNL     1      30.394  46.761  60.152  1.00  0.00     0.211 HD
ENDBRANCH   4  47
BRANCH   4  49
HETATM   49  C19 UNL     1      29.770  44.999  61.411  1.00  0.00     0.210 C 
BRANCH  49  50
HETATM   50  O5  UNL     1      30.961  44.666  60.771  1.00  0.00    -0.398 OA
ATOM     51  H5  UNL     1      31.553  44.306  61.421  1.00  0.00     0.209 HD
ENDBRANCH  49  50
ENDBRANCH   4  49
TORSDOF 13
ENDMDL
MODEL 4
REMARK VINA RESULT: -10.093137649      1.286      1.854
REMARK  13 active torsions:
REMARK  status: ('A' for Active; 'I' for Inactive)
REMARK    1  A    between atoms: C2_2  and  C5_5 
REMARK       I    between atoms: C5_5  and  N1_7 
REMARK    2  A    between atoms: N2_10  and  C8_11 
REMARK    3  A    between atoms: N5_16  and  C9_17 
REMARK    4  A    between atoms: C9_17  and  C10_18 
REMARK    5  A    between atoms: C11_20  and  O3_21 
REMARK    6  A    between atoms: O3_21  and  C12_22 
REMARK    7  A    between atoms: C12_22  and  C13_23 
REMARK    8  A    between atoms: C13_23  and  N6_24 
REMARK    9  A    between atoms: C15_27  and  C16_28 
REMARK   10  A    between atoms: C18_39  and  O4_40 
REMARK   11  A    between atoms: C18_39  and  C19_42 
REMARK   12  A    between atoms: C19_42  and  O5_43 
REMARK   13  A    between atoms: C20_45  and  O6_46 
ROOT
HETATM    1  C10 UNL     1      26.943  44.586  58.464  1.00  0.00     0.178 C 
HETATM    2  O2  UNL     1      26.644  44.665  59.848  1.00  0.00    -0.348 OA
HETATM    3  C11 UNL     1      27.488  45.611  60.356  1.00  0.00     0.299 C 
HETATM    4  C18 UNL     1      28.764  45.564  59.543  1.00  0.00     0.156 C 
HETATM    5  C20 UNL     1      28.449  44.594  58.425  1.00  0.00     0.190 C 
ENDROOT
BRANCH   1   6
HETATM    6  C9  UNL     1      26.410  45.757  57.720  1.00  0.00     0.206 C 
BRANCH   6   7
HETATM    7  N5  UNL     1      25.577  45.348  56.618  1.00  0.00    -0.202 N 
HETATM    8  N4  UNL     1      26.017  44.535  55.647  1.00  0.00    -0.211 N 
HETATM    9  N3  UNL     1      25.026  44.340  54.800  1.00  0.00    -0.115 N 
ATOM     10  H4  UNL     1      26.954  44.136  55.577  1.00  0.00     0.210 HD
HETATM   11  C8  UNL     1      23.941  45.014  55.197  1.00  0.00     0.712 A 
ATOM     12  H3  UNL     1      25.078  43.759  53.962  1.00  0.00     0.207 HD
HETATM   13  N11 UNL     1      24.319  45.630  56.332  1.00  0.00    -0.113 N 
ATOM     14  H11 UNL     1      23.717  46.231  56.895  1.00  0.00     0.207 HD
BRANCH  11  15
HETATM   15  N2  UNL     1      22.684  45.048  54.540  1.00  0.00    -0.212 N 
HETATM   16  C7  UNL     1      22.195  44.009  53.661  1.00  0.00     0.161 C 
HETATM   17  C6  UNL     1      21.724  44.606  52.354  1.00  0.00     0.146 C 
HETATM   18  N1  UNL     1      21.025  45.855  52.537  1.00  0.00    -0.348 N 
HETATM   19  C5  UNL     1      19.787  46.055  51.904  1.00  0.00     0.227 C 
HETATM   20  C22 UNL     1      21.644  46.846  53.374  1.00  0.00     0.146 C 
HETATM   21  O1  UNL     1      19.332  45.094  51.179  1.00  0.00    -0.273 OA
HETATM   22  C21 UNL     1      21.824  46.190  54.753  1.00  0.00     0.161 C 
BRANCH  19  23
HETATM   23  C2  UNL     1      18.947  47.272  51.988  1.00  0.00     0.030 C 
HETATM   24  C1  UNL     1      18.580  47.654  53.396  1.00  0.00     0.025 C 
HETATM   25  C3  UNL     1      19.652  48.397  51.248  1.00  0.00     0.025 C 
HETATM   26  C4  UNL     1      17.624  47.013  51.267  1.00  0.00     0.025 C 
ENDBRANCH  19  23
ENDBRANCH  11  15
ENDBRANCH   6   7
ENDBRANCH   1   6
BRANCH   5  27
HETATM   27  O6  UNL     1      28.976  43.332  58.705  1.00  0.00    -0.390 OA
ATOM     28  H6  UNL     1      29.741  43.390  59.265  1.00  0.00     0.210 HD
ENDBRANCH   5  27
BRANCH   3  29
HETATM   29  O3  UNL     1      27.840  45.415  61.678  1.00  0.00    -0.356 OA
BRANCH  29  30
HETATM   30  C12 UNL     1      27.837  46.548  62.448  1.00  0.00     0.192 C 
BRANCH  30  31
HETATM   31  C13 UNL     1      26.411  47.113  62.381  1.00  0.00     0.176 C 
BRANCH  31  32
HETATM   32  N6  UNL     1      26.228  48.245  63.209  1.00  0.00    -0.153 N 
HETATM   33  C14 UNL     1      26.002  48.220  64.547  1.00  0.00     0.235 A 
HETATM   34  F1  UNL     1      25.915  47.072  65.305  1.00  0.00    -0.183 F 
HETATM   35  C15 UNL     1      25.877  49.482  65.006  1.00  0.00     0.146 A 
HETATM   36  N9  UNL     1      26.032  50.299  63.921  1.00  0.00    -0.184 N 
HETATM   37  C17 UNL     1      26.243  49.527  62.847  1.00  0.00     0.681 A 
ATOM     38  H9  UNL     1      25.994  51.319  63.928  1.00  0.00     0.184 HD
HETATM   39  N10 UNL     1      26.428  50.029  61.649  1.00  0.00    -0.234 N 
ATOM     40 2H10 UNL     1      26.589  49.441  60.831  1.00  0.00     0.174 HD
ATOM     41 1H10 UNL     1      26.439  51.011  61.372  1.00  0.00     0.174 HD
BRANCH  35  42
HETATM   42  C16 UNL     1      25.630  49.929  66.368  1.00  0.00     0.142 C 
HETATM   43  N7  UNL     1      24.930  49.317  67.223  1.00  0.00    -0.386 N 
ATOM     44  H72 UNL     1      24.517  48.440  66.907  1.00  0.00     0.157 HD
ATOM     45  H71 UNL     1      24.757  49.631  68.178  1.00  0.00     0.157 HD
HETATM   46  N8  UNL     1      26.221  51.183  66.821  1.00  0.00    -0.081 NA
ENDBRANCH  35  42
ENDBRANCH  31  32
ENDBRANCH  30  31
ENDBRANCH  29  30
ENDBRANCH   3  29
BRANCH   4  47
HETATM   47  O4  UNL     1      29.075  46.827  59.104  1.00  0.00    -0.380 OA
ATOM     48  H4  UNL     1      28.411  47.438  59.399  1.00  0.00     0.211 HD
ENDBRANCH   4  47
BRANCH   4  49
HETATM   49  C19 UNL     1      29.912  45.018  60.353  1.00  0.00     0.210 C 
BRANCH  49  50
HETATM   50  O5  UNL     1      30.693  46.092  60.770  1.00  0.00    -0.398 OA
ATOM     51  H5  UNL     1      31.605  45.865  60.625  1.00  0.00     0.209 HD
ENDBRANCH  49  50
ENDBRANCH   4  49
TORSDOF 13
ENDMDL
MODEL 5
REMARK VINA RESULT: -10.047491216      5.540     11.051
REMARK  13 active torsions:
REMARK  status: ('A' for Active; 'I' for Inactive)
REMARK    1  A    between atoms: C2_2  and  C5_5 
REMARK       I    between atoms: C5_5  and  N1_7 
REMARK    2  A    between atoms: N2_10  and  C8_11 
REMARK    3  A    between atoms: N5_16  and  C9_17 
REMARK    4  A    between atoms: C9_17  and  C10_18 
REMARK    5  A    between atoms: C11_20  and  O3_21 
REMARK    6  A    between atoms: O3_21  and  C12_22 
REMARK    7  A    between atoms: C12_22  and  C13_23 
REMARK    8  A    between atoms: C13_23  and  N6_24 
REMARK    9  A    between atoms: C15_27  and  C16_28 
REMARK   10  A    between atoms: C18_39  and  O4_40 
REMARK   11  A    between atoms: C18_39  and  C19_42 
REMARK   12  A    between atoms: C19_42  and  O5_43 
REMARK   13  A    between atoms: C20_45  and  O6_46 
ROOT
HETATM    1  C10 UNL     1      26.692  49.002  66.008  1.00  0.00     0.178 C 
HETATM    2  O2  UNL     1      26.943  49.698  64.798  1.00  0.00    -0.348 OA
HETATM    3  C11 UNL     1      26.455  48.898  63.803  1.00  0.00     0.299 C 
HETATM    4  C18 UNL     1      26.612  47.463  64.258  1.00  0.00     0.156 C 
HETATM    5  C20 UNL     1      27.087  47.583  65.689  1.00  0.00     0.190 C 
ENDROOT
BRANCH   1   6
HETATM    6  C9  UNL     1      25.256  49.056  66.385  1.00  0.00     0.206 C 
BRANCH   6   7
HETATM    7  N5  UNL     1      24.796  50.415  66.522  1.00  0.00    -0.202 N 
HETATM    8  N4  UNL     1      25.334  51.270  67.405  1.00  0.00    -0.211 N 
HETATM    9  N3  UNL     1      24.712  52.426  67.280  1.00  0.00    -0.115 N 
ATOM     10  H4  UNL     1      26.090  51.062  68.057  1.00  0.00     0.210 HD
HETATM   11  C8  UNL     1      23.774  52.344  66.331  1.00  0.00     0.712 A 
ATOM     12  H3  UNL     1      24.917  53.261  67.829  1.00  0.00     0.207 HD
HETATM   13  N11 UNL     1      23.854  51.079  65.879  1.00  0.00    -0.113 N 
ATOM     14  H11 UNL     1      23.268  50.687  65.142  1.00  0.00     0.207 HD
BRANCH  11  15
HETATM   15  N2  UNL     1      22.903  53.385  65.917  1.00  0.00    -0.212 N 
HETATM   16  C7  UNL     1      23.255  54.787  65.906  1.00  0.00     0.161 C 
HETATM   17  C6  UNL     1      22.198  55.600  66.620  1.00  0.00     0.146 C 
HETATM   18  N1  UNL     1      20.861  55.138  66.336  1.00  0.00    -0.348 N 
HETATM   19  C5  UNL     1      19.874  56.065  65.962  1.00  0.00     0.227 C 
HETATM   20  C22 UNL     1      20.607  53.728  66.454  1.00  0.00     0.146 C 
HETATM   21  O1  UNL     1      20.220  57.301  65.891  1.00  0.00    -0.273 OA
HETATM   22  C21 UNL     1      21.571  53.037  65.475  1.00  0.00     0.161 C 
BRANCH  19  23
HETATM   23  C2  UNL     1      18.461  55.756  65.640  1.00  0.00     0.030 C 
HETATM   24  C1  UNL     1      17.758  54.970  66.713  1.00  0.00     0.025 C 
HETATM   25  C3  UNL     1      17.745  57.056  65.311  1.00  0.00     0.025 C 
HETATM   26  C4  UNL     1      18.418  54.883  64.386  1.00  0.00     0.025 C 
ENDBRANCH  19  23
ENDBRANCH  11  15
ENDBRANCH   6   7
ENDBRANCH   1   6
BRANCH   5  27
HETATM   27  O6  UNL     1      28.470  47.406  65.766  1.00  0.00    -0.390 OA
ATOM     28  H6  UNL     1      28.937  48.197  65.525  1.00  0.00     0.210 HD
ENDBRANCH   5  27
BRANCH   3  29
HETATM   29  O3  UNL     1      27.118  49.018  62.596  1.00  0.00    -0.356 OA
BRANCH  29  30
HETATM   30  C12 UNL     1      26.316  49.316  61.526  1.00  0.00     0.192 C 
BRANCH  30  31
HETATM   31  C13 UNL     1      27.219  49.277  60.285  1.00  0.00     0.176 C 
BRANCH  31  32
HETATM   32  N6  UNL     1      27.318  47.984  59.719  1.00  0.00    -0.153 N 
HETATM   33  C14 UNL     1      28.397  47.163  59.803  1.00  0.00     0.235 A 
HETATM   34  F1  UNL     1      29.568  47.474  60.459  1.00  0.00    -0.183 F 
HETATM   35  C15 UNL     1      28.139  46.013  59.148  1.00  0.00     0.146 A 
HETATM   36  N9  UNL     1      26.871  46.133  58.652  1.00  0.00    -0.184 N 
HETATM   37  C17 UNL     1      26.396  47.333  59.011  1.00  0.00     0.681 A 
ATOM     38  H9  UNL     1      26.372  45.431  58.104  1.00  0.00     0.184 HD
HETATM   39  N10 UNL     1      25.194  47.740  58.678  1.00  0.00    -0.234 N 
ATOM     40 2H10 UNL     1      24.833  48.654  58.951  1.00  0.00     0.174 HD
ATOM     41 1H10 UNL     1      24.488  47.242  58.135  1.00  0.00     0.174 HD
BRANCH  35  42
HETATM   42  C16 UNL     1      29.002  44.855  58.979  1.00  0.00     0.142 C 
HETATM   43  N7  UNL     1      29.842  44.439  59.826  1.00  0.00    -0.386 N 
ATOM     44  H72 UNL     1      29.898  44.977  60.690  1.00  0.00     0.157 HD
ATOM     45  H71 UNL     1      30.447  43.627  59.708  1.00  0.00     0.157 HD
HETATM   46  N8  UNL     1      28.922  44.084  57.743  1.00  0.00    -0.081 NA
ENDBRANCH  35  42
ENDBRANCH  31  32
ENDBRANCH  30  31
ENDBRANCH  29  30
ENDBRANCH   3  29
BRANCH   4  47
HETATM   47  O4  UNL     1      25.412  46.808  64.130  1.00  0.00    -0.380 OA
ATOM     48  H4  UNL     1      24.736  47.292  64.589  1.00  0.00     0.211 HD
ENDBRANCH   4  47
BRANCH   4  49
HETATM   49  C19 UNL     1      27.664  46.743  63.454  1.00  0.00     0.210 C 
BRANCH  49  50
HETATM   50  O5  UNL     1      27.028  46.082  62.407  1.00  0.00    -0.398 OA
ATOM     51  H5  UNL     1      27.561  45.332  62.166  1.00  0.00     0.209 HD
ENDBRANCH  49  50
ENDBRANCH   4  49
TORSDOF 13
ENDMDL
