MODEL 1
REMARK VINA RESULT: -10.882962511      0.000      0.000
REMARK  13 active torsions:
REMARK  status: ('A' for Active; 'I' for Inactive)
REMARK    1  A    between atoms: C2_3  and  N2_4 
REMARK    2  A    between atoms: C3_9  and  S1_10 
REMARK    3  A    between atoms: S1_10  and  C4_13 
REMARK    4  A    between atoms: C4_13  and  N5_14 
REMARK    5  A    between atoms: N5_14  and  C5_17 
REMARK    6  A    between atoms: C5_17  and  C6_18 
REMARK    7  A    between atoms: C6_18  and  N6_19 
REMARK       I    between atoms: N6_19  and  C7_21 
REMARK    8  A    between atoms: C7_21  and  C8_23 
REMARK    9  A    between atoms: C12_30  and  N8_31 
REMARK   10  A    between atoms: C13_34  and  N9_35 
REMARK   11  A    between atoms: N9_35  and  C14_37 
REMARK   12  A    between atoms: C17_44  and  O4_45 
REMARK   13  A    between atoms: C18_47  and  O5_48 
ROOT
HETATM    1  N1  UNL     1      21.452  44.879  55.603  1.00  0.00    -0.195 NA
HETATM    2  C1  UNL     1      22.426  45.390  55.279  1.00  0.00     0.082 C 
HETATM    3  C2  UNL     1      23.674  46.037  54.878  1.00  0.00     0.294 C 
ENDROOT
BRANCH   3   4
HETATM    4  N2  UNL     1      24.762  45.429  55.645  1.00  0.00    -0.204 N 
HETATM    5  N3  UNL     1      25.648  44.596  55.166  1.00  0.00    -0.223 N 
HETATM    6  N4  UNL     1      26.485  44.253  56.153  1.00  0.00    -0.259 N 
ATOM      7  H3  UNL     1      25.694  44.264  54.204  1.00  0.00     0.210 HD
HETATM    8  C3  UNL     1      26.114  44.887  57.277  1.00  0.00     0.236 A 
ATOM      9  H4  UNL     1      27.276  43.615  56.065  1.00  0.00     0.191 HD
HETATM   10  N12 UNL     1      25.037  45.617  56.945  1.00  0.00    -0.256 N 
ATOM     11  H12 UNL     1      24.512  46.219  57.579  1.00  0.00     0.191 HD
BRANCH   8  12
HETATM   12  S1  UNL     1      26.923  44.749  58.818  1.00  0.00     0.234 S 
HETATM   13  O1  UNL     1      26.304  45.659  59.847  1.00  0.00    -0.218 OA
HETATM   14  O2  UNL     1      26.846  43.353  59.361  1.00  0.00    -0.218 OA
BRANCH  12  15
HETATM   15  C4  UNL     1      28.645  45.178  58.678  1.00  0.00     0.380 C 
BRANCH  15  16
HETATM   16  N5  UNL     1      28.930  46.174  59.675  1.00  0.00    -0.060 N 
ATOM     17  H52 UNL     1      28.137  46.300  60.305  1.00  0.00     0.278 HD
ATOM     18  H51 UNL     1      29.619  45.835  60.345  1.00  0.00     0.278 HD
BRANCH  16  19
HETATM   19  C5  UNL     1      29.341  47.435  59.101  1.00  0.00     0.253 C 
BRANCH  19  20
HETATM   20  C6  UNL     1      28.499  48.603  59.483  1.00  0.00     0.150 C 
BRANCH  20  21
HETATM   21  N6  UNL     1      28.275  48.684  60.939  1.00  0.00    -0.355 N 
HETATM   22  C7  UNL     1      26.988  48.983  61.388  1.00  0.00     0.257 C 
HETATM   23  O3  UNL     1      26.034  49.169  60.545  1.00  0.00    -0.267 OA
ATOM     24  H6  UNL     1      29.038  48.527  61.597  1.00  0.00     0.162 HD
BRANCH  22  25
HETATM   25  C8  UNL     1      26.594  49.106  62.768  1.00  0.00     0.097 A 
HETATM   26  C9  UNL     1      26.563  48.062  63.644  1.00  0.00     0.061 A 
HETATM   27 CL1  UNL     1      27.156  46.436  63.239  1.00  0.00    -0.082 Cl
HETATM   28  C10 UNL     1      26.096  48.295  64.935  1.00  0.00    -0.008 A 
HETATM   29  C11 UNL     1      25.674  49.528  65.338  1.00  0.00     0.044 A 
HETATM   30  C19 UNL     1      26.090  47.114  65.842  1.00  0.00     0.076 C 
HETATM   31  N7  UNL     1      25.705  50.552  64.482  1.00  0.00    -0.343 N 
HETATM   32  C13 UNL     1      25.198  49.624  66.735  1.00  0.00     0.166 C 
HETATM   33  C12 UNL     1      26.147  50.362  63.237  1.00  0.00     0.116 A 
ATOM     34  H7  UNL     1      25.391  51.476  64.778  1.00  0.00     0.167 HD
HETATM   35  C17 UNL     1      24.275  48.439  66.946  1.00  0.00     0.175 C 
HETATM   36  C18 UNL     1      25.174  47.224  67.007  1.00  0.00     0.153 C 
BRANCH  33  37
HETATM   37  N8  UNL     1      26.175  51.349  62.420  1.00  0.00    -0.385 N 
ATOM     38  H82 UNL     1      26.385  51.181  61.436  1.00  0.00     0.157 HD
ATOM     39  H81 UNL     1      25.984  52.279  62.792  1.00  0.00     0.157 HD
ENDBRANCH  33  37
BRANCH  32  40
HETATM   40  N9  UNL     1      24.624  50.860  67.125  1.00  0.00    -0.350 N 
ATOM     41  H9  UNL     1      25.015  51.400  67.896  1.00  0.00     0.163 HD
BRANCH  40  42
HETATM   42  C14 UNL     1      23.467  51.333  66.394  1.00  0.00     0.171 C 
HETATM   43  N10 UNL     1      22.356  50.722  66.235  1.00  0.00    -0.361 N 
HETATM   44  C15 UNL     1      21.389  51.428  65.465  1.00  0.00     0.142 C 
ATOM     45  H10 UNL     1      22.176  49.799  66.630  1.00  0.00     0.162 HD
HETATM   46  C16 UNL     1      21.996  52.795  65.333  1.00  0.00     0.142 C 
HETATM   47  N11 UNL     1      23.378  52.575  65.721  1.00  0.00    -0.361 N 
ATOM     48  H11 UNL     1      24.156  53.210  65.540  1.00  0.00     0.162 HD
ENDBRANCH  40  42
ENDBRANCH  32  40
BRANCH  35  49
HETATM   49  O4  UNL     1      23.608  48.520  68.157  1.00  0.00    -0.391 OA
ATOM     50  H4  UNL     1      24.206  48.679  68.877  1.00  0.00     0.210 HD
ENDBRANCH  35  49
BRANCH  36  51
HETATM   51  O5  UNL     1      24.421  46.095  67.270  1.00  0.00    -0.393 OA
ATOM     52  H5  UNL     1      24.689  45.713  68.097  1.00  0.00     0.210 HD
ENDBRANCH  36  51
ENDBRANCH  22  25
ENDBRANCH  20  21
ENDBRANCH  19  20
ENDBRANCH  16  19
ENDBRANCH  15  16
ENDBRANCH  12  15
ENDBRANCH   8  12
ENDBRANCH   3   4
TORSDOF 13
ENDMDL
MODEL 2
REMARK VINA RESULT: -10.606287531      1.653      2.182
REMARK  13 active torsions:
REMARK  status: ('A' for Active; 'I' for Inactive)
REMARK    1  A    between atoms: C2_3  and  N2_4 
REMARK    2  A    between atoms: C3_9  and  S1_10 
REMARK    3  A    between atoms: S1_10  and  C4_13 
REMARK    4  A    between atoms: C4_13  and  N5_14 
REMARK    5  A    between atoms: N5_14  and  C5_17 
REMARK    6  A    between atoms: C5_17  and  C6_18 
REMARK    7  A    between atoms: C6_18  and  N6_19 
REMARK       I    between atoms: N6_19  and  C7_21 
REMARK    8  A    between atoms: C7_21  and  C8_23 
REMARK    9  A    between atoms: C12_30  and  N8_31 
REMARK   10  A    between atoms: C13_34  and  N9_35 
REMARK   11  A    between atoms: N9_35  and  C14_37 
REMARK   12  A    between atoms: C17_44  and  O4_45 
REMARK   13  A    between atoms: C18_47  and  O5_48 
ROOT
HETATM    1  N1  UNL     1      23.963  44.060  54.069  1.00  0.00    -0.195 NA
HETATM    2  C1  UNL     1      23.977  44.954  54.787  1.00  0.00     0.082 C 
HETATM    3  C2  UNL     1      24.001  46.085  55.713  1.00  0.00     0.294 C 
ENDROOT
BRANCH   3   4
HETATM    4  N2  UNL     1      25.039  45.826  56.711  1.00  0.00    -0.204 N 
HETATM    5  N3  UNL     1      25.204  46.499  57.819  1.00  0.00    -0.223 N 
HETATM    6  N4  UNL     1      26.246  45.980  58.481  1.00  0.00    -0.259 N 
ATOM      7  H3  UNL     1      24.635  47.287  58.128  1.00  0.00     0.210 HD
HETATM    8  C3  UNL     1      26.745  44.956  57.768  1.00  0.00     0.236 A 
ATOM      9  H4  UNL     1      26.602  46.308  59.378  1.00  0.00     0.191 HD
HETATM   10  N12 UNL     1      25.982  44.873  56.667  1.00  0.00    -0.256 N 
ATOM     11  H12 UNL     1      26.100  44.193  55.916  1.00  0.00     0.191 HD
BRANCH   8  12
HETATM   12  S1  UNL     1      28.107  43.974  58.247  1.00  0.00     0.234 S 
HETATM   13  O1  UNL     1      27.742  43.041  59.372  1.00  0.00    -0.218 OA
HETATM   14  O2  UNL     1      28.604  43.126  57.115  1.00  0.00    -0.218 OA
BRANCH  12  15
HETATM   15  C4  UNL     1      29.463  44.986  58.799  1.00  0.00     0.380 C 
BRANCH  15  16
HETATM   16  N5  UNL     1      29.799  44.576  60.137  1.00  0.00    -0.060 N 
ATOM     17  H52 UNL     1      29.253  43.762  60.418  1.00  0.00     0.278 HD
ATOM     18  H51 UNL     1      30.732  44.167  60.171  1.00  0.00     0.278 HD
BRANCH  16  19
HETATM   19  C5  UNL     1      29.667  45.648  61.097  1.00  0.00     0.253 C 
BRANCH  19  20
HETATM   20  C6  UNL     1      29.082  46.906  60.556  1.00  0.00     0.150 C 
BRANCH  20  21
HETATM   21  N6  UNL     1      28.596  47.805  61.619  1.00  0.00    -0.355 N 
HETATM   22  C7  UNL     1      27.232  47.793  61.916  1.00  0.00     0.257 C 
HETATM   23  O3  UNL     1      26.437  47.007  61.279  1.00  0.00    -0.267 OA
ATOM     24  H6  UNL     1      29.237  48.418  62.123  1.00  0.00     0.162 HD
BRANCH  22  25
HETATM   25  C8  UNL     1      26.589  48.605  62.916  1.00  0.00     0.097 A 
HETATM   26  C9  UNL     1      26.441  48.229  64.219  1.00  0.00     0.061 A 
HETATM   27 CL1  UNL     1      27.162  46.751  64.892  1.00  0.00    -0.082 Cl
HETATM   28  C10 UNL     1      25.738  49.074  65.075  1.00  0.00    -0.008 A 
HETATM   29  C11 UNL     1      25.201  50.252  64.646  1.00  0.00     0.044 A 
HETATM   30  C19 UNL     1      25.615  48.606  66.483  1.00  0.00     0.076 C 
HETATM   31  N7  UNL     1      25.347  50.622  63.372  1.00  0.00    -0.343 N 
HETATM   32  C13 UNL     1      24.476  51.041  65.666  1.00  0.00     0.166 C 
HETATM   33  C12 UNL     1      26.015  49.836  62.525  1.00  0.00     0.116 A 
ATOM     34  H7  UNL     1      24.948  51.503  63.046  1.00  0.00     0.167 HD
HETATM   35  C17 UNL     1      23.578  50.060  66.394  1.00  0.00     0.175 C 
HETATM   36  C18 UNL     1      24.499  49.218  67.251  1.00  0.00     0.153 C 
BRANCH  33  37
HETATM   37  N8  UNL     1      26.152  50.197  61.303  1.00  0.00    -0.385 N 
ATOM     38  H82 UNL     1      26.907  49.801  60.744  1.00  0.00     0.157 HD
ATOM     39  H81 UNL     1      25.490  50.878  60.932  1.00  0.00     0.157 HD
ENDBRANCH  33  37
BRANCH  32  40
HETATM   40  N9  UNL     1      23.793  52.194  65.205  1.00  0.00    -0.350 N 
ATOM     41  H9  UNL     1      23.369  52.218  64.279  1.00  0.00     0.163 HD
BRANCH  40  42
HETATM   42  C14 UNL     1      23.715  53.337  66.091  1.00  0.00     0.171 C 
HETATM   43  N10 UNL     1      23.082  54.427  65.884  1.00  0.00    -0.361 N 
HETATM   44  C15 UNL     1      23.180  55.385  66.932  1.00  0.00     0.142 C 
ATOM     45  H10 UNL     1      22.548  54.598  65.032  1.00  0.00     0.162 HD
HETATM   46  C16 UNL     1      23.826  54.606  68.041  1.00  0.00     0.142 C 
HETATM   47  N11 UNL     1      24.342  53.433  67.357  1.00  0.00    -0.361 N 
ATOM     48  H11 UNL     1      25.039  52.787  67.726  1.00  0.00     0.162 HD
ENDBRANCH  40  42
ENDBRANCH  32  40
BRANCH  35  49
HETATM   49  O4  UNL     1      22.700  50.707  67.247  1.00  0.00    -0.391 OA
ATOM     50  H4  UNL     1      22.636  50.266  68.086  1.00  0.00     0.210 HD
ENDBRANCH  35  49
BRANCH  36  51
HETATM   51  O5  UNL     1      23.756  48.335  68.011  1.00  0.00    -0.393 OA
ATOM     52  H5  UNL     1      24.333  47.822  68.566  1.00  0.00     0.210 HD
ENDBRANCH  36  51
ENDBRANCH  22  25
ENDBRANCH  20  21
ENDBRANCH  19  20
ENDBRANCH  16  19
ENDBRANCH  15  16
ENDBRANCH  12  15
ENDBRANCH   8  12
ENDBRANCH   3   4
TORSDOF 13
ENDMDL
MODEL 3
REMARK VINA RESULT: -10.466101797      1.026      1.386
REMARK  13 active torsions:
REMARK  status: ('A' for Active; 'I' for Inactive)
REMARK    1  A    between atoms: C2_3  and  N2_4 
REMARK    2  A    between atoms: C3_9  and  S1_10 
REMARK    3  A    between atoms: S1_10  and  C4_13 
REMARK    4  A    between atoms: C4_13  and  N5_14 
REMARK    5  A    between atoms: N5_14  and  C5_17 
REMARK    6  A    between atoms: C5_17  and  C6_18 
REMARK    7  A    between atoms: C6_18  and  N6_19 
REMARK       I    between atoms: N6_19  and  C7_21 
REMARK    8  A    between atoms: C7_21  and  C8_23 
REMARK    9  A    between atoms: C12_30  and  N8_31 
REMARK   10  A    between atoms: C13_34  and  N9_35 
REMARK   11  A    between atoms: N9_35  and  C14_37 
REMARK   12  A    between atoms: C17_44  and  O4_45 
REMARK   13  A    between atoms: C18_47  and  O5_48 
ROOT
HETATM    1  N1  UNL     1      21.317  44.843  55.521  1.00  0.00    -0.195 NA
HETATM    2  C1  UNL     1      22.293  45.291  55.122  1.00  0.00     0.082 C 
HETATM    3  C2  UNL     1      23.545  45.861  54.626  1.00  0.00     0.294 C 
ENDROOT
BRANCH   3   4
HETATM    4  N2  UNL     1      24.634  45.337  55.450  1.00  0.00    -0.204 N 
HETATM    5  N3  UNL     1      25.595  44.560  55.024  1.00  0.00    -0.223 N 
HETATM    6  N4  UNL     1      26.407  44.285  56.053  1.00  0.00    -0.259 N 
ATOM      7  H3  UNL     1      25.708  44.220  54.070  1.00  0.00     0.210 HD
HETATM    8  C3  UNL     1      25.943  44.906  57.149  1.00  0.00     0.236 A 
ATOM      9  H4  UNL     1      27.242  43.700  56.010  1.00  0.00     0.191 HD
HETATM   10  N12 UNL     1      24.837  45.557  56.758  1.00  0.00    -0.256 N 
ATOM     11  H12 UNL     1      24.244  46.130  57.359  1.00  0.00     0.191 HD
BRANCH   8  12
HETATM   12  S1  UNL     1      26.687  44.840  58.728  1.00  0.00     0.234 S 
HETATM   13  O1  UNL     1      26.064  45.834  59.672  1.00  0.00    -0.218 OA
HETATM   14  O2  UNL     1      26.540  43.485  59.354  1.00  0.00    -0.218 OA
BRANCH  12  15
HETATM   15  C4  UNL     1      28.428  45.201  58.630  1.00  0.00     0.380 C 
BRANCH  15  16
HETATM   16  N5  UNL     1      28.776  45.993  59.779  1.00  0.00    -0.060 N 
ATOM     17  H52 UNL     1      27.943  46.264  60.303  1.00  0.00     0.278 HD
ATOM     18  H51 UNL     1      29.238  45.425  60.489  1.00  0.00     0.278 HD
BRANCH  16  19
HETATM   19  C5  UNL     1      29.574  47.149  59.439  1.00  0.00     0.253 C 
BRANCH  19  20
HETATM   20  C6  UNL     1      28.916  48.461  59.689  1.00  0.00     0.150 C 
BRANCH  20  21
HETATM   21  N6  UNL     1      28.485  48.618  61.091  1.00  0.00    -0.355 N 
HETATM   22  C7  UNL     1      27.132  48.858  61.337  1.00  0.00     0.257 C 
HETATM   23  O3  UNL     1      26.297  48.927  60.362  1.00  0.00    -0.267 OA
ATOM     24  H6  UNL     1      29.155  48.553  61.857  1.00  0.00     0.162 HD
BRANCH  22  25
HETATM   25  C8  UNL     1      26.541  49.039  62.638  1.00  0.00     0.097 A 
HETATM   26  C9  UNL     1      26.631  48.126  63.647  1.00  0.00     0.061 A 
HETATM   27 CL1  UNL     1      27.622  46.654  63.541  1.00  0.00    -0.082 Cl
HETATM   28  C10 UNL     1      25.956  48.387  64.837  1.00  0.00    -0.008 A 
HETATM   29  C11 UNL     1      25.218  49.520  65.015  1.00  0.00     0.044 A 
HETATM   30  C19 UNL     1      26.096  47.351  65.898  1.00  0.00     0.076 C 
HETATM   31  N7  UNL     1      25.131  50.416  64.030  1.00  0.00    -0.343 N 
HETATM   32  C13 UNL     1      24.552  49.658  66.329  1.00  0.00     0.166 C 
HETATM   33  C12 UNL     1      25.766  50.197  62.876  1.00  0.00     0.116 A 
ATOM     34  H7  UNL     1      24.582  51.266  64.157  1.00  0.00     0.167 HD
HETATM   35  C17 UNL     1      23.900  48.319  66.611  1.00  0.00     0.175 C 
HETATM   36  C18 UNL     1      25.033  47.370  66.936  1.00  0.00     0.153 C 
BRANCH  33  37
HETATM   37  N8  UNL     1      25.679  51.061  61.934  1.00  0.00    -0.385 N 
ATOM     38  H82 UNL     1      25.882  50.781  60.975  1.00  0.00     0.157 HD
ATOM     39  H81 UNL     1      25.407  52.012  62.185  1.00  0.00     0.157 HD
ENDBRANCH  33  37
BRANCH  32  40
HETATM   40  N9  UNL     1      23.669  50.756  66.478  1.00  0.00    -0.350 N 
ATOM     41  H9  UNL     1      22.784  50.790  65.973  1.00  0.00     0.163 HD
BRANCH  40  42
HETATM   42  C14 UNL     1      24.062  51.828  67.368  1.00  0.00     0.171 C 
HETATM   43  N10 UNL     1      25.074  52.597  67.245  1.00  0.00    -0.361 N 
HETATM   44  C15 UNL     1      25.217  53.569  68.275  1.00  0.00     0.142 C 
ATOM     45  H10 UNL     1      25.731  52.520  66.469  1.00  0.00     0.162 HD
HETATM   46  C16 UNL     1      23.917  53.466  69.019  1.00  0.00     0.142 C 
HETATM   47  N11 UNL     1      23.371  52.206  68.545  1.00  0.00    -0.361 N 
ATOM     48  H11 UNL     1      22.617  51.680  68.987  1.00  0.00     0.162 HD
ENDBRANCH  40  42
ENDBRANCH  32  40
BRANCH  35  49
HETATM   49  O4  UNL     1      23.078  48.375  67.724  1.00  0.00    -0.391 OA
ATOM     50  H4  UNL     1      23.002  47.528  68.147  1.00  0.00     0.210 HD
ENDBRANCH  35  49
BRANCH  36  51
HETATM   51  O5  UNL     1      24.525  46.131  67.278  1.00  0.00    -0.393 OA
ATOM     52  H5  UNL     1      24.220  46.145  68.178  1.00  0.00     0.210 HD
ENDBRANCH  36  51
ENDBRANCH  22  25
ENDBRANCH  20  21
ENDBRANCH  19  20
ENDBRANCH  16  19
ENDBRANCH  15  16
ENDBRANCH  12  15
ENDBRANCH   8  12
ENDBRANCH   3   4
TORSDOF 13
ENDMDL
MODEL 4
REMARK VINA RESULT: -10.329884814      3.579      9.577
REMARK  13 active torsions:
REMARK  status: ('A' for Active; 'I' for Inactive)
REMARK    1  A    between atoms: C2_3  and  N2_4 
REMARK    2  A    between atoms: C3_9  and  S1_10 
REMARK    3  A    between atoms: S1_10  and  C4_13 
REMARK    4  A    between atoms: C4_13  and  N5_14 
REMARK    5  A    between atoms: N5_14  and  C5_17 
REMARK    6  A    between atoms: C5_17  and  C6_18 
REMARK    7  A    between atoms: C6_18  and  N6_19 
REMARK       I    between atoms: N6_19  and  C7_21 
REMARK    8  A    between atoms: C7_21  and  C8_23 
REMARK    9  A    between atoms: C12_30  and  N8_31 
REMARK   10  A    between atoms: C13_34  and  N9_35 
REMARK   11  A    between atoms: N9_35  and  C14_37 
REMARK   12  A    between atoms: C17_44  and  O4_45 
REMARK   13  A    between atoms: C18_47  and  O5_48 
ROOT
HETATM    1  N1  UNL     1      18.146  52.291  61.013  1.00  0.00    -0.195 NA
HETATM    2  C1  UNL     1      17.804  52.442  62.096  1.00  0.00     0.082 C 
HETATM    3  C2  UNL     1      17.377  52.625  63.483  1.00  0.00     0.294 C 
ENDROOT
BRANCH   3   4
HETATM    4  N2  UNL     1      18.532  52.373  64.345  1.00  0.00    -0.204 N 
HETATM    5  N3  UNL     1      18.507  51.690  65.459  1.00  0.00    -0.223 N 
HETATM    6  N4  UNL     1      19.743  51.666  65.972  1.00  0.00    -0.259 N 
ATOM      7  H3  UNL     1      17.684  51.249  65.869  1.00  0.00     0.210 HD
HETATM    8  C3  UNL     1      20.563  52.352  65.158  1.00  0.00     0.236 A 
ATOM      9  H4  UNL     1      20.018  51.204  66.838  1.00  0.00     0.191 HD
HETATM   10  N12 UNL     1      19.793  52.787  64.148  1.00  0.00    -0.256 N 
ATOM     11  H12 UNL     1      20.116  53.343  63.356  1.00  0.00     0.191 HD
BRANCH   8  12
HETATM   12  S1  UNL     1      22.274  52.579  65.421  1.00  0.00     0.234 S 
HETATM   13  O1  UNL     1      23.091  51.856  64.383  1.00  0.00    -0.218 OA
HETATM   14  O2  UNL     1      22.658  54.027  65.354  1.00  0.00    -0.218 OA
BRANCH  12  15
HETATM   15  C4  UNL     1      22.762  51.966  67.020  1.00  0.00     0.380 C 
BRANCH  15  16
HETATM   16  N5  UNL     1      24.042  52.541  67.337  1.00  0.00    -0.060 N 
ATOM     17  H52 UNL     1      24.202  53.395  66.802  1.00  0.00     0.278 HD
ATOM     18  H51 UNL     1      24.044  52.934  68.278  1.00  0.00     0.278 HD
BRANCH  16  19
HETATM   19  C5  UNL     1      25.131  51.608  67.162  1.00  0.00     0.253 C 
BRANCH  19  20
HETATM   20  C6  UNL     1      24.726  50.176  67.106  1.00  0.00     0.150 C 
BRANCH  20  21
HETATM   21  N6  UNL     1      24.840  49.610  65.749  1.00  0.00    -0.355 N 
HETATM   22  C7  UNL     1      26.064  49.059  65.369  1.00  0.00     0.257 C 
HETATM   23  O3  UNL     1      27.052  49.042  66.193  1.00  0.00    -0.267 OA
ATOM     24  H6  UNL     1      24.047  49.621  65.107  1.00  0.00     0.162 HD
BRANCH  22  25
HETATM   25  C8  UNL     1      26.352  48.468  64.087  1.00  0.00     0.097 A 
HETATM   26  C9  UNL     1      26.297  49.151  62.908  1.00  0.00     0.061 A 
HETATM   27 CL1  UNL     1      26.013  50.903  62.811  1.00  0.00    -0.082 Cl
HETATM   28  C10 UNL     1      26.529  48.450  61.726  1.00  0.00    -0.008 A 
HETATM   29  C11 UNL     1      26.806  47.114  61.722  1.00  0.00     0.044 A 
HETATM   30  C19 UNL     1      26.455  49.254  60.475  1.00  0.00     0.076 C 
HETATM   31  N7  UNL     1      26.862  46.445  62.876  1.00  0.00    -0.343 N 
HETATM   32  C13 UNL     1      27.023  46.503  60.393  1.00  0.00     0.166 C 
HETATM   33  C12 UNL     1      26.645  47.087  64.026  1.00  0.00     0.116 A 
ATOM     34  H7  UNL     1      27.070  45.447  62.879  1.00  0.00     0.167 HD
HETATM   35  C17 UNL     1      25.900  47.011  59.510  1.00  0.00     0.175 C 
HETATM   36  C18 UNL     1      26.217  48.466  59.238  1.00  0.00     0.153 C 
BRANCH  33  37
HETATM   37  N8  UNL     1      26.701  46.439  65.130  1.00  0.00    -0.385 N 
ATOM     38  H82 UNL     1      25.958  46.556  65.819  1.00  0.00     0.157 HD
ATOM     39  H81 UNL     1      27.499  45.822  65.279  1.00  0.00     0.157 HD
ENDBRANCH  33  37
BRANCH  32  40
HETATM   40  N9  UNL     1      27.170  45.095  60.361  1.00  0.00    -0.350 N 
ATOM     41  H9  UNL     1      26.887  44.519  61.153  1.00  0.00     0.163 HD
BRANCH  40  42
HETATM   42  C14 UNL     1      27.734  44.497  59.169  1.00  0.00     0.171 C 
HETATM   43  N10 UNL     1      27.160  43.678  58.374  1.00  0.00    -0.361 N 
HETATM   44  C15 UNL     1      27.957  43.250  57.276  1.00  0.00     0.142 C 
ATOM     45  H10 UNL     1      26.203  43.356  58.516  1.00  0.00     0.162 HD
HETATM   46  C16 UNL     1      29.148  44.162  57.347  1.00  0.00     0.142 C 
HETATM   47  N11 UNL     1      29.043  44.727  58.681  1.00  0.00    -0.361 N 
ATOM     48  H11 UNL     1      29.788  45.211  59.183  1.00  0.00     0.162 HD
ENDBRANCH  40  42
ENDBRANCH  32  40
BRANCH  35  49
HETATM   49  O4  UNL     1      25.876  46.360  58.288  1.00  0.00    -0.391 OA
ATOM     50  H4  UNL     1      25.388  46.852  57.638  1.00  0.00     0.210 HD
ENDBRANCH  35  49
BRANCH  36  51
HETATM   51  O5  UNL     1      25.277  48.998  58.376  1.00  0.00    -0.393 OA
ATOM     52  H5  UNL     1      25.147  48.412  57.639  1.00  0.00     0.210 HD
ENDBRANCH  36  51
ENDBRANCH  22  25
ENDBRANCH  20  21
ENDBRANCH  19  20
ENDBRANCH  16  19
ENDBRANCH  15  16
ENDBRANCH  12  15
ENDBRANCH   8  12
ENDBRANCH   3   4
TORSDOF 13
ENDMDL
MODEL 5
REMARK VINA RESULT: -10.213212599      1.472      1.920
REMARK  13 active torsions:
REMARK  status: ('A' for Active; 'I' for Inactive)
REMARK    1  A    between atoms: C2_3  and  N2_4 
REMARK    2  A    between atoms: C3_9  and  S1_10 
REMARK    3  A    between atoms: S1_10  and  C4_13 
REMARK    4  A    between atoms: C4_13  and  N5_14 
REMARK    5  A    between atoms: N5_14  and  C5_17 
REMARK    6  A    between atoms: C5_17  and  C6_18 
REMARK    7  A    between atoms: C6_18  and  N6_19 
REMARK       I    between atoms: N6_19  and  C7_21 
REMARK    8  A    between atoms: C7_21  and  C8_23 
REMARK    9  A    between atoms: C12_30  and  N8_31 
REMARK   10  A    between atoms: C13_34  and  N9_35 
REMARK   11  A    between atoms: N9_35  and  C14_37 
REMARK   12  A    between atoms: C17_44  and  O4_45 
REMARK   13  A    between atoms: C18_47  and  O5_48 
ROOT
HETATM    1  N1  UNL     1      21.184  45.706  55.546  1.00  0.00    -0.195 NA
HETATM    2  C1  UNL     1      22.138  45.502  54.944  1.00  0.00     0.082 C 
HETATM    3  C2  UNL     1      23.362  45.245  54.188  1.00  0.00     0.294 C 
ENDROOT
BRANCH   3   4
HETATM    4  N2  UNL     1      24.454  45.072  55.146  1.00  0.00    -0.204 N 
HETATM    5  N3  UNL     1      25.575  44.444  54.908  1.00  0.00    -0.223 N 
HETATM    6  N4  UNL     1      26.332  44.489  56.011  1.00  0.00    -0.259 N 
ATOM      7  H3  UNL     1      25.830  43.995  54.028  1.00  0.00     0.210 HD
HETATM    8  C3  UNL     1      25.667  45.163  56.964  1.00  0.00     0.236 A 
ATOM      9  H4  UNL     1      27.260  44.079  56.112  1.00  0.00     0.191 HD
HETATM   10  N12 UNL     1      24.498  45.520  56.410  1.00  0.00    -0.256 N 
ATOM     11  H12 UNL     1      23.760  46.048  56.876  1.00  0.00     0.191 HD
BRANCH   8  12
HETATM   12  S1  UNL     1      26.271  45.479  58.572  1.00  0.00     0.234 S 
HETATM   13  O1  UNL     1      25.945  46.880  59.016  1.00  0.00    -0.218 OA
HETATM   14  O2  UNL     1      25.673  44.546  59.582  1.00  0.00    -0.218 OA
BRANCH  12  15
HETATM   15  C4  UNL     1      28.040  45.285  58.641  1.00  0.00     0.380 C 
BRANCH  15  16
HETATM   16  N5  UNL     1      28.613  46.583  58.873  1.00  0.00    -0.060 N 
ATOM     17  H52 UNL     1      28.983  46.980  58.009  1.00  0.00     0.278 HD
ATOM     18  H51 UNL     1      27.890  47.273  59.074  1.00  0.00     0.278 HD
BRANCH  16  19
HETATM   19  C5  UNL     1      29.620  46.570  59.911  1.00  0.00     0.253 C 
BRANCH  19  20
HETATM   20  C6  UNL     1      29.148  46.077  61.235  1.00  0.00     0.150 C 
BRANCH  20  21
HETATM   21  N6  UNL     1      28.606  47.159  62.078  1.00  0.00    -0.355 N 
HETATM   22  C7  UNL     1      27.260  47.093  62.443  1.00  0.00     0.257 C 
HETATM   23  O3  UNL     1      26.530  46.107  62.055  1.00  0.00    -0.267 OA
ATOM     24  H6  UNL     1      29.196  47.931  62.386  1.00  0.00     0.162 HD
BRANCH  22  25
HETATM   25  C8  UNL     1      26.568  48.060  63.256  1.00  0.00     0.097 A 
HETATM   26  C9  UNL     1      26.360  47.916  64.595  1.00  0.00     0.061 A 
HETATM   27 CL1  UNL     1      27.051  46.585  65.549  1.00  0.00    -0.082 Cl
HETATM   28  C10 UNL     1      25.615  48.889  65.257  1.00  0.00    -0.008 A 
HETATM   29  C11 UNL     1      25.096  49.969  64.605  1.00  0.00     0.044 A 
HETATM   30  C19 UNL     1      25.426  48.673  66.718  1.00  0.00     0.076 C 
HETATM   31  N7  UNL     1      25.301  50.113  63.293  1.00  0.00    -0.343 N 
HETATM   32  C13 UNL     1      24.321  50.916  65.436  1.00  0.00     0.166 C 
HETATM   33  C12 UNL     1      26.010  49.198  62.629  1.00  0.00     0.116 A 
ATOM     34  H7  UNL     1      24.916  50.918  62.801  1.00  0.00     0.167 HD
HETATM   35  C17 UNL     1      23.392  50.067  66.283  1.00  0.00     0.175 C 
HETATM   36  C18 UNL     1      24.274  49.397  67.315  1.00  0.00     0.153 C 
BRANCH  33  37
HETATM   37  N8  UNL     1      26.204  49.342  61.371  1.00  0.00    -0.385 N 
ATOM     38  H82 UNL     1      26.995  49.897  61.045  1.00  0.00     0.157 HD
ATOM     39  H81 UNL     1      25.549  48.888  60.734  1.00  0.00     0.157 HD
ENDBRANCH  33  37
BRANCH  32  40
HETATM   40  N9  UNL     1      23.657  51.963  64.751  1.00  0.00    -0.350 N 
ATOM     41  H9  UNL     1      23.600  51.971  63.733  1.00  0.00     0.163 HD
BRANCH  40  42
HETATM   42  C14 UNL     1      23.062  53.022  65.539  1.00  0.00     0.171 C 
HETATM   43  N10 UNL     1      23.625  53.701  66.463  1.00  0.00    -0.361 N 
HETATM   44  C15 UNL     1      22.796  54.684  67.073  1.00  0.00     0.142 C 
ATOM     45  H10 UNL     1      24.594  53.549  66.743  1.00  0.00     0.162 HD
HETATM   46  C16 UNL     1      21.589  54.709  66.181  1.00  0.00     0.142 C 
HETATM   47  N11 UNL     1      21.731  53.486  65.410  1.00  0.00    -0.361 N 
ATOM     48  H11 UNL     1      20.994  53.036  64.865  1.00  0.00     0.162 HD
ENDBRANCH  40  42
ENDBRANCH  32  40
BRANCH  35  49
HETATM   49  O4  UNL     1      22.473  50.843  66.968  1.00  0.00    -0.391 OA
ATOM     50  H4  UNL     1      22.049  50.354  67.663  1.00  0.00     0.210 HD
ENDBRANCH  35  49
BRANCH  36  51
HETATM   51  O5  UNL     1      23.497  48.652  68.182  1.00  0.00    -0.393 OA
ATOM     52  H5  UNL     1      22.758  49.170  68.479  1.00  0.00     0.210 HD
ENDBRANCH  36  51
ENDBRANCH  22  25
ENDBRANCH  20  21
ENDBRANCH  19  20
ENDBRANCH  16  19
ENDBRANCH  15  16
ENDBRANCH  12  15
ENDBRANCH   8  12
ENDBRANCH   3   4
TORSDOF 13
ENDMDL
