MODEL 1
REMARK VINA RESULT: -7.829645747      0.000      0.000
REMARK  13 active torsions:
REMARK  status: ('A' for Active; 'I' for Inactive)
REMARK    1  A    between atoms: N1_1  and  C1_5 
REMARK    2  A    between atoms: C1_5  and  C2_6 
REMARK    3  A    between atoms: C1_5  and  C3_9 
REMARK    4  A    between atoms: C2_6  and  O1_7 
REMARK       I    between atoms: C3_9  and  N2_11 
REMARK    5  A    between atoms: N2_11  and  N3_13 
REMARK    6  A    between atoms: C4_15  and  C5_16 
REMARK    7  A    between atoms: C6_17  and  C7_18 
REMARK       I    between atoms: C7_18  and  N4_20 
REMARK    8  A    between atoms: N4_20  and  C8_22 
REMARK    9  A    between atoms: C8_22  and  C9_23 
REMARK   10  A    between atoms: C12_29  and  O6_30 
REMARK   11  A    between atoms: N6_36  and  C15_37 
REMARK   12  A    between atoms: C17_40  and  C18_41 
REMARK   13  A    between atoms: C18_41  and  N7_42 
ROOT
HETATM    1  C5  UNL     1      22.105  46.335  54.550  1.00  0.00     0.066 A 
HETATM    2  C6  UNL     1      21.809  47.639  54.187  1.00  0.00     0.066 A 
HETATM    3  C10 UNL     1      20.497  47.980  53.992  1.00  0.00     0.067 A 
HETATM    4  C11 UNL     1      20.142  49.263  53.636  1.00  0.00     0.165 A 
HETATM    5  F1  UNL     1      21.087  50.201  53.477  1.00  0.00    -0.202 F 
HETATM    6  C12 UNL     1      18.796  49.543  53.458  1.00  0.00     0.120 A 
HETATM    7  C13 UNL     1      17.883  48.530  53.646  1.00  0.00     0.129 A 
HETATM    8  N5  UNL     1      18.251  47.290  53.993  1.00  0.00    -0.348 N 
ATOM      9  H5  UNL     1      17.544  46.567  54.123  1.00  0.00     0.167 HD
HETATM   10  C14 UNL     1      19.532  47.003  54.167  1.00  0.00     0.127 A 
HETATM   11  N6  UNL     1      19.780  45.733  54.517  1.00  0.00    -0.270 N 
HETATM   12  C20 UNL     1      21.093  45.413  54.707  1.00  0.00     0.264 A 
HETATM   13  O8  UNL     1      21.455  44.247  55.039  1.00  0.00    -0.267 OA
ENDROOT
BRANCH   1  14
HETATM   14  C4  UNL     1      23.505  45.983  54.755  1.00  0.00     0.125 C 
HETATM   15  N3  UNL     1      23.925  45.507  55.890  1.00  0.00    -0.308 N 
ATOM     16  H3  UNL     1      23.275  45.371  56.665  1.00  0.00     0.186 HD
BRANCH  15  17
HETATM   17  N2  UNL     1      25.266  45.187  56.036  1.00  0.00    -0.269 N 
HETATM   18  C3  UNL     1      25.867  45.093  57.315  1.00  0.00     0.268 C 
HETATM   19  O2  UNL     1      25.155  45.307  58.345  1.00  0.00    -0.269 OA
ATOM     20  H2  UNL     1      25.833  45.016  55.204  1.00  0.00     0.190 HD
BRANCH  18  21
HETATM   21  C1  UNL     1      27.275  44.759  57.544  1.00  0.00     0.299 C 
BRANCH  21  22
HETATM   22  N1  UNL     1      27.796  43.823  56.568  1.00  0.00    -0.064 N 
ATOM     23  H13 UNL     1      28.078  44.293  55.708  1.00  0.00     0.275 HD
ATOM     24  H12 UNL     1      28.705  43.454  56.847  1.00  0.00     0.275 HD
ATOM     25  H11 UNL     1      27.126  43.075  56.387  1.00  0.00     0.275 HD
ENDBRANCH  21  22
BRANCH  21  26
HETATM   26  C2  UNL     1      27.506  44.246  58.970  1.00  0.00     0.206 C 
BRANCH  26  27
HETATM   27  O1  UNL     1      26.623  43.218  59.218  1.00  0.00    -0.398 OA
ATOM     28  H1  UNL     1      26.758  42.908  60.105  1.00  0.00     0.209 HD
ENDBRANCH  26  27
ENDBRANCH  21  26
ENDBRANCH  18  21
ENDBRANCH  15  17
ENDBRANCH   1  14
BRANCH   2  29
HETATM   29  C7  UNL     1      22.900  48.582  54.031  1.00  0.00     0.254 C 
HETATM   30  O3  UNL     1      23.413  49.196  54.996  1.00  0.00    -0.268 OA
HETATM   31  N4  UNL     1      23.414  48.827  52.733  1.00  0.00    -0.347 N 
ATOM     32  H4  UNL     1      23.002  48.331  51.943  1.00  0.00     0.163 HD
BRANCH  31  33
HETATM   33  C8  UNL     1      24.501  49.752  52.482  1.00  0.00     0.236 C 
BRANCH  33  34
HETATM   34  C9  UNL     1      24.831  49.831  51.039  1.00  0.00     0.191 C 
HETATM   35  O4  UNL     1      24.862  50.940  50.451  1.00  0.00    -0.647 OA
HETATM   36  O5  UNL     1      25.115  48.700  50.294  1.00  0.00    -0.647 OA
ENDBRANCH  33  34
ENDBRANCH  31  33
ENDBRANCH   2  29
BRANCH  11  37
HETATM   37  C15 UNL     1      18.872  44.688  54.713  1.00  0.00     0.243 C 
HETATM   38  C16 UNL     1      17.517  44.656  54.241  1.00  0.00     0.131 C 
HETATM   39  S1  UNL     1      17.907  44.346  52.456  1.00  0.00    -0.131 SA
HETATM   40  C17 UNL     1      19.325  43.552  52.708  1.00  0.00     0.205 C 
HETATM   41  O7  UNL     1      19.455  43.543  54.078  1.00  0.00    -0.348 OA
BRANCH  40  42
HETATM   42  C18 UNL     1      20.245  42.981  51.653  1.00  0.00     0.194 C 
BRANCH  42  43
HETATM   43  N7  UNL     1      21.463  42.565  52.278  1.00  0.00    -0.268 N 
HETATM   44  C19 UNL     1      21.737  41.323  52.692  1.00  0.00     0.220 A 
HETATM   45  N8  UNL     1      22.984  41.307  53.234  1.00  0.00    -0.279 N 
HETATM   46  N9  UNL     1      23.453  42.538  53.143  1.00  0.00    -0.227 N 
ATOM     47  H8  UNL     1      23.464  40.501  53.634  1.00  0.00     0.189 HD
HETATM   48  N10 UNL     1      22.521  43.296  52.561  1.00  0.00    -0.225 N 
ATOM     49  H9  UNL     1      24.368  42.855  53.463  1.00  0.00     0.210 HD
ATOM     50  H10 UNL     1      22.614  44.292  52.364  1.00  0.00     0.210 HD
ENDBRANCH  42  43
ENDBRANCH  40  42
ENDBRANCH  11  37
BRANCH   6  51
HETATM   51  O6  UNL     1      18.424  50.829  53.098  1.00  0.00    -0.356 OA
ATOM     52  H6  UNL     1      18.065  50.975  52.231  1.00  0.00     0.218 HD
ENDBRANCH   6  51
TORSDOF 13
ENDMDL
MODEL 2
REMARK VINA RESULT: -7.416531096      2.640      5.609
REMARK  13 active torsions:
REMARK  status: ('A' for Active; 'I' for Inactive)
REMARK    1  A    between atoms: N1_1  and  C1_5 
REMARK    2  A    between atoms: C1_5  and  C2_6 
REMARK    3  A    between atoms: C1_5  and  C3_9 
REMARK    4  A    between atoms: C2_6  and  O1_7 
REMARK       I    between atoms: C3_9  and  N2_11 
REMARK    5  A    between atoms: N2_11  and  N3_13 
REMARK    6  A    between atoms: C4_15  and  C5_16 
REMARK    7  A    between atoms: C6_17  and  C7_18 
REMARK       I    between atoms: C7_18  and  N4_20 
REMARK    8  A    between atoms: N4_20  and  C8_22 
REMARK    9  A    between atoms: C8_22  and  C9_23 
REMARK   10  A    between atoms: C12_29  and  O6_30 
REMARK   11  A    between atoms: N6_36  and  C15_37 
REMARK   12  A    between atoms: C17_40  and  C18_41 
REMARK   13  A    between atoms: C18_41  and  N7_42 
ROOT
HETATM    1  C5  UNL     1      22.636  46.100  54.439  1.00  0.00     0.066 A 
HETATM    2  C6  UNL     1      21.506  45.404  54.040  1.00  0.00     0.066 A 
HETATM    3  C10 UNL     1      20.403  46.118  53.653  1.00  0.00     0.067 A 
HETATM    4  C11 UNL     1      19.254  45.481  53.241  1.00  0.00     0.165 A 
HETATM    5  F1  UNL     1      19.202  44.141  53.212  1.00  0.00    -0.202 F 
HETATM    6  C12 UNL     1      18.174  46.263  52.858  1.00  0.00     0.120 A 
HETATM    7  C13 UNL     1      18.304  47.632  52.907  1.00  0.00     0.129 A 
HETATM    8  N5  UNL     1      19.433  48.230  53.310  1.00  0.00    -0.348 N 
ATOM      9  H5  UNL     1      19.490  49.248  53.332  1.00  0.00     0.167 HD
HETATM   10  C14 UNL     1      20.474  47.500  53.680  1.00  0.00     0.127 A 
HETATM   11  N6  UNL     1      21.548  48.207  54.059  1.00  0.00    -0.270 N 
HETATM   12  C20 UNL     1      22.637  47.478  54.442  1.00  0.00     0.264 A 
HETATM   13  O8  UNL     1      23.710  48.030  54.820  1.00  0.00    -0.267 OA
ENDROOT
BRANCH   1  14
HETATM   14  C4  UNL     1      23.805  45.330  54.850  1.00  0.00     0.125 C 
HETATM   15  N3  UNL     1      24.485  45.646  55.911  1.00  0.00    -0.308 N 
ATOM     16  H3  UNL     1      24.211  46.447  56.481  1.00  0.00     0.186 HD
BRANCH  15  17
HETATM   17  N2  UNL     1      25.589  44.883  56.260  1.00  0.00    -0.269 N 
HETATM   18  C3  UNL     1      26.338  45.160  57.430  1.00  0.00     0.268 C 
HETATM   19  O2  UNL     1      25.984  46.131  58.170  1.00  0.00    -0.269 OA
ATOM     20  H2  UNL     1      25.868  44.104  55.662  1.00  0.00     0.190 HD
BRANCH  18  21
HETATM   21  C1  UNL     1      27.512  44.397  57.861  1.00  0.00     0.299 C 
BRANCH  21  22
HETATM   22  N1  UNL     1      27.909  43.388  56.899  1.00  0.00    -0.064 N 
ATOM     23  H13 UNL     1      28.650  42.790  57.264  1.00  0.00     0.275 HD
ATOM     24  H12 UNL     1      27.186  42.680  56.776  1.00  0.00     0.275 HD
ATOM     25  H11 UNL     1      28.173  43.816  56.011  1.00  0.00     0.275 HD
ENDBRANCH  21  22
BRANCH  21  26
HETATM   26  C2  UNL     1      27.303  43.778  59.247  1.00  0.00     0.206 C 
BRANCH  26  27
HETATM   27  O1  UNL     1      25.979  43.419  59.375  1.00  0.00    -0.398 OA
ATOM     28  H1  UNL     1      25.721  42.930  58.603  1.00  0.00     0.209 HD
ENDBRANCH  26  27
ENDBRANCH  21  26
ENDBRANCH  18  21
ENDBRANCH  15  17
ENDBRANCH   1  14
BRANCH   2  29
HETATM   29  C7  UNL     1      21.543  43.954  54.051  1.00  0.00     0.254 C 
HETATM   30  O3  UNL     1      21.062  43.267  54.982  1.00  0.00    -0.268 OA
HETATM   31  N4  UNL     1      22.148  43.276  52.964  1.00  0.00    -0.347 N 
ATOM     32  H4  UNL     1      22.542  43.828  52.202  1.00  0.00     0.163 HD
BRANCH  31  33
HETATM   33  C8  UNL     1      22.232  41.832  52.889  1.00  0.00     0.236 C 
BRANCH  33  34
HETATM   34  C9  UNL     1      21.347  41.285  51.833  1.00  0.00     0.191 C 
HETATM   35  O4  UNL     1      20.121  41.120  52.049  1.00  0.00    -0.647 OA
HETATM   36  O5  UNL     1      21.833  40.939  50.584  1.00  0.00    -0.647 OA
ENDBRANCH  33  34
ENDBRANCH  31  33
ENDBRANCH   2  29
BRANCH  11  37
HETATM   37  C15 UNL     1      21.704  49.595  54.118  1.00  0.00     0.243 C 
HETATM   38  C16 UNL     1      22.946  50.292  54.295  1.00  0.00     0.131 C 
HETATM   39  S1  UNL     1      23.604  50.017  52.584  1.00  0.00    -0.131 SA
HETATM   40  C17 UNL     1      22.145  49.918  51.834  1.00  0.00     0.205 C 
HETATM   41  O7  UNL     1      21.240  50.092  52.856  1.00  0.00    -0.348 OA
BRANCH  40  42
HETATM   42  C18 UNL     1      21.896  49.688  50.360  1.00  0.00     0.194 C 
BRANCH  42  43
HETATM   43  N7  UNL     1      23.155  49.559  49.693  1.00  0.00    -0.268 N 
HETATM   44  C19 UNL     1      23.740  50.508  48.952  1.00  0.00     0.220 A 
HETATM   45  N8  UNL     1      24.921  50.027  48.480  1.00  0.00    -0.279 N 
HETATM   46  N9  UNL     1      25.040  48.795  48.938  1.00  0.00    -0.227 N 
ATOM     47  H8  UNL     1      25.586  50.523  47.887  1.00  0.00     0.189 HD
HETATM   48  N10 UNL     1      23.961  48.520  49.674  1.00  0.00    -0.225 N 
ATOM     49  H9  UNL     1      25.821  48.164  48.761  1.00  0.00     0.210 HD
ATOM     50  H10 UNL     1      23.788  47.635  50.151  1.00  0.00     0.210 HD
ENDBRANCH  42  43
ENDBRANCH  40  42
ENDBRANCH  11  37
BRANCH   6  51
HETATM   51  O6  UNL     1      17.010  45.636  52.442  1.00  0.00    -0.356 OA
ATOM     52  H6  UNL     1      16.765  45.688  51.526  1.00  0.00     0.218 HD
ENDBRANCH   6  51
TORSDOF 13
ENDMDL
MODEL 3
REMARK VINA RESULT: -7.361442190      7.851     11.871
REMARK  13 active torsions:
REMARK  status: ('A' for Active; 'I' for Inactive)
REMARK    1  A    between atoms: N1_1  and  C1_5 
REMARK    2  A    between atoms: C1_5  and  C2_6 
REMARK    3  A    between atoms: C1_5  and  C3_9 
REMARK    4  A    between atoms: C2_6  and  O1_7 
REMARK       I    between atoms: C3_9  and  N2_11 
REMARK    5  A    between atoms: N2_11  and  N3_13 
REMARK    6  A    between atoms: C4_15  and  C5_16 
REMARK    7  A    between atoms: C6_17  and  C7_18 
REMARK       I    between atoms: C7_18  and  N4_20 
REMARK    8  A    between atoms: N4_20  and  C8_22 
REMARK    9  A    between atoms: C8_22  and  C9_23 
REMARK   10  A    between atoms: C12_29  and  O6_30 
REMARK   11  A    between atoms: N6_36  and  C15_37 
REMARK   12  A    between atoms: C17_40  and  C18_41 
REMARK   13  A    between atoms: C18_41  and  N7_42 
ROOT
HETATM    1  C5  UNL     1      26.093  49.037  62.356  1.00  0.00     0.066 A 
HETATM    2  C6  UNL     1      26.787  48.089  63.090  1.00  0.00     0.066 A 
HETATM    3  C10 UNL     1      26.903  48.270  64.443  1.00  0.00     0.067 A 
HETATM    4  C11 UNL     1      27.576  47.358  65.226  1.00  0.00     0.165 A 
HETATM    5  F1  UNL     1      28.129  46.271  64.666  1.00  0.00    -0.202 F 
HETATM    6  C12 UNL     1      27.654  47.598  66.589  1.00  0.00     0.120 A 
HETATM    7  C13 UNL     1      27.056  48.732  67.092  1.00  0.00     0.129 A 
HETATM    8  N5  UNL     1      26.406  49.604  66.312  1.00  0.00    -0.348 N 
ATOM      9  H5  UNL     1      25.975  50.432  66.723  1.00  0.00     0.167 HD
HETATM   10  C14 UNL     1      26.321  49.392  65.007  1.00  0.00     0.127 A 
HETATM   11  N6  UNL     1      25.643  50.329  64.329  1.00  0.00    -0.270 N 
HETATM   12  C20 UNL     1      25.538  50.131  62.983  1.00  0.00     0.264 A 
HETATM   13  O8  UNL     1      24.922  50.945  62.235  1.00  0.00    -0.267 OA
ENDROOT
BRANCH   1  14
HETATM   14  C4  UNL     1      25.975  48.835  60.916  1.00  0.00     0.125 C 
HETATM   15  N3  UNL     1      25.703  47.665  60.416  1.00  0.00    -0.308 N 
ATOM     16  H3  UNL     1      25.566  46.861  61.029  1.00  0.00     0.186 HD
BRANCH  15  17
HETATM   17  N2  UNL     1      25.601  47.524  59.040  1.00  0.00    -0.269 N 
HETATM   18  C3  UNL     1      25.614  46.248  58.427  1.00  0.00     0.268 C 
HETATM   19  O2  UNL     1      25.721  45.215  59.160  1.00  0.00    -0.269 OA
ATOM     20  H2  UNL     1      25.515  48.357  58.457  1.00  0.00     0.190 HD
BRANCH  18  21
HETATM   21  C1  UNL     1      25.510  46.022  56.983  1.00  0.00     0.299 C 
BRANCH  21  22
HETATM   22  N1  UNL     1      24.137  45.905  56.531  1.00  0.00    -0.064 N 
ATOM     23  H13 UNL     1      23.901  46.629  55.853  1.00  0.00     0.275 HD
ATOM     24  H12 UNL     1      24.005  45.087  55.936  1.00  0.00     0.275 HD
ATOM     25  H11 UNL     1      23.493  45.904  57.322  1.00  0.00     0.275 HD
ENDBRANCH  21  22
BRANCH  21  26
HETATM   26  C2  UNL     1      26.336  44.809  56.542  1.00  0.00     0.206 C 
BRANCH  26  27
HETATM   27  O1  UNL     1      25.879  44.388  55.312  1.00  0.00    -0.398 OA
ATOM     28  H1  UNL     1      26.613  44.354  54.710  1.00  0.00     0.209 HD
ENDBRANCH  26  27
ENDBRANCH  21  26
ENDBRANCH  18  21
ENDBRANCH  15  17
ENDBRANCH   1  14
BRANCH   2  29
HETATM   29  C7  UNL     1      27.356  46.951  62.395  1.00  0.00     0.254 C 
HETATM   30  O3  UNL     1      26.759  45.855  62.278  1.00  0.00    -0.268 OA
HETATM   31  N4  UNL     1      28.646  47.074  61.822  1.00  0.00    -0.347 N 
ATOM     32  H4  UNL     1      29.139  47.962  61.913  1.00  0.00     0.163 HD
BRANCH  31  33
HETATM   33  C8  UNL     1      29.295  45.991  61.111  1.00  0.00     0.236 C 
BRANCH  33  34
HETATM   34  C9  UNL     1      29.119  46.113  59.645  1.00  0.00     0.191 C 
HETATM   35  O4  UNL     1      28.786  47.210  59.130  1.00  0.00    -0.647 OA
HETATM   36  O5  UNL     1      29.312  45.037  58.796  1.00  0.00    -0.647 OA
ENDBRANCH  33  34
ENDBRANCH  31  33
ENDBRANCH   2  29
BRANCH  11  37
HETATM   37  C15 UNL     1      25.029  51.486  64.817  1.00  0.00     0.243 C 
HETATM   38  C16 UNL     1      23.851  52.101  64.274  1.00  0.00     0.131 C 
HETATM   39  S1  UNL     1      22.633  50.858  64.913  1.00  0.00    -0.131 SA
HETATM   40  C17 UNL     1      23.499  50.407  66.235  1.00  0.00     0.205 C 
HETATM   41  O7  UNL     1      24.635  51.181  66.161  1.00  0.00    -0.348 OA
BRANCH  40  42
HETATM   42  C18 UNL     1      23.105  49.378  67.270  1.00  0.00     0.194 C 
BRANCH  42  43
HETATM   43  N7  UNL     1      23.607  48.100  66.866  1.00  0.00    -0.268 N 
HETATM   44  C19 UNL     1      23.440  47.549  65.658  1.00  0.00     0.220 A 
HETATM   45  N8  UNL     1      24.053  46.335  65.643  1.00  0.00    -0.279 N 
HETATM   46  N9  UNL     1      24.584  46.163  66.839  1.00  0.00    -0.227 N 
ATOM     47  H8  UNL     1      24.094  45.684  64.859  1.00  0.00     0.189 HD
HETATM   48  N10 UNL     1      24.307  47.242  67.576  1.00  0.00    -0.225 N 
ATOM     49  H9  UNL     1      25.114  45.348  67.147  1.00  0.00     0.210 HD
ATOM     50  H10 UNL     1      24.595  47.379  68.544  1.00  0.00     0.210 HD
ENDBRANCH  42  43
ENDBRANCH  40  42
ENDBRANCH  11  37
BRANCH   6  51
HETATM   51  O6  UNL     1      28.330  46.690  67.389  1.00  0.00    -0.356 OA
ATOM     52  H6  UNL     1      28.450  46.893  68.309  1.00  0.00     0.218 HD
ENDBRANCH   6  51
TORSDOF 13
ENDMDL
MODEL 4
REMARK VINA RESULT: -7.326706194      2.825      5.119
REMARK  13 active torsions:
REMARK  status: ('A' for Active; 'I' for Inactive)
REMARK    1  A    between atoms: N1_1  and  C1_5 
REMARK    2  A    between atoms: C1_5  and  C2_6 
REMARK    3  A    between atoms: C1_5  and  C3_9 
REMARK    4  A    between atoms: C2_6  and  O1_7 
REMARK       I    between atoms: C3_9  and  N2_11 
REMARK    5  A    between atoms: N2_11  and  N3_13 
REMARK    6  A    between atoms: C4_15  and  C5_16 
REMARK    7  A    between atoms: C6_17  and  C7_18 
REMARK       I    between atoms: C7_18  and  N4_20 
REMARK    8  A    between atoms: N4_20  and  C8_22 
REMARK    9  A    between atoms: C8_22  and  C9_23 
REMARK   10  A    between atoms: C12_29  and  O6_30 
REMARK   11  A    between atoms: N6_36  and  C15_37 
REMARK   12  A    between atoms: C17_40  and  C18_41 
REMARK   13  A    between atoms: C18_41  and  N7_42 
ROOT
HETATM    1  C5  UNL     1      22.587  46.152  54.396  1.00  0.00     0.066 A 
HETATM    2  C6  UNL     1      21.479  45.445  53.960  1.00  0.00     0.066 A 
HETATM    3  C10 UNL     1      20.372  46.147  53.563  1.00  0.00     0.067 A 
HETATM    4  C11 UNL     1      19.242  45.499  53.115  1.00  0.00     0.165 A 
HETATM    5  F1  UNL     1      19.215  44.159  53.060  1.00  0.00    -0.202 F 
HETATM    6  C12 UNL     1      18.158  46.269  52.724  1.00  0.00     0.120 A 
HETATM    7  C13 UNL     1      18.262  47.639  52.801  1.00  0.00     0.129 A 
HETATM    8  N5  UNL     1      19.372  48.249  53.240  1.00  0.00    -0.348 N 
ATOM      9  H5  UNL     1      19.410  49.267  53.282  1.00  0.00     0.167 HD
HETATM   10  C14 UNL     1      20.418  47.530  53.618  1.00  0.00     0.127 A 
HETATM   11  N6  UNL     1      21.471  48.247  54.033  1.00  0.00    -0.270 N 
HETATM   12  C20 UNL     1      22.564  47.530  54.425  1.00  0.00     0.264 A 
HETATM   13  O8  UNL     1      23.620  48.093  54.836  1.00  0.00    -0.267 OA
ENDROOT
BRANCH   1  14
HETATM   14  C4  UNL     1      23.761  45.395  54.816  1.00  0.00     0.125 C 
HETATM   15  N3  UNL     1      24.350  45.633  55.951  1.00  0.00    -0.308 N 
ATOM     16  H3  UNL     1      23.998  46.362  56.572  1.00  0.00     0.186 HD
BRANCH  15  17
HETATM   17  N2  UNL     1      25.463  44.885  56.306  1.00  0.00    -0.269 N 
HETATM   18  C3  UNL     1      26.249  45.224  57.434  1.00  0.00     0.268 C 
HETATM   19  O2  UNL     1      25.921  46.235  58.131  1.00  0.00    -0.269 OA
ATOM     20  H2  UNL     1      25.721  44.074  55.743  1.00  0.00     0.190 HD
BRANCH  18  21
HETATM   21  C1  UNL     1      27.435  44.481  57.869  1.00  0.00     0.299 C 
BRANCH  21  22
HETATM   22  N1  UNL     1      27.873  43.503  56.893  1.00  0.00    -0.064 N 
ATOM     23  H13 UNL     1      28.809  43.711  56.545  1.00  0.00     0.275 HD
ATOM     24  H12 UNL     1      28.067  42.600  57.325  1.00  0.00     0.275 HD
ATOM     25  H11 UNL     1      27.197  43.420  56.133  1.00  0.00     0.275 HD
ENDBRANCH  21  22
BRANCH  21  26
HETATM   26  C2  UNL     1      27.218  43.827  59.238  1.00  0.00     0.206 C 
BRANCH  26  27
HETATM   27  O1  UNL     1      25.871  43.595  59.408  1.00  0.00    -0.398 OA
ATOM     28  H1  UNL     1      25.676  42.712  59.120  1.00  0.00     0.209 HD
ENDBRANCH  26  27
ENDBRANCH  21  26
ENDBRANCH  18  21
ENDBRANCH  15  17
ENDBRANCH   1  14
BRANCH   2  29
HETATM   29  C7  UNL     1      21.541  43.996  53.944  1.00  0.00     0.254 C 
HETATM   30  O3  UNL     1      21.058  43.283  54.855  1.00  0.00    -0.268 OA
HETATM   31  N4  UNL     1      22.174  43.349  52.854  1.00  0.00    -0.347 N 
ATOM     32  H4  UNL     1      22.569  43.922  52.108  1.00  0.00     0.163 HD
BRANCH  31  33
HETATM   33  C8  UNL     1      22.284  41.908  52.753  1.00  0.00     0.236 C 
BRANCH  33  34
HETATM   34  C9  UNL     1      23.137  41.501  51.612  1.00  0.00     0.191 C 
HETATM   35  O4  UNL     1      22.854  41.859  50.442  1.00  0.00    -0.647 OA
HETATM   36  O5  UNL     1      24.265  40.719  51.791  1.00  0.00    -0.647 OA
ENDBRANCH  33  34
ENDBRANCH  31  33
ENDBRANCH   2  29
BRANCH  11  37
HETATM   37  C15 UNL     1      21.601  49.636  54.121  1.00  0.00     0.243 C 
HETATM   38  C16 UNL     1      22.826  50.351  54.343  1.00  0.00     0.131 C 
HETATM   39  S1  UNL     1      23.533  50.119  52.645  1.00  0.00    -0.131 SA
HETATM   40  C17 UNL     1      22.095  50.010  51.856  1.00  0.00     0.205 C 
HETATM   41  O7  UNL     1      21.161  50.149  52.857  1.00  0.00    -0.348 OA
BRANCH  40  42
HETATM   42  C18 UNL     1      21.888  49.803  50.372  1.00  0.00     0.194 C 
BRANCH  42  43
HETATM   43  N7  UNL     1      21.351  48.494  50.159  1.00  0.00    -0.268 N 
HETATM   44  C19 UNL     1      20.138  48.225  49.661  1.00  0.00     0.220 A 
HETATM   45  N8  UNL     1      19.978  46.876  49.603  1.00  0.00    -0.279 N 
HETATM   46  N9  UNL     1      21.093  46.341  50.065  1.00  0.00    -0.227 N 
ATOM     47  H8  UNL     1      19.155  46.375  49.269  1.00  0.00     0.189 HD
HETATM   48  N10 UNL     1      21.922  47.333  50.400  1.00  0.00    -0.225 N 
ATOM     49  H9  UNL     1      21.288  45.344  50.150  1.00  0.00     0.210 HD
ATOM     50  H10 UNL     1      22.857  47.209  50.786  1.00  0.00     0.210 HD
ENDBRANCH  42  43
ENDBRANCH  40  42
ENDBRANCH  11  37
BRANCH   6  51
HETATM   51  O6  UNL     1      17.014  45.630  52.272  1.00  0.00    -0.356 OA
ATOM     52  H6  UNL     1      17.105  44.817  51.790  1.00  0.00     0.218 HD
ENDBRANCH   6  51
TORSDOF 13
ENDMDL
MODEL 5
REMARK VINA RESULT: -7.243485166      1.338      1.629
REMARK  13 active torsions:
REMARK  status: ('A' for Active; 'I' for Inactive)
REMARK    1  A    between atoms: N1_1  and  C1_5 
REMARK    2  A    between atoms: C1_5  and  C2_6 
REMARK    3  A    between atoms: C1_5  and  C3_9 
REMARK    4  A    between atoms: C2_6  and  O1_7 
REMARK       I    between atoms: C3_9  and  N2_11 
REMARK    5  A    between atoms: N2_11  and  N3_13 
REMARK    6  A    between atoms: C4_15  and  C5_16 
REMARK    7  A    between atoms: C6_17  and  C7_18 
REMARK       I    between atoms: C7_18  and  N4_20 
REMARK    8  A    between atoms: N4_20  and  C8_22 
REMARK    9  A    between atoms: C8_22  and  C9_23 
REMARK   10  A    between atoms: C12_29  and  O6_30 
REMARK   11  A    between atoms: N6_36  and  C15_37 
REMARK   12  A    between atoms: C17_40  and  C18_41 
REMARK   13  A    between atoms: C18_41  and  N7_42 
ROOT
HETATM    1  C5  UNL     1      21.950  46.362  54.453  1.00  0.00     0.066 A 
HETATM    2  C6  UNL     1      21.716  47.692  54.143  1.00  0.00     0.066 A 
HETATM    3  C10 UNL     1      20.421  48.102  53.961  1.00  0.00     0.067 A 
HETATM    4  C11 UNL     1      20.127  49.412  53.656  1.00  0.00     0.165 A 
HETATM    5  F1  UNL     1      21.115  50.311  53.535  1.00  0.00    -0.202 F 
HETATM    6  C12 UNL     1      18.796  49.762  53.488  1.00  0.00     0.120 A 
HETATM    7  C13 UNL     1      17.837  48.786  53.635  1.00  0.00     0.129 A 
HETATM    8  N5  UNL     1      18.146  47.517  53.933  1.00  0.00    -0.348 N 
ATOM      9  H5  UNL     1      17.406  46.823  54.034  1.00  0.00     0.167 HD
HETATM   10  C14 UNL     1      19.412  47.164  54.096  1.00  0.00     0.127 A 
HETATM   11  N6  UNL     1      19.599  45.871  54.396  1.00  0.00    -0.270 N 
HETATM   12  C20 UNL     1      20.896  45.482  54.573  1.00  0.00     0.264 A 
HETATM   13  O8  UNL     1      21.202  44.289  54.859  1.00  0.00    -0.267 OA
ENDROOT
BRANCH   1  14
HETATM   14  C4  UNL     1      23.332  45.937  54.645  1.00  0.00     0.125 C 
HETATM   15  N3  UNL     1      23.782  45.609  55.820  1.00  0.00    -0.308 N 
ATOM     16  H3  UNL     1      23.171  45.645  56.636  1.00  0.00     0.186 HD
BRANCH  15  17
HETATM   17  N2  UNL     1      25.105  45.211  55.951  1.00  0.00    -0.269 N 
HETATM   18  C3  UNL     1      25.743  45.179  57.214  1.00  0.00     0.268 C 
HETATM   19  O2  UNL     1      25.084  45.522  58.245  1.00  0.00    -0.269 OA
ATOM     20  H2  UNL     1      25.629  44.937  55.119  1.00  0.00     0.190 HD
BRANCH  18  21
HETATM   21  C1  UNL     1      27.134  44.770  57.428  1.00  0.00     0.299 C 
BRANCH  21  22
HETATM   22  N1  UNL     1      27.567  43.747  56.496  1.00  0.00    -0.064 N 
ATOM     23  H13 UNL     1      28.228  44.115  55.813  1.00  0.00     0.275 HD
ATOM     24  H12 UNL     1      28.175  43.062  56.945  1.00  0.00     0.275 HD
ATOM     25  H11 UNL     1      26.767  43.303  56.046  1.00  0.00     0.275 HD
ENDBRANCH  21  22
BRANCH  21  26
HETATM   26  C2  UNL     1      27.374  44.327  58.876  1.00  0.00     0.206 C 
BRANCH  26  27
HETATM   27  O1  UNL     1      26.539  43.268  59.157  1.00  0.00    -0.398 OA
ATOM     28  H1  UNL     1      25.691  43.435  58.764  1.00  0.00     0.209 HD
ENDBRANCH  26  27
ENDBRANCH  21  26
ENDBRANCH  18  21
ENDBRANCH  15  17
ENDBRANCH   1  14
BRANCH   2  29
HETATM   29  C7  UNL     1      22.850  48.588  54.025  1.00  0.00     0.254 C 
HETATM   30  O3  UNL     1      23.395  49.131  55.015  1.00  0.00    -0.268 OA
HETATM   31  N4  UNL     1      23.370  48.870  52.737  1.00  0.00    -0.347 N 
ATOM     32  H4  UNL     1      22.932  48.433  51.927  1.00  0.00     0.163 HD
BRANCH  31  33
HETATM   33  C8  UNL     1      24.498  49.753  52.523  1.00  0.00     0.236 C 
BRANCH  33  34
HETATM   34  C9  UNL     1      24.869  49.833  51.091  1.00  0.00     0.191 C 
HETATM   35  O4  UNL     1      24.871  50.937  50.492  1.00  0.00    -0.647 OA
HETATM   36  O5  UNL     1      25.223  48.708  50.367  1.00  0.00    -0.647 OA
ENDBRANCH  33  34
ENDBRANCH  31  33
ENDBRANCH   2  29
BRANCH  11  37
HETATM   37  C15 UNL     1      18.644  44.863  54.549  1.00  0.00     0.243 C 
HETATM   38  C16 UNL     1      17.256  44.962  54.195  1.00  0.00     0.131 C 
HETATM   39  S1  UNL     1      17.483  44.843  52.359  1.00  0.00    -0.131 SA
HETATM   40  C17 UNL     1      18.862  43.948  52.397  1.00  0.00     0.205 C 
HETATM   41  O7  UNL     1      19.098  43.770  53.742  1.00  0.00    -0.348 OA
BRANCH  40  42
HETATM   42  C18 UNL     1      19.656  43.455  51.209  1.00  0.00     0.194 C 
BRANCH  42  43
HETATM   43  N7  UNL     1      20.422  44.543  50.682  1.00  0.00    -0.268 N 
HETATM   44  C19 UNL     1      21.224  44.479  49.613  1.00  0.00     0.220 A 
HETATM   45  N8  UNL     1      21.784  45.703  49.412  1.00  0.00    -0.279 N 
HETATM   46  N9  UNL     1      21.316  46.494  50.360  1.00  0.00    -0.227 N 
ATOM     47  H8  UNL     1      22.438  45.959  48.673  1.00  0.00     0.189 HD
HETATM   48  N10 UNL     1      20.489  45.779  51.127  1.00  0.00    -0.225 N 
ATOM     49  H9  UNL     1      21.546  47.479  50.485  1.00  0.00     0.210 HD
ATOM     50  H10 UNL     1      19.985  46.138  51.937  1.00  0.00     0.210 HD
ENDBRANCH  42  43
ENDBRANCH  40  42
ENDBRANCH  11  37
BRANCH   6  51
HETATM   51  O6  UNL     1      18.485  51.077  53.180  1.00  0.00    -0.356 OA
ATOM     52  H6  UNL     1      19.002  51.772  53.570  1.00  0.00     0.218 HD
ENDBRANCH   6  51
TORSDOF 13
ENDMDL
