MODEL 1
REMARK VINA RESULT: -7.329832881      0.000      0.000
REMARK  8 active torsions:
REMARK  status: ('A' for Active; 'I' for Inactive)
REMARK    1  A    between atoms: C2_2  and  C3_3 
REMARK    2  A    between atoms: C3_3  and  C5_5 
REMARK    3  A    between atoms: C5_5  and  S1_6 
REMARK    4  A    between atoms: S1_6  and  C6_7 
REMARK    5  A    between atoms: C6_7  and  C7_8 
REMARK    6  A    between atoms: C6_7  and  C12_18 
REMARK    7  A    between atoms: C7_8  and  N1_9 
REMARK    8  A    between atoms: N1_9  and  C8_11 
ROOT
HETATM    1  C6  UNL     1      57.730  -8.049  13.044  1.00  0.00     0.136 C 
ENDROOT
BRANCH   1   2
HETATM    2  S1  UNL     1      58.718  -8.396  11.542  1.00  0.00    -0.152 SA
BRANCH   2   3
HETATM    3  C5  UNL     1      60.242  -9.211  12.108  1.00  0.00     0.079 C 
BRANCH   3   4
HETATM    4  C3  UNL     1      61.427  -8.266  12.021  1.00  0.00    -0.010 C 
HETATM    5  C4  UNL     1      61.020  -6.913  11.530  1.00  0.00     0.011 C 
BRANCH   4   6
HETATM    6  C2  UNL     1      62.516  -8.908  11.213  1.00  0.00     0.000 C 
HETATM    7  C1  UNL     1      62.557 -10.393  11.329  1.00  0.00     0.005 C 
ENDBRANCH   4   6
ENDBRANCH   3   4
ENDBRANCH   2   3
ENDBRANCH   1   2
BRANCH   1   8
HETATM    8  C7  UNL     1      57.342  -9.326  13.734  1.00  0.00     0.077 C 
BRANCH   8   9
HETATM    9  N1  UNL     1      57.341  -9.339  15.143  1.00  0.00    -0.394 N 
ATOM     10  H1  UNL     1      58.182  -9.059  15.648  1.00  0.00     0.159 HD
BRANCH   9  11
HETATM   11  C8  UNL     1      56.207  -9.731  15.864  1.00  0.00     0.107 C 
HETATM   12  C9  UNL     1      55.136 -10.518  15.174  1.00  0.00     0.054 C 
HETATM   13  C10 UNL     1      53.824 -10.096  15.844  1.00  0.00     0.234 C 
HETATM   14  N2  UNL     1      54.252  -9.238  16.919  1.00  0.00    -0.073 N 
HETATM   15  C11 UNL     1      55.375  -8.521  16.344  1.00  0.00     0.257 C 
ATOM     16  H22 UNL     1      53.519  -8.641  17.302  1.00  0.00     0.277 HD
ATOM     17  H21 UNL     1      54.460  -9.723  17.792  1.00  0.00     0.277 HD
ENDBRANCH   9  11
ENDBRANCH   8   9
ENDBRANCH   1   8
BRANCH   1  18
HETATM   18  C12 UNL     1      56.500  -7.333  12.548  1.00  0.00     0.043 A 
HETATM   19  C13 UNL     1      55.916  -7.629  11.337  1.00  0.00     0.116 A 
HETATM   20  N3  UNL     1      54.818  -6.978  10.916  1.00  0.00    -0.352 N 
HETATM   21  C14 UNL     1      54.277  -6.009  11.710  1.00  0.00     0.131 A 
ATOM     22  H3  UNL     1      54.394  -7.205  10.017  1.00  0.00     0.166 HD
HETATM   23  N4  UNL     1      53.116  -5.281  11.329  1.00  0.00    -0.081 NA
HETATM   24  C15 UNL     1      54.855  -5.705  12.926  1.00  0.00     0.133 A 
HETATM   25  N5  UNL     1      55.955  -6.385  13.305  1.00  0.00    -0.364 N 
ATOM     26  H5  UNL     1      56.385  -6.164  14.203  1.00  0.00     0.165 HD
ENDBRANCH   1  18
TORSDOF 8
ENDMDL
MODEL 2
REMARK VINA RESULT: -6.738122356      2.062      6.095
REMARK  8 active torsions:
REMARK  status: ('A' for Active; 'I' for Inactive)
REMARK    1  A    between atoms: C2_2  and  C3_3 
REMARK    2  A    between atoms: C3_3  and  C5_5 
REMARK    3  A    between atoms: C5_5  and  S1_6 
REMARK    4  A    between atoms: S1_6  and  C6_7 
REMARK    5  A    between atoms: C6_7  and  C7_8 
REMARK    6  A    between atoms: C6_7  and  C12_18 
REMARK    7  A    between atoms: C7_8  and  N1_9 
REMARK    8  A    between atoms: N1_9  and  C8_11 
ROOT
HETATM    1  C6  UNL     1      57.542  -8.808  12.692  1.00  0.00     0.136 C 
ENDROOT
BRANCH   1   2
HETATM    2  S1  UNL     1      57.304  -9.226  14.458  1.00  0.00    -0.152 SA
BRANCH   2   3
HETATM    3  C5  UNL     1      55.698 -10.070  14.573  1.00  0.00     0.079 C 
BRANCH   3   4
HETATM    4  C3  UNL     1      55.056  -9.835  15.928  1.00  0.00    -0.010 C 
HETATM    5  C4  UNL     1      53.578 -10.060  15.885  1.00  0.00     0.011 C 
BRANCH   4   6
HETATM    6  C2  UNL     1      55.454  -8.482  16.438  1.00  0.00     0.000 C 
HETATM    7  C1  UNL     1      54.405  -7.437  16.258  1.00  0.00     0.005 C 
ENDBRANCH   4   6
ENDBRANCH   3   4
ENDBRANCH   2   3
ENDBRANCH   1   2
BRANCH   1   8
HETATM    8  C7  UNL     1      58.892  -8.189  12.467  1.00  0.00     0.077 C 
BRANCH   8   9
HETATM    9  N1  UNL     1      60.021  -9.031  12.529  1.00  0.00    -0.394 N 
ATOM     10  H1  UNL     1      60.162  -9.621  13.348  1.00  0.00     0.159 HD
BRANCH   9  11
HETATM   11  C8  UNL     1      60.953  -9.070  11.486  1.00  0.00     0.107 C 
HETATM   12  C9  UNL     1      62.168  -9.935  11.621  1.00  0.00     0.054 C 
HETATM   13  C10 UNL     1      63.275  -9.206  10.852  1.00  0.00     0.234 C 
HETATM   14  N2  UNL     1      62.591  -8.094  10.244  1.00  0.00    -0.073 N 
HETATM   15  C11 UNL     1      61.630  -7.701  11.258  1.00  0.00     0.257 C 
ATOM     16  H22 UNL     1      63.202  -7.343   9.925  1.00  0.00     0.277 HD
ATOM     17  H21 UNL     1      62.185  -8.295   9.330  1.00  0.00     0.277 HD
ENDBRANCH   9  11
ENDBRANCH   8   9
ENDBRANCH   1   8
BRANCH   1  18
HETATM   18  C12 UNL     1      56.455  -7.812  12.374  1.00  0.00     0.043 A 
HETATM   19  C13 UNL     1      55.735  -7.859  11.202  1.00  0.00     0.116 A 
HETATM   20  N3  UNL     1      54.770  -6.961  10.942  1.00  0.00    -0.352 N 
HETATM   21  C14 UNL     1      54.504  -5.989  11.861  1.00  0.00     0.131 A 
ATOM     22  H3  UNL     1      54.243  -7.006  10.070  1.00  0.00     0.166 HD
HETATM   23  N4  UNL     1      53.496  -5.007  11.653  1.00  0.00    -0.081 NA
HETATM   24  C15 UNL     1      55.220  -5.933  13.039  1.00  0.00     0.133 A 
HETATM   25  N5  UNL     1      56.179  -6.854  13.255  1.00  0.00    -0.364 N 
ATOM     26  H5  UNL     1      56.711  -6.817  14.125  1.00  0.00     0.165 HD
ENDBRANCH   1  18
TORSDOF 8
ENDMDL
MODEL 3
REMARK VINA RESULT: -6.657287674      2.611      5.660
REMARK  8 active torsions:
REMARK  status: ('A' for Active; 'I' for Inactive)
REMARK    1  A    between atoms: C2_2  and  C3_3 
REMARK    2  A    between atoms: C3_3  and  C5_5 
REMARK    3  A    between atoms: C5_5  and  S1_6 
REMARK    4  A    between atoms: S1_6  and  C6_7 
REMARK    5  A    between atoms: C6_7  and  C7_8 
REMARK    6  A    between atoms: C6_7  and  C12_18 
REMARK    7  A    between atoms: C7_8  and  N1_9 
REMARK    8  A    between atoms: N1_9  and  C8_11 
ROOT
HETATM    1  C6  UNL     1      58.416  -9.025  12.679  1.00  0.00     0.136 C 
ENDROOT
BRANCH   1   2
HETATM    2  S1  UNL     1      57.579  -7.404  12.826  1.00  0.00    -0.152 SA
BRANCH   2   3
HETATM    3  C5  UNL     1      55.983  -7.571  11.970  1.00  0.00     0.079 C 
BRANCH   3   4
HETATM    4  C3  UNL     1      55.183  -6.285  12.058  1.00  0.00    -0.010 C 
HETATM    5  C4  UNL     1      54.833  -5.947  13.473  1.00  0.00     0.011 C 
BRANCH   4   6
HETATM    6  C2  UNL     1      54.000  -6.372  11.140  1.00  0.00     0.000 C 
HETATM    7  C1  UNL     1      52.979  -5.310  11.370  1.00  0.00     0.005 C 
ENDBRANCH   4   6
ENDBRANCH   3   4
ENDBRANCH   2   3
ENDBRANCH   1   2
BRANCH   1   8
HETATM    8  C7  UNL     1      58.681  -9.614  14.035  1.00  0.00     0.077 C 
BRANCH   8   9
HETATM    9  N1  UNL     1      57.919  -9.137  15.121  1.00  0.00    -0.394 N 
ATOM     10  H1  UNL     1      58.226  -8.303  15.620  1.00  0.00     0.159 HD
BRANCH   9  11
HETATM   11  C8  UNL     1      56.749  -9.789  15.526  1.00  0.00     0.107 C 
HETATM   12  C9  UNL     1      55.451  -9.041  15.510  1.00  0.00     0.054 C 
HETATM   13  C10 UNL     1      54.632  -9.622  16.668  1.00  0.00     0.234 C 
HETATM   14  N2  UNL     1      55.445 -10.711  17.146  1.00  0.00    -0.073 N 
HETATM   15  C11 UNL     1      56.797 -10.200  17.013  1.00  0.00     0.257 C 
ATOM     16  H22 UNL     1      55.206 -11.040  18.081  1.00  0.00     0.277 HD
ATOM     17  H21 UNL     1      55.280 -11.601  16.676  1.00  0.00     0.277 HD
ENDBRANCH   9  11
ENDBRANCH   8   9
ENDBRANCH   1   8
BRANCH   1  18
HETATM   18  C12 UNL     1      59.718  -8.733  11.976  1.00  0.00     0.043 A 
HETATM   19  C13 UNL     1      59.874  -7.652  11.139  1.00  0.00     0.116 A 
HETATM   20  N3  UNL     1      61.045  -7.410  10.526  1.00  0.00    -0.352 N 
HETATM   21  C14 UNL     1      62.094  -8.256  10.743  1.00  0.00     0.131 A 
ATOM     22  H3  UNL     1      61.149  -6.606   9.907  1.00  0.00     0.166 HD
HETATM   23  N4  UNL     1      63.362  -8.061  10.128  1.00  0.00    -0.081 NA
HETATM   24  C15 UNL     1      61.947  -9.342  11.580  1.00  0.00     0.133 A 
HETATM   25  N5  UNL     1      60.754  -9.544  12.173  1.00  0.00    -0.364 N 
ATOM     26  H5  UNL     1      60.641 -10.346  12.794  1.00  0.00     0.165 HD
ENDBRANCH   1  18
TORSDOF 8
ENDMDL
MODEL 4
REMARK VINA RESULT: -6.385707032      2.610      6.307
REMARK  8 active torsions:
REMARK  status: ('A' for Active; 'I' for Inactive)
REMARK    1  A    between atoms: C2_2  and  C3_3 
REMARK    2  A    between atoms: C3_3  and  C5_5 
REMARK    3  A    between atoms: C5_5  and  S1_6 
REMARK    4  A    between atoms: S1_6  and  C6_7 
REMARK    5  A    between atoms: C6_7  and  C7_8 
REMARK    6  A    between atoms: C6_7  and  C12_18 
REMARK    7  A    between atoms: C7_8  and  N1_9 
REMARK    8  A    between atoms: N1_9  and  C8_11 
ROOT
HETATM    1  C6  UNL     1      58.341  -8.228  12.617  1.00  0.00     0.136 C 
ENDROOT
BRANCH   1   2
HETATM    2  S1  UNL     1      58.319  -9.309  14.094  1.00  0.00    -0.152 SA
BRANCH   2   3
HETATM    3  C5  UNL     1      56.568  -9.611  14.481  1.00  0.00     0.079 C 
BRANCH   3   4
HETATM    4  C3  UNL     1      56.274  -9.308  15.939  1.00  0.00    -0.010 C 
HETATM    5  C4  UNL     1      56.561 -10.485  16.816  1.00  0.00     0.011 C 
BRANCH   4   6
HETATM    6  C2  UNL     1      54.877  -8.777  16.065  1.00  0.00     0.000 C 
HETATM    7  C1  UNL     1      53.832  -9.839  16.123  1.00  0.00     0.005 C 
ENDBRANCH   4   6
ENDBRANCH   3   4
ENDBRANCH   2   3
ENDBRANCH   1   2
BRANCH   1   8
HETATM    8  C7  UNL     1      57.320  -8.678  11.610  1.00  0.00     0.077 C 
BRANCH   8   9
HETATM    9  N1  UNL     1      56.451  -7.706  11.075  1.00  0.00    -0.394 N 
ATOM     10  H1  UNL     1      56.603  -7.366  10.126  1.00  0.00     0.159 HD
BRANCH   9  11
HETATM   11  C8  UNL     1      55.382  -7.199  11.823  1.00  0.00     0.107 C 
HETATM   12  C9  UNL     1      54.376  -6.313  11.156  1.00  0.00     0.054 C 
HETATM   13  C10 UNL     1      53.909  -5.337  12.242  1.00  0.00     0.234 C 
HETATM   14  N2  UNL     1      54.559  -5.819  13.433  1.00  0.00    -0.073 N 
HETATM   15  C11 UNL     1      55.856  -6.257  12.950  1.00  0.00     0.257 C 
ATOM     16  H22 UNL     1      54.597  -5.145  14.198  1.00  0.00     0.277 HD
ATOM     17  H21 UNL     1      54.035  -6.529  13.945  1.00  0.00     0.277 HD
ENDBRANCH   9  11
ENDBRANCH   8   9
ENDBRANCH   1   8
BRANCH   1  18
HETATM   18  C12 UNL     1      59.730  -8.371  12.046  1.00  0.00     0.043 A 
HETATM   19  C13 UNL     1      60.286  -7.421  11.220  1.00  0.00     0.116 A 
HETATM   20  N3  UNL     1      61.527  -7.570  10.726  1.00  0.00    -0.352 N 
HETATM   21  C14 UNL     1      62.242  -8.685  11.054  1.00  0.00     0.131 A 
ATOM     22  H3  UNL     1      61.929  -6.860  10.114  1.00  0.00     0.166 HD
HETATM   23  N4  UNL     1      63.560  -8.908  10.568  1.00  0.00    -0.081 NA
HETATM   24  C15 UNL     1      61.693  -9.643  11.881  1.00  0.00     0.133 A 
HETATM   25  N5  UNL     1      60.446  -9.450  12.352  1.00  0.00    -0.364 N 
ATOM     26  H5  UNL     1      60.036 -10.155  12.965  1.00  0.00     0.165 HD
ENDBRANCH   1  18
TORSDOF 8
ENDMDL
MODEL 5
REMARK VINA RESULT: -6.185799576      2.096      6.466
REMARK  8 active torsions:
REMARK  status: ('A' for Active; 'I' for Inactive)
REMARK    1  A    between atoms: C2_2  and  C3_3 
REMARK    2  A    between atoms: C3_3  and  C5_5 
REMARK    3  A    between atoms: C5_5  and  S1_6 
REMARK    4  A    between atoms: S1_6  and  C6_7 
REMARK    5  A    between atoms: C6_7  and  C7_8 
REMARK    6  A    between atoms: C6_7  and  C12_18 
REMARK    7  A    between atoms: C7_8  and  N1_9 
REMARK    8  A    between atoms: N1_9  and  C8_11 
ROOT
HETATM    1  C6  UNL     1      57.632  -8.416  13.757  1.00  0.00     0.136 C 
ENDROOT
BRANCH   1   2
HETATM    2  S1  UNL     1      56.797  -7.791  12.253  1.00  0.00    -0.152 SA
BRANCH   2   3
HETATM    3  C5  UNL     1      55.765  -6.392  12.784  1.00  0.00     0.079 C 
BRANCH   3   4
HETATM    4  C3  UNL     1      54.433  -6.393  12.056  1.00  0.00    -0.010 C 
HETATM    5  C4  UNL     1      54.564  -6.930  10.666  1.00  0.00     0.011 C 
BRANCH   4   6
HETATM    6  C2  UNL     1      53.825  -5.024  12.128  1.00  0.00     0.000 C 
HETATM    7  C1  UNL     1      52.676  -4.825  11.200  1.00  0.00     0.005 C 
ENDBRANCH   4   6
ENDBRANCH   3   4
ENDBRANCH   2   3
ENDBRANCH   1   2
BRANCH   1   8
HETATM    8  C7  UNL     1      58.554  -9.554  13.423  1.00  0.00     0.077 C 
BRANCH   8   9
HETATM    9  N1  UNL     1      59.928  -9.271  13.289  1.00  0.00    -0.394 N 
ATOM     10  H1  UNL     1      60.521  -9.261  14.119  1.00  0.00     0.159 HD
BRANCH   9  11
HETATM   11  C8  UNL     1      60.495  -9.003  12.038  1.00  0.00     0.107 C 
HETATM   12  C9  UNL     1      61.806  -9.631  11.677  1.00  0.00     0.054 C 
HETATM   13  C10 UNL     1      62.508  -8.615  10.770  1.00  0.00     0.234 C 
HETATM   14  N2  UNL     1      61.517  -7.588  10.580  1.00  0.00    -0.073 N 
HETATM   15  C11 UNL     1      60.864  -7.513  11.874  1.00  0.00     0.257 C 
ATOM     16  H22 UNL     1      61.887  -6.700  10.239  1.00  0.00     0.277 HD
ATOM     17  H21 UNL     1      60.886  -7.747   9.794  1.00  0.00     0.277 HD
ENDBRANCH   9  11
ENDBRANCH   8   9
ENDBRANCH   1   8
BRANCH   1  18
HETATM   18  C12 UNL     1      56.518  -8.897  14.653  1.00  0.00     0.043 A 
HETATM   19  C13 UNL     1      55.949 -10.143  14.513  1.00  0.00     0.116 A 
HETATM   20  N3  UNL     1      54.959 -10.551  15.325  1.00  0.00    -0.352 N 
HETATM   21  C14 UNL     1      54.517  -9.710  16.304  1.00  0.00     0.131 A 
ATOM     22  H3  UNL     1      54.544 -11.475  15.211  1.00  0.00     0.166 HD
HETATM   23  N4  UNL     1      53.473 -10.075  17.200  1.00  0.00    -0.081 NA
HETATM   24  C15 UNL     1      55.080  -8.460  16.452  1.00  0.00     0.133 A 
HETATM   25  N5  UNL     1      56.070  -8.095  15.615  1.00  0.00    -0.364 N 
ATOM     26  H5  UNL     1      56.491  -7.171  15.721  1.00  0.00     0.165 HD
ENDBRANCH   1  18
TORSDOF 8
ENDMDL
