MODEL 1
REMARK VINA RESULT: -7.157012756      0.000      0.000
REMARK  4 active torsions:
REMARK  status: ('A' for Active; 'I' for Inactive)
REMARK    1  A    between atoms: C6_7  and  C7_8 
REMARK    2  A    between atoms: C9_10  and  N2_11 
REMARK    3  A    between atoms: N2_11  and  C10_13 
REMARK    4  A    between atoms: C13_16  and  N3_17 
ROOT
HETATM    1  N1  UNL     1      18.742  48.560  16.760  1.00  0.00    -0.190 NA
HETATM    2  C1  UNL     1      18.052  47.859  17.362  1.00  0.00     0.117 C 
HETATM    3  C2  UNL     1      17.163  46.981  18.109  1.00  0.00     0.114 A 
HETATM    4  C3  UNL     1      17.677  46.394  19.248  1.00  0.00     0.041 A 
HETATM    5  C4  UNL     1      16.845  45.557  19.970  1.00  0.00     0.005 A 
HETATM    6  C5  UNL     1      15.543  45.350  19.517  1.00  0.00     0.032 A 
HETATM    7  C6  UNL     1      15.049  45.944  18.381  1.00  0.00     0.060 A 
HETATM    8  N7  UNL     1      15.915  46.753  17.720  1.00  0.00    -0.346 N 
ATOM      9  H7  UNL     1      15.587  47.213  16.870  1.00  0.00     0.167 HD
ENDROOT
BRANCH   7  10
HETATM   10  C7  UNL     1      13.699  45.753  17.878  1.00  0.00     0.063 A 
HETATM   11  C8  UNL     1      12.638  45.475  18.692  1.00  0.00     0.080 A 
HETATM   12  C9  UNL     1      11.349  45.296  18.186  1.00  0.00     0.108 A 
HETATM   13  N5  UNL     1      11.195  45.408  16.856  1.00  0.00    -0.339 N 
HETATM   14  C15 UNL     1      12.239  45.683  16.043  1.00  0.00     0.182 A 
ATOM     15  H5  UNL     1      10.268  45.284  16.450  1.00  0.00     0.168 HD
HETATM   16  N6  UNL     1      13.476  45.854  16.544  1.00  0.00    -0.350 N 
ATOM     17  H6  UNL     1      14.251  46.061  15.915  1.00  0.00     0.166 HD
BRANCH  12  18
HETATM   18  N2  UNL     1      10.385  45.036  18.993  1.00  0.00    -0.341 N 
ATOM     19  H2  UNL     1       9.930  44.126  18.913  1.00  0.00     0.167 HD
BRANCH  18  20
HETATM   20  C10 UNL     1       9.914  45.920  19.980  1.00  0.00     0.049 A 
HETATM   21  C11 UNL     1      10.685  46.895  20.562  1.00  0.00     0.035 A 
HETATM   22  C12 UNL     1      10.181  47.726  21.514  1.00  0.00     0.050 A 
HETATM   23  C13 UNL     1       8.850  47.553  21.878  1.00  0.00     0.098 A 
HETATM   24  N4  UNL     1       8.095  46.601  21.310  1.00  0.00    -0.351 N 
HETATM   25  C14 UNL     1       8.606  45.802  20.386  1.00  0.00     0.119 A 
ATOM     26  H4  UNL     1       7.121  46.492  21.593  1.00  0.00     0.166 HD
BRANCH  23  27
HETATM   27  N3  UNL     1       8.323  48.311  22.772  1.00  0.00    -0.385 N 
ATOM     28  H32 UNL     1       7.903  49.194  22.482  1.00  0.00     0.157 HD
ATOM     29  H31 UNL     1       8.331  48.027  23.752  1.00  0.00     0.157 HD
ENDBRANCH  23  27
ENDBRANCH  18  20
ENDBRANCH  12  18
ENDBRANCH   7  10
TORSDOF 4
ENDMDL
MODEL 2
REMARK VINA RESULT: -6.978924359      2.379      7.255
REMARK  4 active torsions:
REMARK  status: ('A' for Active; 'I' for Inactive)
REMARK    1  A    between atoms: C6_7  and  C7_8 
REMARK    2  A    between atoms: C9_10  and  N2_11 
REMARK    3  A    between atoms: N2_11  and  C10_13 
REMARK    4  A    between atoms: C13_16  and  N3_17 
ROOT
HETATM    1  N1  UNL     1      10.142  47.299  21.128  1.00  0.00    -0.190 NA
HETATM    2  C1  UNL     1      10.859  46.675  20.476  1.00  0.00     0.117 C 
HETATM    3  C2  UNL     1      11.781  45.902  19.658  1.00  0.00     0.114 A 
HETATM    4  C3  UNL     1      11.234  44.917  18.860  1.00  0.00     0.041 A 
HETATM    5  C4  UNL     1      12.096  44.173  18.076  1.00  0.00     0.005 A 
HETATM    6  C5  UNL     1      13.462  44.451  18.129  1.00  0.00     0.032 A 
HETATM    7  C6  UNL     1      13.987  45.435  18.929  1.00  0.00     0.060 A 
HETATM    8  N7  UNL     1      13.088  46.128  19.673  1.00  0.00    -0.346 N 
ATOM      9  H7  UNL     1      13.439  46.868  20.281  1.00  0.00     0.167 HD
ENDROOT
BRANCH   7  10
HETATM   10  C7  UNL     1      15.403  45.753  19.011  1.00  0.00     0.063 A 
HETATM   11  C8  UNL     1      16.003  46.677  18.203  1.00  0.00     0.080 A 
HETATM   12  C9  UNL     1      17.365  46.967  18.301  1.00  0.00     0.108 A 
HETATM   13  N5  UNL     1      18.066  46.295  19.229  1.00  0.00    -0.339 N 
HETATM   14  C15 UNL     1      17.482  45.379  20.032  1.00  0.00     0.182 A 
ATOM     15  H5  UNL     1      19.064  46.480  19.329  1.00  0.00     0.168 HD
HETATM   16  N6  UNL     1      16.169  45.109  19.928  1.00  0.00    -0.350 N 
ATOM     17  H6  UNL     1      15.745  44.415  20.543  1.00  0.00     0.166 HD
BRANCH  12  18
HETATM   18  N2  UNL     1      17.881  47.844  17.518  1.00  0.00    -0.341 N 
ATOM     19  H2  UNL     1      18.697  47.571  16.971  1.00  0.00     0.167 HD
BRANCH  18  20
HETATM   20  C10 UNL     1      17.397  49.156  17.365  1.00  0.00     0.049 A 
HETATM   21  C11 UNL     1      16.871  49.643  16.195  1.00  0.00     0.035 A 
HETATM   22  C12 UNL     1      16.415  50.921  16.098  1.00  0.00     0.050 A 
HETATM   23  C13 UNL     1      16.502  51.722  17.232  1.00  0.00     0.098 A 
HETATM   24  N4  UNL     1      17.016  51.248  18.376  1.00  0.00    -0.351 N 
HETATM   25  C14 UNL     1      17.454  50.000  18.449  1.00  0.00     0.119 A 
ATOM     26  H4  UNL     1      17.069  51.852  19.196  1.00  0.00     0.166 HD
BRANCH  23  27
HETATM   27  N3  UNL     1      16.087  52.937  17.195  1.00  0.00    -0.385 N 
ATOM     28  H32 UNL     1      15.176  53.133  16.779  1.00  0.00     0.157 HD
ATOM     29  H31 UNL     1      16.663  53.687  17.579  1.00  0.00     0.157 HD
ENDBRANCH  23  27
ENDBRANCH  18  20
ENDBRANCH  12  18
ENDBRANCH   7  10
TORSDOF 4
ENDMDL
MODEL 3
REMARK VINA RESULT: -6.970343697      3.767      5.569
REMARK  4 active torsions:
REMARK  status: ('A' for Active; 'I' for Inactive)
REMARK    1  A    between atoms: C6_7  and  C7_8 
REMARK    2  A    between atoms: C9_10  and  N2_11 
REMARK    3  A    between atoms: N2_11  and  C10_13 
REMARK    4  A    between atoms: C13_16  and  N3_17 
ROOT
HETATM    1  N1  UNL     1      12.323  37.959  14.436  1.00  0.00    -0.190 NA
HETATM    2  C1  UNL     1      12.793  38.988  14.208  1.00  0.00     0.117 C 
HETATM    3  C2  UNL     1      13.371  40.295  13.937  1.00  0.00     0.114 A 
HETATM    4  C3  UNL     1      14.209  40.393  12.844  1.00  0.00     0.041 A 
HETATM    5  C4  UNL     1      14.767  41.629  12.572  1.00  0.00     0.005 A 
HETATM    6  C5  UNL     1      14.459  42.704  13.405  1.00  0.00     0.032 A 
HETATM    7  C6  UNL     1      13.623  42.587  14.488  1.00  0.00     0.060 A 
HETATM    8  N7  UNL     1      13.109  41.348  14.700  1.00  0.00    -0.346 N 
ATOM      9  H7  UNL     1      12.482  41.220  15.495  1.00  0.00     0.167 HD
ENDROOT
BRANCH   7  10
HETATM   10  C7  UNL     1      13.279  43.682  15.379  1.00  0.00     0.063 A 
HETATM   11  C8  UNL     1      12.558  43.506  16.525  1.00  0.00     0.080 A 
HETATM   12  C9  UNL     1      12.240  44.574  17.367  1.00  0.00     0.108 A 
HETATM   13  N5  UNL     1      12.675  45.791  16.998  1.00  0.00    -0.339 N 
HETATM   14  C15 UNL     1      13.388  45.975  15.866  1.00  0.00     0.182 A 
ATOM     15  H5  UNL     1      12.462  46.595  17.588  1.00  0.00     0.168 HD
HETATM   16  N6  UNL     1      13.688  44.937  15.065  1.00  0.00    -0.350 N 
ATOM     17  H6  UNL     1      14.228  45.095  14.214  1.00  0.00     0.166 HD
BRANCH  12  18
HETATM   18  N2  UNL     1      11.560  44.356  18.434  1.00  0.00    -0.341 N 
ATOM     19  H2  UNL     1      11.361  43.387  18.681  1.00  0.00     0.167 HD
BRANCH  18  20
HETATM   20  C10 UNL     1      11.071  45.363  19.285  1.00  0.00     0.049 A 
HETATM   21  C11 UNL     1      11.867  46.117  20.111  1.00  0.00     0.035 A 
HETATM   22  C12 UNL     1      11.345  47.081  20.916  1.00  0.00     0.050 A 
HETATM   23  C13 UNL     1       9.969  47.278  20.872  1.00  0.00     0.098 A 
HETATM   24  N4  UNL     1       9.189  46.543  20.066  1.00  0.00    -0.351 N 
HETATM   25  C14 UNL     1       9.719  45.609  19.290  1.00  0.00     0.119 A 
ATOM     26  H4  UNL     1       8.183  46.704  20.050  1.00  0.00     0.166 HD
BRANCH  23  27
HETATM   27  N3  UNL     1       9.423  48.176  21.612  1.00  0.00    -0.385 N 
ATOM     28  H32 UNL     1       8.714  48.785  21.204  1.00  0.00     0.157 HD
ATOM     29  H31 UNL     1       9.699  48.270  22.590  1.00  0.00     0.157 HD
ENDBRANCH  23  27
ENDBRANCH  18  20
ENDBRANCH  12  18
ENDBRANCH   7  10
TORSDOF 4
ENDMDL
MODEL 4
REMARK VINA RESULT: -6.958092781      2.158      7.833
REMARK  4 active torsions:
REMARK  status: ('A' for Active; 'I' for Inactive)
REMARK    1  A    between atoms: C6_7  and  C7_8 
REMARK    2  A    between atoms: C9_10  and  N2_11 
REMARK    3  A    between atoms: N2_11  and  C10_13 
REMARK    4  A    between atoms: C13_16  and  N3_17 
ROOT
HETATM    1  N1  UNL     1      10.144  47.344  21.155  1.00  0.00    -0.190 NA
HETATM    2  C1  UNL     1      10.841  46.715  20.485  1.00  0.00     0.117 C 
HETATM    3  C2  UNL     1      11.738  45.937  19.645  1.00  0.00     0.114 A 
HETATM    4  C3  UNL     1      11.174  44.917  18.905  1.00  0.00     0.041 A 
HETATM    5  C4  UNL     1      12.013  44.167  18.100  1.00  0.00     0.005 A 
HETATM    6  C5  UNL     1      13.372  44.475  18.076  1.00  0.00     0.032 A 
HETATM    7  C6  UNL     1      13.915  45.494  18.819  1.00  0.00     0.060 A 
HETATM    8  N7  UNL     1      13.039  46.190  19.587  1.00  0.00    -0.346 N 
ATOM      9  H7  UNL     1      13.404  46.956  20.154  1.00  0.00     0.167 HD
ENDROOT
BRANCH   7  10
HETATM   10  C7  UNL     1      15.326  45.844  18.820  1.00  0.00     0.063 A 
HETATM   11  C8  UNL     1      15.887  46.663  17.882  1.00  0.00     0.080 A 
HETATM   12  C9  UNL     1      17.244  46.986  17.903  1.00  0.00     0.108 A 
HETATM   13  N5  UNL     1      17.982  46.454  18.892  1.00  0.00    -0.339 N 
HETATM   14  C15 UNL     1      17.437  45.642  19.824  1.00  0.00     0.182 A 
ATOM     15  H5  UNL     1      18.978  46.668  18.940  1.00  0.00     0.168 HD
HETATM   16  N6  UNL     1      16.127  45.340  19.792  1.00  0.00    -0.350 N 
ATOM     17  H6  UNL     1      15.733  44.726  20.505  1.00  0.00     0.166 HD
BRANCH  12  18
HETATM   18  N2  UNL     1      17.723  47.760  16.998  1.00  0.00    -0.341 N 
ATOM     19  H2  UNL     1      17.879  47.367  16.070  1.00  0.00     0.167 HD
BRANCH  18  20
HETATM   20  C10 UNL     1      18.048  49.114  17.199  1.00  0.00     0.049 A 
HETATM   21  C11 UNL     1      17.473  49.901  18.166  1.00  0.00     0.035 A 
HETATM   22  C12 UNL     1      17.822  51.206  18.321  1.00  0.00     0.050 A 
HETATM   23  C13 UNL     1      18.787  51.719  17.461  1.00  0.00     0.098 A 
HETATM   24  N4  UNL     1      19.351  50.952  16.516  1.00  0.00    -0.351 N 
HETATM   25  C14 UNL     1      18.996  49.683  16.382  1.00  0.00     0.119 A 
ATOM     26  H4  UNL     1      20.057  51.348  15.896  1.00  0.00     0.166 HD
BRANCH  23  27
HETATM   27  N3  UNL     1      19.155  52.946  17.563  1.00  0.00    -0.385 N 
ATOM     28  H32 UNL     1      19.817  53.319  16.883  1.00  0.00     0.157 HD
ATOM     29  H31 UNL     1      18.786  53.529  18.315  1.00  0.00     0.157 HD
ENDBRANCH  23  27
ENDBRANCH  18  20
ENDBRANCH  12  18
ENDBRANCH   7  10
TORSDOF 4
ENDMDL
MODEL 5
REMARK VINA RESULT: -6.805302913      2.662      3.743
REMARK  4 active torsions:
REMARK  status: ('A' for Active; 'I' for Inactive)
REMARK    1  A    between atoms: C6_7  and  C7_8 
REMARK    2  A    between atoms: C9_10  and  N2_11 
REMARK    3  A    between atoms: N2_11  and  C10_13 
REMARK    4  A    between atoms: C13_16  and  N3_17 
ROOT
HETATM    1  N1  UNL     1      18.357  51.327  19.225  1.00  0.00    -0.190 NA
HETATM    2  C1  UNL     1      17.533  51.059  18.463  1.00  0.00     0.117 C 
HETATM    3  C2  UNL     1      16.499  50.700  17.505  1.00  0.00     0.114 A 
HETATM    4  C3  UNL     1      15.939  51.728  16.774  1.00  0.00     0.041 A 
HETATM    5  C4  UNL     1      14.954  51.404  15.859  1.00  0.00     0.005 A 
HETATM    6  C5  UNL     1      14.580  50.068  15.720  1.00  0.00     0.032 A 
HETATM    7  C6  UNL     1      15.149  49.058  16.456  1.00  0.00     0.060 A 
HETATM    8  N7  UNL     1      16.108  49.443  17.336  1.00  0.00    -0.346 N 
ATOM      9  H7  UNL     1      16.556  48.722  17.902  1.00  0.00     0.167 HD
ENDROOT
BRANCH   7  10
HETATM   10  C7  UNL     1      14.785  47.656  16.339  1.00  0.00     0.063 A 
HETATM   11  C8  UNL     1      14.180  46.962  17.348  1.00  0.00     0.080 A 
HETATM   12  C9  UNL     1      13.839  45.615  17.213  1.00  0.00     0.108 A 
HETATM   13  N5  UNL     1      14.134  45.025  16.043  1.00  0.00    -0.339 N 
HETATM   14  C15 UNL     1      14.732  45.704  15.039  1.00  0.00     0.182 A 
ATOM     15  H5  UNL     1      13.899  44.042  15.908  1.00  0.00     0.168 HD
HETATM   16  N6  UNL     1      15.055  47.002  15.182  1.00  0.00    -0.350 N 
ATOM     17  H6  UNL     1      15.506  47.497  14.414  1.00  0.00     0.166 HD
BRANCH  12  18
HETATM   18  N2  UNL     1      13.271  45.007  18.192  1.00  0.00    -0.341 N 
ATOM     19  H2  UNL     1      13.763  44.218  18.611  1.00  0.00     0.167 HD
BRANCH  18  20
HETATM   20  C10 UNL     1      12.017  45.355  18.724  1.00  0.00     0.049 A 
HETATM   21  C11 UNL     1      10.820  44.996  18.155  1.00  0.00     0.035 A 
HETATM   22  C12 UNL     1       9.632  45.358  18.710  1.00  0.00     0.050 A 
HETATM   23  C13 UNL     1       9.673  46.108  19.881  1.00  0.00     0.098 A 
HETATM   24  N4  UNL     1      10.841  46.459  20.439  1.00  0.00    -0.351 N 
HETATM   25  C14 UNL     1      11.986  46.097  19.881  1.00  0.00     0.119 A 
ATOM     26  H4  UNL     1      10.847  47.009  21.297  1.00  0.00     0.166 HD
BRANCH  23  27
HETATM   27  N3  UNL     1       8.580  46.477  20.448  1.00  0.00    -0.385 N 
ATOM     28  H32 UNL     1       8.568  46.600  21.460  1.00  0.00     0.157 HD
ATOM     29  H31 UNL     1       7.743  46.640  19.887  1.00  0.00     0.157 HD
ENDBRANCH  23  27
ENDBRANCH  18  20
ENDBRANCH  12  18
ENDBRANCH   7  10
TORSDOF 4
ENDMDL
