MODEL 1
REMARK VINA RESULT: -7.458252422      0.000      0.000
REMARK  4 active torsions:
REMARK  status: ('A' for Active; 'I' for Inactive)
REMARK    1  A    between atoms: C4_4  and  N1_5 
REMARK    2  A    between atoms: N1_5  and  C5_7 
REMARK    3  A    between atoms: C10_12  and  C11_13 
REMARK    4  A    between atoms: C11_13  and  N2_14 
ROOT
HETATM    1  C5  UNL     1      12.603  44.086  17.669  1.00  0.00     0.035 A 
HETATM    2  C6  UNL     1      13.547  44.741  18.433  1.00  0.00     0.030 A 
HETATM    3  C7  UNL     1      13.167  45.645  19.413  1.00  0.00     0.016 A 
HETATM    4  C8  UNL     1      11.840  45.929  19.667  1.00  0.00    -0.006 A 
HETATM    5  C9  UNL     1      11.450  46.831  20.643  1.00  0.00     0.042 A 
HETATM    6  C10 UNL     1      10.102  47.077  20.855  1.00  0.00     0.052 A 
HETATM    7  N3  UNL     1       9.225  46.413  20.084  1.00  0.00    -0.303 N 
ATOM      8  H3  UNL     1       8.228  46.577  20.220  1.00  0.00     0.186 HD
HETATM    9  N4  UNL     1       9.609  45.554  19.154  1.00  0.00    -0.300 N 
ATOM     10  H4  UNL     1       8.891  45.083  18.603  1.00  0.00     0.187 HD
HETATM   11  C12 UNL     1      10.901  45.270  18.898  1.00  0.00     0.060 A 
HETATM   12  C13 UNL     1      11.276  44.368  17.920  1.00  0.00     0.061 A 
ENDROOT
BRANCH   1  13
HETATM   13  N1  UNL     1      13.025  43.164  16.672  1.00  0.00    -0.342 N 
ATOM     14  H1  UNL     1      13.475  42.305  16.987  1.00  0.00     0.167 HD
BRANCH  13  15
HETATM   15  C4  UNL     1      12.885  43.326  15.431  1.00  0.00     0.108 A 
HETATM   16  C3  UNL     1      12.308  42.336  14.669  1.00  0.00     0.073 A 
HETATM   17  C2  UNL     1      12.147  42.500  13.289  1.00  0.00     0.010 A 
HETATM   18  C1  UNL     1      11.529  41.447  12.459  1.00  0.00     0.068 C 
HETATM   19  N6  UNL     1      12.573  43.650  12.736  1.00  0.00    -0.350 N 
HETATM   20  C14 UNL     1      13.129  44.590  13.499  1.00  0.00     0.078 A 
ATOM     21  H6  UNL     1      12.471  43.802  11.732  1.00  0.00     0.167 HD
HETATM   22  N5  UNL     1      13.295  44.453  14.838  1.00  0.00    -0.332 N 
HETATM   23  C15 UNL     1      13.586  45.844  12.855  1.00  0.00     0.089 C 
ATOM     24  H5  UNL     1      13.726  45.197  15.386  1.00  0.00     0.168 HD
ENDBRANCH  13  15
ENDBRANCH   1  13
BRANCH   6  25
HETATM   25  C11 UNL     1       9.633  48.026  21.882  1.00  0.00     0.287 C 
BRANCH  25  26
HETATM   26  N2  UNL     1       9.684  49.403  21.444  1.00  0.00    -0.074 N 
ATOM     27  H23 UNL     1       9.338  50.029  22.171  1.00  0.00     0.274 HD
ATOM     28  H22 UNL     1      10.648  49.731  21.386  1.00  0.00     0.274 HD
ATOM     29  H21 UNL     1       9.192  49.559  20.564  1.00  0.00     0.274 HD
ENDBRANCH  25  26
ENDBRANCH   6  25
TORSDOF 4
ENDMDL
MODEL 2
REMARK VINA RESULT: -7.425736052      0.732      1.754
REMARK  4 active torsions:
REMARK  status: ('A' for Active; 'I' for Inactive)
REMARK    1  A    between atoms: C4_4  and  N1_5 
REMARK    2  A    between atoms: N1_5  and  C5_7 
REMARK    3  A    between atoms: C10_12  and  C11_13 
REMARK    4  A    between atoms: C11_13  and  N2_14 
ROOT
HETATM    1  C5  UNL     1      12.582  44.079  17.688  1.00  0.00     0.035 A 
HETATM    2  C6  UNL     1      13.534  44.732  18.444  1.00  0.00     0.030 A 
HETATM    3  C7  UNL     1      13.164  45.646  19.419  1.00  0.00     0.016 A 
HETATM    4  C8  UNL     1      11.840  45.941  19.675  1.00  0.00    -0.006 A 
HETATM    5  C9  UNL     1      11.460  46.853  20.646  1.00  0.00     0.042 A 
HETATM    6  C10 UNL     1      10.114  47.111  20.861  1.00  0.00     0.052 A 
HETATM    7  N3  UNL     1       9.230  46.448  20.097  1.00  0.00    -0.303 N 
ATOM      8  H3  UNL     1       8.234  46.620  20.235  1.00  0.00     0.186 HD
HETATM    9  N4  UNL     1       9.604  45.579  19.171  1.00  0.00    -0.300 N 
ATOM     10  H4  UNL     1       8.882  45.110  18.626  1.00  0.00     0.187 HD
HETATM   11  C12 UNL     1      10.894  45.284  18.914  1.00  0.00     0.060 A 
HETATM   12  C13 UNL     1      11.259  44.372  17.941  1.00  0.00     0.061 A 
ENDROOT
BRANCH   1  13
HETATM   13  N1  UNL     1      12.994  43.147  16.696  1.00  0.00    -0.342 N 
ATOM     14  H1  UNL     1      13.365  42.252  17.016  1.00  0.00     0.167 HD
BRANCH  13  15
HETATM   15  C4  UNL     1      12.936  43.339  15.453  1.00  0.00     0.108 A 
HETATM   16  C3  UNL     1      13.897  44.101  14.829  1.00  0.00     0.073 A 
HETATM   17  C2  UNL     1      13.845  44.325  13.448  1.00  0.00     0.010 A 
HETATM   18  C1  UNL     1      14.870  45.140  12.766  1.00  0.00     0.068 C 
HETATM   19  N6  UNL     1      12.832  43.774  12.757  1.00  0.00    -0.350 N 
HETATM   20  C14 UNL     1      11.917  43.040  13.388  1.00  0.00     0.078 A 
ATOM     21  H6  UNL     1      12.765  43.916  11.749  1.00  0.00     0.167 HD
HETATM   22  N5  UNL     1      11.946  42.811  14.725  1.00  0.00    -0.332 N 
HETATM   23  C15 UNL     1      10.815  42.448  12.594  1.00  0.00     0.089 C 
ATOM     24  H5  UNL     1      11.224  42.244  15.169  1.00  0.00     0.168 HD
ENDBRANCH  13  15
ENDBRANCH   1  13
BRANCH   6  25
HETATM   25  C11 UNL     1       9.657  48.070  21.882  1.00  0.00     0.287 C 
BRANCH  25  26
HETATM   26  N2  UNL     1       9.711  49.443  21.432  1.00  0.00    -0.074 N 
ATOM     27  H23 UNL     1       9.826  49.490  20.420  1.00  0.00     0.274 HD
ATOM     28  H22 UNL     1       8.798  49.891  21.518  1.00  0.00     0.274 HD
ATOM     29  H21 UNL     1      10.430  49.990  21.906  1.00  0.00     0.274 HD
ENDBRANCH  25  26
ENDBRANCH   6  25
TORSDOF 4
ENDMDL
MODEL 3
REMARK VINA RESULT: -7.354330353      1.137      1.731
REMARK  4 active torsions:
REMARK  status: ('A' for Active; 'I' for Inactive)
REMARK    1  A    between atoms: C4_4  and  N1_5 
REMARK    2  A    between atoms: N1_5  and  C5_7 
REMARK    3  A    between atoms: C10_12  and  C11_13 
REMARK    4  A    between atoms: C11_13  and  N2_14 
ROOT
HETATM    1  C5  UNL     1      12.557  44.111  17.635  1.00  0.00     0.035 A 
HETATM    2  C6  UNL     1      13.512  44.761  18.390  1.00  0.00     0.030 A 
HETATM    3  C7  UNL     1      13.145  45.659  19.380  1.00  0.00     0.016 A 
HETATM    4  C8  UNL     1      11.823  45.943  19.653  1.00  0.00    -0.006 A 
HETATM    5  C9  UNL     1      11.446  46.839  20.639  1.00  0.00     0.042 A 
HETATM    6  C10 UNL     1      10.101  47.085  20.871  1.00  0.00     0.052 A 
HETATM    7  N3  UNL     1       9.214  46.426  20.107  1.00  0.00    -0.303 N 
ATOM      8  H3  UNL     1       8.218  46.591  20.257  1.00  0.00     0.186 HD
HETATM    9  N4  UNL     1       9.584  45.572  19.167  1.00  0.00    -0.300 N 
ATOM     10  H4  UNL     1       8.859  45.106  18.623  1.00  0.00     0.187 HD
HETATM   11  C12 UNL     1      10.873  45.289  18.893  1.00  0.00     0.060 A 
HETATM   12  C13 UNL     1      11.234  44.393  17.905  1.00  0.00     0.061 A 
ENDROOT
BRANCH   1  13
HETATM   13  N1  UNL     1      12.965  43.195  16.626  1.00  0.00    -0.342 N 
ATOM     14  H1  UNL     1      13.021  42.209  16.882  1.00  0.00     0.167 HD
BRANCH  13  15
HETATM   15  C4  UNL     1      13.262  43.506  15.442  1.00  0.00     0.108 A 
HETATM   16  C3  UNL     1      12.759  44.659  14.887  1.00  0.00     0.073 A 
HETATM   17  C2  UNL     1      13.079  45.017  13.572  1.00  0.00     0.010 A 
HETATM   18  C1  UNL     1      12.547  46.252  12.963  1.00  0.00     0.068 C 
HETATM   19  N6  UNL     1      13.889  44.201  12.875  1.00  0.00    -0.350 N 
HETATM   20  C14 UNL     1      14.361  43.090  13.440  1.00  0.00     0.078 A 
ATOM     21  H6  UNL     1      14.143  44.432  11.915  1.00  0.00     0.167 HD
HETATM   22  N5  UNL     1      14.064  42.723  14.712  1.00  0.00    -0.332 N 
HETATM   23  C15 UNL     1      15.251  42.215  12.642  1.00  0.00     0.089 C 
ATOM     24  H5  UNL     1      14.446  41.864  15.106  1.00  0.00     0.168 HD
ENDBRANCH  13  15
ENDBRANCH   1  13
BRANCH   6  25
HETATM   25  C11 UNL     1       9.647  48.028  21.909  1.00  0.00     0.287 C 
BRANCH  25  26
HETATM   26  N2  UNL     1       9.747  49.411  21.499  1.00  0.00    -0.074 N 
ATOM     27  H23 UNL     1      10.638  49.590  21.038  1.00  0.00     0.274 HD
ATOM     28  H22 UNL     1       9.115  49.607  20.723  1.00  0.00     0.274 HD
ATOM     29  H21 UNL     1       9.596  50.066  22.267  1.00  0.00     0.274 HD
ENDBRANCH  25  26
ENDBRANCH   6  25
TORSDOF 4
ENDMDL
MODEL 4
REMARK VINA RESULT: -7.241878223      0.819      1.817
REMARK  4 active torsions:
REMARK  status: ('A' for Active; 'I' for Inactive)
REMARK    1  A    between atoms: C4_4  and  N1_5 
REMARK    2  A    between atoms: N1_5  and  C5_7 
REMARK    3  A    between atoms: C10_12  and  C11_13 
REMARK    4  A    between atoms: C11_13  and  N2_14 
ROOT
HETATM    1  C5  UNL     1      12.617  44.367  18.020  1.00  0.00     0.035 A 
HETATM    2  C6  UNL     1      13.491  45.163  18.731  1.00  0.00     0.030 A 
HETATM    3  C7  UNL     1      13.023  46.067  19.673  1.00  0.00     0.016 A 
HETATM    4  C8  UNL     1      11.677  46.211  19.938  1.00  0.00    -0.006 A 
HETATM    5  C9  UNL     1      11.200  47.112  20.877  1.00  0.00     0.042 A 
HETATM    6  C10 UNL     1       9.835  47.215  21.103  1.00  0.00     0.052 A 
HETATM    7  N3  UNL     1       9.030  46.416  20.383  1.00  0.00    -0.303 N 
ATOM      8  H3  UNL     1       8.022  46.473  20.531  1.00  0.00     0.186 HD
HETATM    9  N4  UNL     1       9.496  45.560  19.489  1.00  0.00    -0.300 N 
ATOM     10  H4  UNL     1       8.829  44.983  18.976  1.00  0.00     0.187 HD
HETATM   11  C12 UNL     1      10.809  45.412  19.222  1.00  0.00     0.060 A 
HETATM   12  C13 UNL     1      11.270  44.509  18.283  1.00  0.00     0.061 A 
ENDROOT
BRANCH   1  13
HETATM   13  N1  UNL     1      13.127  43.449  17.061  1.00  0.00    -0.342 N 
ATOM     14  H1  UNL     1      13.790  42.746  17.389  1.00  0.00     0.167 HD
BRANCH  13  15
HETATM   15  C4  UNL     1      12.824  43.435  15.839  1.00  0.00     0.108 A 
HETATM   16  C3  UNL     1      12.564  44.615  15.181  1.00  0.00     0.073 A 
HETATM   17  C2  UNL     1      12.225  44.616  13.823  1.00  0.00     0.010 A 
HETATM   18  C1  UNL     1      11.944  45.875  13.104  1.00  0.00     0.068 C 
HETATM   19  N6  UNL     1      12.163  43.433  13.187  1.00  0.00    -0.350 N 
HETATM   20  C14 UNL     1      12.421  42.306  13.851  1.00  0.00     0.078 A 
ATOM     21  H6  UNL     1      11.920  43.397  12.197  1.00  0.00     0.167 HD
HETATM   22  N5  UNL     1      12.750  42.281  15.166  1.00  0.00    -0.332 N 
HETATM   23  C15 UNL     1      12.343  41.021  13.118  1.00  0.00     0.089 C 
ATOM     24  H5  UNL     1      12.939  41.396  15.637  1.00  0.00     0.168 HD
ENDBRANCH  13  15
ENDBRANCH   1  13
BRANCH   6  25
HETATM   25  C11 UNL     1       9.276  48.155  22.091  1.00  0.00     0.287 C 
BRANCH  25  26
HETATM   26  N2  UNL     1       9.450  49.540  21.713  1.00  0.00    -0.074 N 
ATOM     27  H23 UNL     1       8.557  50.033  21.719  1.00  0.00     0.274 HD
ATOM     28  H22 UNL     1       9.932  50.060  22.447  1.00  0.00     0.274 HD
ATOM     29  H21 UNL     1       9.922  49.653  20.816  1.00  0.00     0.274 HD
ENDBRANCH  25  26
ENDBRANCH   6  25
TORSDOF 4
ENDMDL
MODEL 5
REMARK VINA RESULT: -7.065535100      1.057      1.175
REMARK  4 active torsions:
REMARK  status: ('A' for Active; 'I' for Inactive)
REMARK    1  A    between atoms: C4_4  and  N1_5 
REMARK    2  A    between atoms: N1_5  and  C5_7 
REMARK    3  A    between atoms: C10_12  and  C11_13 
REMARK    4  A    between atoms: C11_13  and  N2_14 
ROOT
HETATM    1  C5  UNL     1      12.520  44.143  17.545  1.00  0.00     0.035 A 
HETATM    2  C6  UNL     1      13.487  44.796  18.282  1.00  0.00     0.030 A 
HETATM    3  C7  UNL     1      13.136  45.679  19.291  1.00  0.00     0.016 A 
HETATM    4  C8  UNL     1      11.818  45.944  19.601  1.00  0.00    -0.006 A 
HETATM    5  C9  UNL     1      11.458  46.825  20.607  1.00  0.00     0.042 A 
HETATM    6  C10 UNL     1      10.116  47.054  20.877  1.00  0.00     0.052 A 
HETATM    7  N3  UNL     1       9.217  46.393  20.128  1.00  0.00    -0.303 N 
ATOM      8  H3  UNL     1       8.224  46.544  20.306  1.00  0.00     0.186 HD
HETATM    9  N4  UNL     1       9.572  45.554  19.170  1.00  0.00    -0.300 N 
ATOM     10  H4  UNL     1       8.838  45.085  18.639  1.00  0.00     0.187 HD
HETATM   11  C12 UNL     1      10.857  45.288  18.859  1.00  0.00     0.060 A 
HETATM   12  C13 UNL     1      11.201  44.406  17.852  1.00  0.00     0.061 A 
ENDROOT
BRANCH   1  13
HETATM   13  N1  UNL     1      12.911  43.243  16.516  1.00  0.00    -0.342 N 
ATOM     14  H1  UNL     1      13.057  42.267  16.775  1.00  0.00     0.167 HD
BRANCH  13  15
HETATM   15  C4  UNL     1      13.093  43.555  15.309  1.00  0.00     0.108 A 
HETATM   16  C3  UNL     1      14.030  42.885  14.559  1.00  0.00     0.073 A 
HETATM   17  C2  UNL     1      14.244  43.222  13.217  1.00  0.00     0.010 A 
HETATM   18  C1  UNL     1      15.247  42.511  12.399  1.00  0.00     0.068 C 
HETATM   19  N6  UNL     1      13.506  44.215  12.690  1.00  0.00    -0.350 N 
HETATM   20  C14 UNL     1      12.605  44.846  13.442  1.00  0.00     0.078 A 
ATOM     21  H6  UNL     1      13.636  44.486  11.715  1.00  0.00     0.167 HD
HETATM   22  N5  UNL     1      12.382  44.537  14.744  1.00  0.00    -0.332 N 
HETATM   23  C15 UNL     1      11.811  45.936  12.828  1.00  0.00     0.089 C 
ATOM     24  H5  UNL     1      11.683  45.046  15.285  1.00  0.00     0.168 HD
ENDBRANCH  13  15
ENDBRANCH   1  13
BRANCH   6  25
HETATM   25  C11 UNL     1       9.679  47.980  21.936  1.00  0.00     0.287 C 
BRANCH  25  26
HETATM   26  N2  UNL     1       9.664  49.361  21.509  1.00  0.00    -0.074 N 
ATOM     27  H23 UNL     1       9.106  49.932  22.144  1.00  0.00     0.274 HD
ATOM     28  H22 UNL     1      10.575  49.796  21.650  1.00  0.00     0.274 HD
ATOM     29  H21 UNL     1       9.350  49.477  20.545  1.00  0.00     0.274 HD
ENDBRANCH  25  26
ENDBRANCH   6  25
TORSDOF 4
ENDMDL
