MODEL 1
REMARK VINA RESULT: -7.840766029      0.000      0.000
REMARK  3 active torsions:
REMARK  status: ('A' for Active; 'I' for Inactive)
REMARK    1  A    between atoms: C2_2  and  N1_4 
REMARK    2  A    between atoms: C5_6  and  C6_7 
REMARK    3  A    between atoms: C10_13  and  N3_14 
ROOT
HETATM    1  C6  UNL     1      10.999  44.903  18.419  1.00  0.00    -0.021 A 
HETATM    2  C7  UNL     1      12.207  44.335  18.778  1.00  0.00     0.014 A 
HETATM    3  C8  UNL     1      12.934  43.677  17.816  1.00  0.00     0.033 A 
HETATM    4  C9  UNL     1      12.516  43.556  16.510  1.00  0.00     0.060 A 
HETATM    5  N2  UNL     1      13.208  42.917  15.546  1.00  0.00    -0.339 N 
ATOM      6  H2  UNL     1      14.101  42.491  15.795  1.00  0.00     0.167 HD
HETATM    7  C10 UNL     1      12.786  42.809  14.273  1.00  0.00     0.137 A 
HETATM    8  C11 UNL     1      11.572  43.387  13.937  1.00  0.00     0.158 A 
HETATM    9  C12 UNL     1      11.111  43.281  12.587  1.00  0.00     0.121 C 
HETATM   10  N4  UNL     1      10.755  43.184  11.490  1.00  0.00    -0.190 NA
HETATM   11  N5  UNL     1      10.854  44.040  14.898  1.00  0.00    -0.343 N 
ATOM     12  H5  UNL     1       9.961  44.464  14.647  1.00  0.00     0.167 HD
HETATM   13  C13 UNL     1      11.292  44.138  16.163  1.00  0.00     0.061 A 
HETATM   14  C14 UNL     1      10.559  44.792  17.102  1.00  0.00     0.044 A 
ENDROOT
BRANCH   7  15
HETATM   15  N3  UNL     1      13.481  42.186  13.383  1.00  0.00    -0.383 N 
ATOM     16  H32 UNL     1      14.479  42.027  13.524  1.00  0.00     0.157 HD
ATOM     17  H31 UNL     1      13.058  41.842  12.521  1.00  0.00     0.157 HD
ENDBRANCH   7  15
BRANCH   1  18
HETATM   18  C5  UNL     1      10.171  45.621  19.386  1.00  0.00     0.008 A 
HETATM   19  C4  UNL     1      10.573  46.589  20.297  1.00  0.00     0.124 A 
HETATM   20  N1  UNL     1       9.520  47.009  21.014  1.00  0.00    -0.299 N 
HETATM   21  N6  UNL     1       8.470  46.334  20.579  1.00  0.00    -0.309 N 
HETATM   22  C15 UNL     1       8.817  45.486  19.598  1.00  0.00     0.121 A 
ATOM     23  H6  UNL     1       7.522  46.442  20.941  1.00  0.00     0.186 HD
BRANCH  20  24
HETATM   24  C2  UNL     1       9.536  48.027  22.075  1.00  0.00     0.099 C 
HETATM   25  C1  UNL     1       8.203  48.012  22.746  1.00  0.00     0.034 C 
HETATM   26  C3  UNL     1       9.908  49.360  21.502  1.00  0.00     0.034 C 
ENDBRANCH  20  24
ENDBRANCH   1  18
TORSDOF 3
ENDMDL
MODEL 2
REMARK VINA RESULT: -7.258256322      3.683      7.264
REMARK  3 active torsions:
REMARK  status: ('A' for Active; 'I' for Inactive)
REMARK    1  A    between atoms: C2_2  and  N1_4 
REMARK    2  A    between atoms: C5_6  and  C6_7 
REMARK    3  A    between atoms: C10_13  and  N3_14 
ROOT
HETATM    1  C6  UNL     1      13.715  45.558  18.598  1.00  0.00    -0.021 A 
HETATM    2  C7  UNL     1      13.205  44.901  17.492  1.00  0.00     0.014 A 
HETATM    3  C8  UNL     1      11.848  44.716  17.408  1.00  0.00     0.033 A 
HETATM    4  C9  UNL     1      10.967  45.154  18.373  1.00  0.00     0.060 A 
HETATM    5  N2  UNL     1       9.631  44.986  18.316  1.00  0.00    -0.339 N 
ATOM      6  H2  UNL     1       9.240  44.503  17.507  1.00  0.00     0.167 HD
HETATM    7  C10 UNL     1       8.785  45.421  19.267  1.00  0.00     0.137 A 
HETATM    8  C11 UNL     1       9.320  46.077  20.365  1.00  0.00     0.158 A 
HETATM    9  C12 UNL     1       8.431  46.546  21.384  1.00  0.00     0.121 C 
HETATM   10  N4  UNL     1       7.697  46.917  22.197  1.00  0.00    -0.190 NA
HETATM   11  N5  UNL     1      10.670  46.258  20.443  1.00  0.00    -0.343 N 
ATOM     12  H5  UNL     1      11.060  46.740  21.252  1.00  0.00     0.167 HD
HETATM   13  C13 UNL     1      11.500  45.817  19.483  1.00  0.00     0.061 A 
HETATM   14  C14 UNL     1      12.841  46.009  19.584  1.00  0.00     0.044 A 
ENDROOT
BRANCH   7  15
HETATM   15  N3  UNL     1       7.512  45.238  19.172  1.00  0.00    -0.383 N 
ATOM     16  H32 UNL     1       7.049  45.292  18.265  1.00  0.00     0.157 HD
ATOM     17  H31 UNL     1       6.940  45.038  19.992  1.00  0.00     0.157 HD
ENDBRANCH   7  15
BRANCH   1  18
HETATM   18  C5  UNL     1      15.148  45.794  18.756  1.00  0.00     0.008 A 
HETATM   19  C4  UNL     1      15.995  45.272  19.725  1.00  0.00     0.124 A 
HETATM   20  N1  UNL     1      17.243  45.728  19.538  1.00  0.00    -0.299 N 
HETATM   21  N6  UNL     1      17.203  46.521  18.481  1.00  0.00    -0.309 N 
HETATM   22  C15 UNL     1      15.960  46.589  17.978  1.00  0.00     0.121 A 
ATOM     23  H6  UNL     1      18.010  47.014  18.097  1.00  0.00     0.186 HD
BRANCH  20  24
HETATM   24  C2  UNL     1      18.422  45.403  20.353  1.00  0.00     0.099 C 
HETATM   25  C1  UNL     1      19.563  45.144  19.425  1.00  0.00     0.034 C 
HETATM   26  C3  UNL     1      18.116  44.256  21.266  1.00  0.00     0.034 C 
ENDBRANCH  20  24
ENDBRANCH   1  18
TORSDOF 3
ENDMDL
MODEL 3
REMARK VINA RESULT: -6.873328745      3.681      7.298
REMARK  3 active torsions:
REMARK  status: ('A' for Active; 'I' for Inactive)
REMARK    1  A    between atoms: C2_2  and  N1_4 
REMARK    2  A    between atoms: C5_6  and  C6_7 
REMARK    3  A    between atoms: C10_13  and  N3_14 
ROOT
HETATM    1  C6  UNL     1      13.615  45.588  18.569  1.00  0.00    -0.021 A 
HETATM    2  C7  UNL     1      13.093  44.896  17.492  1.00  0.00     0.014 A 
HETATM    3  C8  UNL     1      11.736  44.690  17.442  1.00  0.00     0.033 A 
HETATM    4  C9  UNL     1      10.870  45.140  18.413  1.00  0.00     0.060 A 
HETATM    5  N2  UNL     1       9.536  44.952  18.389  1.00  0.00    -0.339 N 
ATOM      6  H2  UNL     1       9.134  44.443  17.602  1.00  0.00     0.167 HD
HETATM    7  C10 UNL     1       8.703  45.400  19.346  1.00  0.00     0.137 A 
HETATM    8  C11 UNL     1       9.251  46.091  20.416  1.00  0.00     0.158 A 
HETATM    9  C12 UNL     1       8.377  46.575  21.441  1.00  0.00     0.121 C 
HETATM   10  N4  UNL     1       7.654  46.957  22.260  1.00  0.00    -0.190 NA
HETATM   11  N5  UNL     1      10.600  46.293  20.460  1.00  0.00    -0.343 N 
ATOM     12  H5  UNL     1      11.000  46.802  21.249  1.00  0.00     0.167 HD
HETATM   13  C13 UNL     1      11.416  45.840  19.495  1.00  0.00     0.061 A 
HETATM   14  C14 UNL     1      12.756  46.052  19.562  1.00  0.00     0.044 A 
ENDROOT
BRANCH   7  15
HETATM   15  N3  UNL     1       7.431  45.197  19.283  1.00  0.00    -0.383 N 
ATOM     16  H32 UNL     1       6.851  45.747  18.650  1.00  0.00     0.157 HD
ATOM     17  H31 UNL     1       6.975  44.490  19.859  1.00  0.00     0.157 HD
ENDBRANCH   7  15
BRANCH   1  18
HETATM   18  C5  UNL     1      15.048  45.849  18.691  1.00  0.00     0.008 A 
HETATM   19  C4  UNL     1      15.874  46.508  17.790  1.00  0.00     0.124 A 
HETATM   20  N1  UNL     1      17.130  46.544  18.259  1.00  0.00    -0.299 N 
HETATM   21  N6  UNL     1      17.117  45.927  19.428  1.00  0.00    -0.309 N 
HETATM   22  C15 UNL     1      15.882  45.492  19.727  1.00  0.00     0.121 A 
ATOM     23  H6  UNL     1      17.935  45.798  20.023  1.00  0.00     0.186 HD
BRANCH  20  24
HETATM   24  C2  UNL     1      18.291  47.156  17.597  1.00  0.00     0.099 C 
HETATM   25  C1  UNL     1      17.869  48.487  17.070  1.00  0.00     0.034 C 
HETATM   26  C3  UNL     1      18.830  46.234  16.547  1.00  0.00     0.034 C 
ENDBRANCH  20  24
ENDBRANCH   1  18
TORSDOF 3
ENDMDL
MODEL 4
REMARK VINA RESULT: -6.742849579      1.369      2.544
REMARK  3 active torsions:
REMARK  status: ('A' for Active; 'I' for Inactive)
REMARK    1  A    between atoms: C2_2  and  N1_4 
REMARK    2  A    between atoms: C5_6  and  C6_7 
REMARK    3  A    between atoms: C10_13  and  N3_14 
ROOT
HETATM    1  C6  UNL     1      11.211  44.969  17.534  1.00  0.00    -0.021 A 
HETATM    2  C7  UNL     1      10.052  44.973  16.780  1.00  0.00     0.014 A 
HETATM    3  C8  UNL     1      10.048  44.302  15.582  1.00  0.00     0.033 A 
HETATM    4  C9  UNL     1      11.144  43.624  15.095  1.00  0.00     0.060 A 
HETATM    5  N2  UNL     1      11.167  42.958  13.924  1.00  0.00    -0.339 N 
ATOM      6  H2  UNL     1      10.321  42.952  13.355  1.00  0.00     0.167 HD
HETATM    7  C10 UNL     1      12.247  42.300  13.463  1.00  0.00     0.137 A 
HETATM    8  C11 UNL     1      13.397  42.311  14.238  1.00  0.00     0.158 A 
HETATM    9  C12 UNL     1      14.552  41.614  13.761  1.00  0.00     0.121 C 
HETATM   10  N4  UNL     1      15.476  41.046  13.358  1.00  0.00    -0.190 NA
HETATM   11  N5  UNL     1      13.395  42.979  15.428  1.00  0.00    -0.343 N 
ATOM     12  H5  UNL     1      14.242  42.985  15.995  1.00  0.00     0.167 HD
HETATM   13  C13 UNL     1      12.307  43.630  15.872  1.00  0.00     0.061 A 
HETATM   14  C14 UNL     1      12.330  44.289  17.059  1.00  0.00     0.044 A 
ENDROOT
BRANCH   7  15
HETATM   15  N3  UNL     1      12.225  41.676  12.335  1.00  0.00    -0.383 N 
ATOM     16  H32 UNL     1      12.062  42.184  11.466  1.00  0.00     0.157 HD
ATOM     17  H31 UNL     1      12.368  40.667  12.281  1.00  0.00     0.157 HD
ENDBRANCH   7  15
BRANCH   1  18
HETATM   18  C5  UNL     1      11.291  45.658  18.820  1.00  0.00     0.008 A 
HETATM   19  C4  UNL     1      10.244  46.133  19.599  1.00  0.00     0.124 A 
HETATM   20  N1  UNL     1      10.723  46.711  20.710  1.00  0.00    -0.299 N 
HETATM   21  N6  UNL     1      12.040  46.612  20.653  1.00  0.00    -0.309 N 
HETATM   22  C15 UNL     1      12.426  45.984  19.530  1.00  0.00     0.121 A 
ATOM     23  H6  UNL     1      12.679  46.965  21.366  1.00  0.00     0.186 HD
BRANCH  20  24
HETATM   24  C2  UNL     1       9.932  47.328  21.784  1.00  0.00     0.099 C 
HETATM   25  C1  UNL     1       8.580  46.694  21.780  1.00  0.00     0.034 C 
HETATM   26  C3  UNL     1       9.900  48.816  21.609  1.00  0.00     0.034 C 
ENDBRANCH  20  24
ENDBRANCH   1  18
TORSDOF 3
ENDMDL
MODEL 5
REMARK VINA RESULT: -6.707249147      3.673      7.720
REMARK  3 active torsions:
REMARK  status: ('A' for Active; 'I' for Inactive)
REMARK    1  A    between atoms: C2_2  and  N1_4 
REMARK    2  A    between atoms: C5_6  and  C6_7 
REMARK    3  A    between atoms: C10_13  and  N3_14 
ROOT
HETATM    1  C6  UNL     1      13.501  45.667  18.968  1.00  0.00    -0.021 A 
HETATM    2  C7  UNL     1      12.776  44.732  18.251  1.00  0.00     0.014 A 
HETATM    3  C8  UNL     1      11.426  44.634  18.480  1.00  0.00     0.033 A 
HETATM    4  C9  UNL     1      10.758  45.423  19.391  1.00  0.00     0.060 A 
HETATM    5  N2  UNL     1       9.435  45.348  19.636  1.00  0.00    -0.339 N 
ATOM      6  H2  UNL     1       8.886  44.663  19.117  1.00  0.00     0.167 HD
HETATM    7  C10 UNL     1       8.798  46.127  20.529  1.00  0.00     0.137 A 
HETATM    8  C11 UNL     1       9.547  47.056  21.235  1.00  0.00     0.158 A 
HETATM    9  C12 UNL     1       8.882  47.892  22.188  1.00  0.00     0.121 C 
HETATM   10  N4  UNL     1       8.327  48.558  22.953  1.00  0.00    -0.190 NA
HETATM   11  N5  UNL     1      10.889  47.149  21.002  1.00  0.00    -0.343 N 
ATOM     12  H5  UNL     1      11.436  47.833  21.524  1.00  0.00     0.167 HD
HETATM   13  C13 UNL     1      11.507  46.363  20.106  1.00  0.00     0.061 A 
HETATM   14  C14 UNL     1      12.845  46.474  19.893  1.00  0.00     0.044 A 
ENDROOT
BRANCH   7  15
HETATM   15  N3  UNL     1       7.529  46.021  20.733  1.00  0.00    -0.383 N 
ATOM     16  H32 UNL     1       7.025  45.189  20.425  1.00  0.00     0.157 HD
ATOM     17  H31 UNL     1       7.001  46.757  21.200  1.00  0.00     0.157 HD
ENDBRANCH   7  15
BRANCH   1  18
HETATM   18  C5  UNL     1      14.941  45.832  18.776  1.00  0.00     0.008 A 
HETATM   19  C4  UNL     1      15.596  46.400  17.692  1.00  0.00     0.124 A 
HETATM   20  N1  UNL     1      16.923  46.365  17.887  1.00  0.00    -0.299 N 
HETATM   21  N6  UNL     1      17.119  45.792  19.062  1.00  0.00    -0.309 N 
HETATM   22  C15 UNL     1      15.951  45.455  19.632  1.00  0.00     0.121 A 
ATOM     23  H6  UNL     1      18.035  45.628  19.480  1.00  0.00     0.186 HD
BRANCH  20  24
HETATM   24  C2  UNL     1      17.953  46.872  16.970  1.00  0.00     0.099 C 
HETATM   25  C1  UNL     1      17.943  48.362  17.046  1.00  0.00     0.034 C 
HETATM   26  C3  UNL     1      17.722  46.337  15.590  1.00  0.00     0.034 C 
ENDBRANCH  20  24
ENDBRANCH   1  18
TORSDOF 3
ENDMDL
