MODEL 1
REMARK VINA RESULT: -6.330103790      0.000      0.000
REMARK  2 active torsions:
REMARK  status: ('A' for Active; 'I' for Inactive)
REMARK    1  A    between atoms: C2_2  and  N1_3 
REMARK       I    between atoms: C3_5  and  N2_6 
REMARK       I    between atoms: C3_5  and  N3_9 
REMARK    2  A    between atoms: C8_13  and  N4_14 
REMARK       I    between atoms: N4_14  and  C9_16 
REMARK       I    between atoms: N6_18  and  C10_20 
ROOT
HETATM    1  N1  UNL     1      11.599 -14.711  21.913  1.00  0.00    -0.227 N 
ATOM      2  H1  UNL     1      10.639 -14.751  22.257  1.00  0.00     0.177 HD
HETATM    3  C3  UNL     1      12.225 -13.598  21.882  1.00  0.00     0.673 C 
HETATM    4  N2  UNL     1      11.534 -12.430  22.342  1.00  0.00    -0.231 N 
ATOM      5  H2  UNL     1      11.046 -11.841  21.667  1.00  0.00     0.177 HD
HETATM    6  C4  UNL     1      11.512 -12.068  23.744  1.00  0.00     0.165 C 
HETATM    7  N3  UNL     1      13.557 -13.409  21.429  1.00  0.00    -0.197 N 
HETATM    8  C5  UNL     1      14.810 -13.980  21.891  1.00  0.00     0.143 C 
HETATM    9  C6  UNL     1      15.884 -12.959  21.578  1.00  0.00     0.024 C 
HETATM   10  C7  UNL     1      15.101 -11.788  21.029  1.00  0.00     0.049 C 
HETATM   11  C8  UNL     1      13.958 -12.538  20.330  1.00  0.00     0.204 C 
ENDROOT
BRANCH  11  12
HETATM   12  N4  UNL     1      14.457 -13.379  19.274  1.00  0.00    -0.343 N 
HETATM   13  C9  UNL     1      15.011 -12.881  18.065  1.00  0.00     0.192 C 
HETATM   14  N5  UNL     1      16.201 -13.477  17.560  1.00  0.00    -0.063 NA
HETATM   15  N6  UNL     1      14.488 -11.919  17.410  1.00  0.00    -0.305 N 
HETATM   16  C10 UNL     1      15.036 -11.429  16.218  1.00  0.00     0.188 C 
ATOM     17  H6  UNL     1      13.635 -11.488  17.769  1.00  0.00     0.171 HD
HETATM   18  N7  UNL     1      15.976 -10.534  16.155  1.00  0.00    -0.373 N 
HETATM   19  N8  UNL     1      14.550 -11.930  14.979  1.00  0.00    -0.064 NA
ATOM     20  H72 UNL     1      16.325 -10.176  17.044  1.00  0.00     0.158 HD
ATOM     21  H71 UNL     1      16.375 -10.178  15.286  1.00  0.00     0.158 HD
ATOM     22  H4  UNL     1      14.410 -14.390  19.402  1.00  0.00     0.164 HD
ENDBRANCH  11  12
BRANCH   1  23
HETATM   23  C2  UNL     1      12.255 -15.901  21.461  1.00  0.00     0.133 C 
HETATM   24  C1  UNL     1      11.945 -16.218  20.015  1.00  0.00     0.027 C 
ENDBRANCH   1  23
TORSDOF 2
ENDMDL
MODEL 2
REMARK VINA RESULT: -6.318200858      4.488      6.811
REMARK  2 active torsions:
REMARK  status: ('A' for Active; 'I' for Inactive)
REMARK    1  A    between atoms: C2_2  and  N1_3 
REMARK       I    between atoms: C3_5  and  N2_6 
REMARK       I    between atoms: C3_5  and  N3_9 
REMARK    2  A    between atoms: C8_13  and  N4_14 
REMARK       I    between atoms: N4_14  and  C9_16 
REMARK       I    between atoms: N6_18  and  C10_20 
ROOT
HETATM    1  N1  UNL     1      20.318 -15.280  21.046  1.00  0.00    -0.227 N 
ATOM      2  H1  UNL     1      20.781 -15.716  20.248  1.00  0.00     0.177 HD
HETATM    3  C3  UNL     1      19.735 -16.001  21.925  1.00  0.00     0.673 C 
HETATM    4  N2  UNL     1      19.761 -17.423  21.745  1.00  0.00    -0.231 N 
ATOM      5  H2  UNL     1      18.980 -17.880  21.275  1.00  0.00     0.177 HD
HETATM    6  C4  UNL     1      20.871 -18.224  22.217  1.00  0.00     0.165 C 
HETATM    7  N3  UNL     1      19.059 -15.520  23.077  1.00  0.00    -0.197 N 
HETATM    8  C5  UNL     1      19.532 -14.723  24.195  1.00  0.00     0.143 C 
HETATM    9  C6  UNL     1      18.670 -15.104  25.382  1.00  0.00     0.024 C 
HETATM   10  C7  UNL     1      17.802 -16.215  24.838  1.00  0.00     0.049 C 
HETATM   11  C8  UNL     1      17.652 -15.748  23.384  1.00  0.00     0.204 C 
ENDROOT
BRANCH  11  12
HETATM   12  N4  UNL     1      16.983 -14.476  23.313  1.00  0.00    -0.343 N 
HETATM   13  C9  UNL     1      16.297 -14.009  22.160  1.00  0.00     0.192 C 
HETATM   14  N5  UNL     1      15.027 -13.388  22.324  1.00  0.00    -0.063 NA
HETATM   15  N6  UNL     1      16.770 -14.125  20.980  1.00  0.00    -0.305 N 
HETATM   16  C10 UNL     1      16.091 -13.664  19.845  1.00  0.00     0.188 C 
ATOM     17  H6  UNL     1      17.680 -14.570  20.859  1.00  0.00     0.171 HD
HETATM   18  N7  UNL     1      15.191 -14.343  19.202  1.00  0.00    -0.373 N 
HETATM   19  N8  UNL     1      16.389 -12.367  19.343  1.00  0.00    -0.064 NA
ATOM     20  H72 UNL     1      14.977 -15.273  19.562  1.00  0.00     0.158 HD
ATOM     21  H71 UNL     1      14.696 -14.008  18.375  1.00  0.00     0.158 HD
ATOM     22  H4  UNL     1      17.004 -13.875  24.137  1.00  0.00     0.164 HD
ENDBRANCH  11  12
BRANCH   1  23
HETATM   23  C2  UNL     1      20.315 -13.855  21.190  1.00  0.00     0.133 C 
HETATM   24  C1  UNL     1      20.448 -13.141  19.863  1.00  0.00     0.027 C 
ENDBRANCH   1  23
TORSDOF 2
ENDMDL
MODEL 3
REMARK VINA RESULT: -6.282507160      2.381      4.658
REMARK  2 active torsions:
REMARK  status: ('A' for Active; 'I' for Inactive)
REMARK    1  A    between atoms: C2_2  and  N1_3 
REMARK       I    between atoms: C3_5  and  N2_6 
REMARK       I    between atoms: C3_5  and  N3_9 
REMARK    2  A    between atoms: C8_13  and  N4_14 
REMARK       I    between atoms: N4_14  and  C9_16 
REMARK       I    between atoms: N6_18  and  C10_20 
ROOT
HETATM    1  N1  UNL     1      13.919 -15.439  22.307  1.00  0.00    -0.227 N 
ATOM      2  H1  UNL     1      14.046 -15.900  23.208  1.00  0.00     0.177 HD
HETATM    3  C3  UNL     1      14.911 -14.888  21.720  1.00  0.00     0.673 C 
HETATM    4  N2  UNL     1      16.186 -14.944  22.370  1.00  0.00    -0.231 N 
ATOM      5  H2  UNL     1      16.479 -14.167  22.963  1.00  0.00     0.177 HD
HETATM    6  C4  UNL     1      17.069 -16.080  22.206  1.00  0.00     0.165 C 
HETATM    7  N3  UNL     1      14.866 -14.218  20.469  1.00  0.00    -0.197 N 
HETATM    8  C5  UNL     1      14.483 -14.690  19.150  1.00  0.00     0.143 C 
HETATM    9  C6  UNL     1      15.266 -13.856  18.156  1.00  0.00     0.024 C 
HETATM   10  C7  UNL     1      16.152 -13.006  19.038  1.00  0.00     0.049 C 
HETATM   11  C8  UNL     1      15.224 -12.822  20.247  1.00  0.00     0.204 C 
ENDROOT
BRANCH  11  12
HETATM   12  N4  UNL     1      14.022 -12.123  19.878  1.00  0.00    -0.343 N 
HETATM   13  C9  UNL     1      13.293 -11.286  20.765  1.00  0.00     0.192 C 
HETATM   14  N5  UNL     1      12.814 -10.034  20.287  1.00  0.00    -0.063 NA
HETATM   15  N6  UNL     1      13.049 -11.608  21.975  1.00  0.00    -0.305 N 
HETATM   16  C10 UNL     1      12.331 -10.781  22.848  1.00  0.00     0.188 C 
ATOM     17  H6  UNL     1      13.392 -12.505  22.322  1.00  0.00     0.171 HD
HETATM   18  N7  UNL     1      12.854  -9.821  23.548  1.00  0.00    -0.373 N 
HETATM   19  N8  UNL     1      10.930 -10.985  22.995  1.00  0.00    -0.064 NA
ATOM     20  H72 UNL     1      13.858  -9.675  23.443  1.00  0.00     0.158 HD
ATOM     21  H71 UNL     1      12.331  -9.219  24.184  1.00  0.00     0.158 HD
ATOM     22  H4  UNL     1      13.673 -12.235  18.926  1.00  0.00     0.164 HD
ENDBRANCH  11  12
BRANCH   1  23
HETATM   23  C2  UNL     1      12.627 -15.405  21.688  1.00  0.00     0.133 C 
HETATM   24  C1  UNL     1      12.176 -16.770  21.217  1.00  0.00     0.027 C 
ENDBRANCH   1  23
TORSDOF 2
ENDMDL
MODEL 4
REMARK VINA RESULT: -6.249889847      3.143      5.686
REMARK  2 active torsions:
REMARK  status: ('A' for Active; 'I' for Inactive)
REMARK    1  A    between atoms: C2_2  and  N1_3 
REMARK       I    between atoms: C3_5  and  N2_6 
REMARK       I    between atoms: C3_5  and  N3_9 
REMARK    2  A    between atoms: C8_13  and  N4_14 
REMARK       I    between atoms: N4_14  and  C9_16 
REMARK       I    between atoms: N6_18  and  C10_20 
ROOT
HETATM    1  N1  UNL     1      18.633 -14.057  22.717  1.00  0.00    -0.227 N 
ATOM      2  H1  UNL     1      19.434 -13.619  23.171  1.00  0.00     0.177 HD
HETATM    3  C3  UNL     1      18.369 -13.805  21.492  1.00  0.00     0.673 C 
HETATM    4  N2  UNL     1      19.233 -12.897  20.797  1.00  0.00    -0.231 N 
ATOM      5  H2  UNL     1      18.984 -11.909  20.751  1.00  0.00     0.177 HD
HETATM    6  C4  UNL     1      20.452 -13.351  20.160  1.00  0.00     0.165 C 
HETATM    7  N3  UNL     1      17.290 -14.348  20.747  1.00  0.00    -0.197 N 
HETATM    8  C5  UNL     1      16.950 -15.724  20.428  1.00  0.00     0.143 C 
HETATM    9  C6  UNL     1      16.201 -15.682  19.112  1.00  0.00     0.024 C 
HETATM   10  C7  UNL     1      16.269 -14.224  18.720  1.00  0.00     0.049 C 
HETATM   11  C8  UNL     1      16.232 -13.573  20.110  1.00  0.00     0.204 C 
ENDROOT
BRANCH  11  12
HETATM   12  N4  UNL     1      15.003 -13.878  20.794  1.00  0.00    -0.343 N 
HETATM   13  C9  UNL     1      13.944 -12.946  20.965  1.00  0.00     0.192 C 
HETATM   14  N5  UNL     1      12.607 -13.381  20.748  1.00  0.00    -0.063 NA
HETATM   15  N6  UNL     1      14.142 -11.732  21.305  1.00  0.00    -0.305 N 
HETATM   16  C10 UNL     1      13.096 -10.815  21.474  1.00  0.00     0.188 C 
ATOM     17  H6  UNL     1      15.099 -11.416  21.461  1.00  0.00     0.171 HD
HETATM   18  N7  UNL     1      12.566 -10.121  20.512  1.00  0.00    -0.373 N 
HETATM   19  N8  UNL     1      12.560 -10.611  22.776  1.00  0.00    -0.064 NA
ATOM     20  H72 UNL     1      12.950 -10.267  19.579  1.00  0.00     0.158 HD
ATOM     21  H71 UNL     1      11.805  -9.453  20.635  1.00  0.00     0.158 HD
ATOM     22  H4  UNL     1      14.885 -14.815  21.177  1.00  0.00     0.164 HD
ENDBRANCH  11  12
BRANCH   1  23
HETATM   23  C2  UNL     1      17.793 -14.960  23.446  1.00  0.00     0.133 C 
HETATM   24  C1  UNL     1      18.188 -15.067  24.902  1.00  0.00     0.027 C 
ENDBRANCH   1  23
TORSDOF 2
ENDMDL
MODEL 5
REMARK VINA RESULT: -6.164227097      2.550      6.017
REMARK  2 active torsions:
REMARK  status: ('A' for Active; 'I' for Inactive)
REMARK    1  A    between atoms: C2_2  and  N1_3 
REMARK       I    between atoms: C3_5  and  N2_6 
REMARK       I    between atoms: C3_5  and  N3_9 
REMARK    2  A    between atoms: C8_13  and  N4_14 
REMARK       I    between atoms: N4_14  and  C9_16 
REMARK       I    between atoms: N6_18  and  C10_20 
ROOT
HETATM    1  N1  UNL     1      18.353 -13.153  18.522  1.00  0.00    -0.227 N 
ATOM      2  H1  UNL     1      18.971 -12.625  17.906  1.00  0.00     0.177 HD
HETATM    3  C3  UNL     1      17.175 -13.466  18.139  1.00  0.00     0.673 C 
HETATM    4  N2  UNL     1      16.766 -13.049  16.831  1.00  0.00    -0.231 N 
ATOM      5  H2  UNL     1      16.254 -12.173  16.723  1.00  0.00     0.177 HD
HETATM    6  C4  UNL     1      17.064 -13.843  15.657  1.00  0.00     0.165 C 
HETATM    7  N3  UNL     1      16.222 -14.195  18.898  1.00  0.00    -0.197 N 
HETATM    8  C5  UNL     1      16.279 -15.532  19.464  1.00  0.00     0.143 C 
HETATM    9  C6  UNL     1      14.849 -16.031  19.518  1.00  0.00     0.024 C 
HETATM   10  C7  UNL     1      14.069 -14.922  18.850  1.00  0.00     0.049 C 
HETATM   11  C8  UNL     1      14.903 -13.710  19.286  1.00  0.00     0.204 C 
ENDROOT
BRANCH  11  12
HETATM   12  N4  UNL     1      14.901 -13.566  20.718  1.00  0.00    -0.343 N 
HETATM   13  C9  UNL     1      14.053 -12.667  21.418  1.00  0.00     0.192 C 
HETATM   14  N5  UNL     1      13.401 -13.120  22.600  1.00  0.00    -0.063 NA
HETATM   15  N6  UNL     1      13.848 -11.468  21.032  1.00  0.00    -0.305 N 
HETATM   16  C10 UNL     1      13.011 -10.584  21.725  1.00  0.00     0.188 C 
ATOM     17  H6  UNL     1      14.312 -11.140  20.186  1.00  0.00     0.171 HD
HETATM   18  N7  UNL     1      11.724 -10.513  21.564  1.00  0.00    -0.373 N 
HETATM   19  N8  UNL     1      13.584  -9.693  22.675  1.00  0.00    -0.064 NA
ATOM     20  H72 UNL     1      11.313 -11.152  20.884  1.00  0.00     0.158 HD
ATOM     21  H71 UNL     1      11.114  -9.869  22.069  1.00  0.00     0.158 HD
ATOM     22  H4  UNL     1      15.545 -14.141  21.260  1.00  0.00     0.164 HD
ENDBRANCH  11  12
BRANCH   1  23
HETATM   23  C2  UNL     1      18.799 -13.552  19.824  1.00  0.00     0.133 C 
HETATM   24  C1  UNL     1      20.302 -13.466  19.970  1.00  0.00     0.027 C 
ENDBRANCH   1  23
TORSDOF 2
ENDMDL
