MODEL 1
REMARK VINA RESULT: -5.998922483      0.000      0.000
REMARK  4 active torsions:
REMARK  status: ('A' for Active; 'I' for Inactive)
REMARK    1  A    between atoms: C3_3  and  N1_4 
REMARK       I    between atoms: N1_4  and  C4_6 
REMARK    2  A    between atoms: N3_8  and  C5_10 
REMARK    3  A    between atoms: C5_10  and  N4_12 
REMARK    4  A    between atoms: N4_12  and  C6_14 
ROOT
HETATM    1  C1  UNL     1      20.489 -13.166  19.800  1.00  0.00     0.014 C 
HETATM    2  C2  UNL     1      19.447 -13.131  20.426  1.00  0.00    -0.098 C 
HETATM    3  C3  UNL     1      18.184 -13.067  21.171  1.00  0.00     0.215 C 
ENDROOT
BRANCH   3   4
HETATM    4  N1  UNL     1      17.425 -14.294  21.029  1.00  0.00    -0.354 N 
HETATM    5  C4  UNL     1      17.223 -15.150  22.141  1.00  0.00     0.191 C 
HETATM    6  N2  UNL     1      18.326 -15.646  22.881  1.00  0.00    -0.063 NA
HETATM    7  N3  UNL     1      16.053 -15.516  22.528  1.00  0.00    -0.308 N 
ATOM      8  H3  UNL     1      15.950 -16.135  23.333  1.00  0.00     0.171 HD
ATOM      9  H1  UNL     1      17.032 -14.543  20.121  1.00  0.00     0.163 HD
BRANCH   7  10
HETATM   10  C5  UNL     1      14.917 -15.062  21.839  1.00  0.00     0.174 C 
HETATM   11  S1  UNL     1      14.324 -15.915  20.591  1.00  0.00    -0.041 SA
BRANCH  10  12
HETATM   12  N4  UNL     1      14.301 -13.861  22.230  1.00  0.00    -0.361 N 
ATOM     13  H4  UNL     1      14.339 -13.619  23.220  1.00  0.00     0.162 HD
BRANCH  12  14
HETATM   14  C6  UNL     1      13.615 -12.937  21.347  1.00  0.00     0.101 C 
HETATM   15  C7  UNL     1      14.218 -11.574  21.365  1.00  0.00     0.028 C 
HETATM   16  C8  UNL     1      13.431 -10.535  22.120  1.00  0.00     0.021 C 
HETATM   17  C9  UNL     1      11.951 -10.692  21.997  1.00  0.00     0.116 C 
HETATM   18  N5  UNL     1      11.551 -12.010  22.343  1.00  0.00    -0.415 N 
HETATM   19  C10 UNL     1      11.421 -12.312  23.719  1.00  0.00     0.143 C 
HETATM   20  C11 UNL     1      12.131 -12.991  21.504  1.00  0.00     0.141 C 
ENDBRANCH  12  14
ENDBRANCH  10  12
ENDBRANCH   7  10
ENDBRANCH   3   4
TORSDOF 4
ENDMDL
MODEL 2
REMARK VINA RESULT: -5.930219893      1.764      2.396
REMARK  4 active torsions:
REMARK  status: ('A' for Active; 'I' for Inactive)
REMARK    1  A    between atoms: C3_3  and  N1_4 
REMARK       I    between atoms: N1_4  and  C4_6 
REMARK    2  A    between atoms: N3_8  and  C5_10 
REMARK    3  A    between atoms: C5_10  and  N4_12 
REMARK    4  A    between atoms: N4_12  and  C6_14 
ROOT
HETATM    1  C1  UNL     1      20.057 -14.141  25.885  1.00  0.00     0.014 C 
HETATM    2  C2  UNL     1      19.228 -14.710  25.203  1.00  0.00    -0.098 C 
HETATM    3  C3  UNL     1      18.219 -15.412  24.399  1.00  0.00     0.215 C 
ENDROOT
BRANCH   3   4
HETATM    4  N1  UNL     1      17.374 -14.478  23.681  1.00  0.00    -0.354 N 
HETATM    5  C4  UNL     1      17.569 -14.246  22.296  1.00  0.00     0.191 C 
HETATM    6  N2  UNL     1      18.834 -13.838  21.803  1.00  0.00    -0.063 NA
HETATM    7  N3  UNL     1      16.628 -14.388  21.432  1.00  0.00    -0.308 N 
ATOM      8  H3  UNL     1      16.809 -14.210  20.443  1.00  0.00     0.171 HD
ATOM      9  H1  UNL     1      16.632 -13.984  24.177  1.00  0.00     0.163 HD
BRANCH   7  10
HETATM   10  C5  UNL     1      15.350 -14.791  21.853  1.00  0.00     0.174 C 
HETATM   11  S1  UNL     1      14.958 -16.366  21.878  1.00  0.00    -0.041 SA
BRANCH  10  12
HETATM   12  N4  UNL     1      14.411 -13.822  22.246  1.00  0.00    -0.361 N 
ATOM     13  H4  UNL     1      14.215 -13.740  23.243  1.00  0.00     0.162 HD
BRANCH  12  14
HETATM   14  C6  UNL     1      13.696 -12.930  21.353  1.00  0.00     0.101 C 
HETATM   15  C7  UNL     1      14.229 -11.539  21.386  1.00  0.00     0.028 C 
HETATM   16  C8  UNL     1      13.379 -10.544  22.130  1.00  0.00     0.021 C 
HETATM   17  C9  UNL     1      11.911 -10.773  21.981  1.00  0.00     0.116 C 
HETATM   18  N5  UNL     1      11.571 -12.111  22.315  1.00  0.00    -0.415 N 
HETATM   19  C10 UNL     1      11.431 -12.425  23.688  1.00  0.00     0.143 C 
HETATM   20  C11 UNL     1      12.213 -13.058  21.483  1.00  0.00     0.141 C 
ENDBRANCH  12  14
ENDBRANCH  10  12
ENDBRANCH   7  10
ENDBRANCH   3   4
TORSDOF 4
ENDMDL
MODEL 3
REMARK VINA RESULT: -5.929748955      3.699      6.124
REMARK  4 active torsions:
REMARK  status: ('A' for Active; 'I' for Inactive)
REMARK    1  A    between atoms: C3_3  and  N1_4 
REMARK       I    between atoms: N1_4  and  C4_6 
REMARK    2  A    between atoms: N3_8  and  C5_10 
REMARK    3  A    between atoms: C5_10  and  N4_12 
REMARK    4  A    between atoms: N4_12  and  C6_14 
ROOT
HETATM    1  C1  UNL     1      12.874 -15.943  21.958  1.00  0.00     0.014 C 
HETATM    2  C2  UNL     1      12.566 -14.767  21.919  1.00  0.00    -0.098 C 
HETATM    3  C3  UNL     1      12.195 -13.347  21.896  1.00  0.00     0.215 C 
ENDROOT
BRANCH   3   4
HETATM    4  N1  UNL     1      13.036 -12.597  20.983  1.00  0.00    -0.354 N 
HETATM    5  C4  UNL     1      13.800 -11.496  21.445  1.00  0.00     0.191 C 
HETATM    6  N2  UNL     1      13.178 -10.418  22.125  1.00  0.00    -0.063 NA
HETATM    7  N3  UNL     1      15.071 -11.418  21.274  1.00  0.00    -0.308 N 
ATOM      8  H3  UNL     1      15.586 -10.607  21.621  1.00  0.00     0.171 HD
ATOM      9  H1  UNL     1      13.076 -12.864  19.999  1.00  0.00     0.163 HD
BRANCH   7  10
HETATM   10  C5  UNL     1      15.750 -12.452  20.608  1.00  0.00     0.174 C 
HETATM   11  S1  UNL     1      16.284 -13.743  21.436  1.00  0.00    -0.041 SA
BRANCH  10  12
HETATM   12  N4  UNL     1      15.972 -12.359  19.224  1.00  0.00    -0.361 N 
ATOM     13  H4  UNL     1      16.733 -11.755  18.913  1.00  0.00     0.162 HD
BRANCH  12  14
HETATM   14  C6  UNL     1      15.210 -13.048  18.200  1.00  0.00     0.101 C 
HETATM   15  C7  UNL     1      15.921 -14.244  17.665  1.00  0.00     0.028 C 
HETATM   16  C8  UNL     1      16.519 -14.074  16.293  1.00  0.00     0.021 C 
HETATM   17  C9  UNL     1      15.698 -13.226  15.378  1.00  0.00     0.116 C 
HETATM   18  N5  UNL     1      15.396 -11.976  15.980  1.00  0.00    -0.415 N 
HETATM   19  C10 UNL     1      16.394 -10.973  15.936  1.00  0.00     0.143 C 
HETATM   20  C11 UNL     1      14.652 -12.114  17.176  1.00  0.00     0.141 C 
ENDBRANCH  12  14
ENDBRANCH  10  12
ENDBRANCH   7  10
ENDBRANCH   3   4
TORSDOF 4
ENDMDL
MODEL 4
REMARK VINA RESULT: -5.862547888      3.228      4.678
REMARK  4 active torsions:
REMARK  status: ('A' for Active; 'I' for Inactive)
REMARK    1  A    between atoms: C3_3  and  N1_4 
REMARK       I    between atoms: N1_4  and  C4_6 
REMARK    2  A    between atoms: N3_8  and  C5_10 
REMARK    3  A    between atoms: C5_10  and  N4_12 
REMARK    4  A    between atoms: N4_12  and  C6_14 
ROOT
HETATM    1  C1  UNL     1      20.809 -13.396  26.800  1.00  0.00     0.014 C 
HETATM    2  C2  UNL     1      20.257 -13.945  25.867  1.00  0.00    -0.098 C 
HETATM    3  C3  UNL     1      19.569 -14.597  24.747  1.00  0.00     0.215 C 
ENDROOT
BRANCH   3   4
HETATM    4  N1  UNL     1      20.303 -14.431  23.507  1.00  0.00    -0.354 N 
HETATM    5  C4  UNL     1      20.578 -15.546  22.676  1.00  0.00     0.191 C 
HETATM    6  N2  UNL     1      21.250 -16.684  23.192  1.00  0.00    -0.063 NA
HETATM    7  N3  UNL     1      20.241 -15.585  21.437  1.00  0.00    -0.308 N 
ATOM      8  H3  UNL     1      20.458 -16.406  20.872  1.00  0.00     0.171 HD
ATOM      9  H1  UNL     1      20.625 -13.503  23.231  1.00  0.00     0.163 HD
BRANCH   7  10
HETATM   10  C5  UNL     1      19.573 -14.491  20.862  1.00  0.00     0.174 C 
HETATM   11  S1  UNL     1      20.419 -13.284  20.180  1.00  0.00    -0.041 SA
BRANCH  10  12
HETATM   12  N4  UNL     1      18.168 -14.443  20.887  1.00  0.00    -0.361 N 
ATOM     13  H4  UNL     1      17.669 -15.084  20.271  1.00  0.00     0.162 HD
BRANCH  12  14
HETATM   14  C6  UNL     1      17.369 -13.561  21.716  1.00  0.00     0.101 C 
HETATM   15  C7  UNL     1      16.307 -14.288  22.467  1.00  0.00     0.028 C 
HETATM   16  C8  UNL     1      14.909 -14.111  21.934  1.00  0.00     0.021 C 
HETATM   17  C9  UNL     1      14.636 -12.746  21.396  1.00  0.00     0.116 C 
HETATM   18  N5  UNL     1      15.617 -12.373  20.439  1.00  0.00    -0.415 N 
HETATM   19  C10 UNL     1      15.464 -12.869  19.122  1.00  0.00     0.143 C 
HETATM   20  C11 UNL     1      16.922 -12.338  20.983  1.00  0.00     0.141 C 
ENDBRANCH  12  14
ENDBRANCH  10  12
ENDBRANCH   7  10
ENDBRANCH   3   4
TORSDOF 4
ENDMDL
MODEL 5
REMARK VINA RESULT: -5.810580425      3.698      6.180
REMARK  4 active torsions:
REMARK  status: ('A' for Active; 'I' for Inactive)
REMARK    1  A    between atoms: C3_3  and  N1_4 
REMARK       I    between atoms: N1_4  and  C4_6 
REMARK    2  A    between atoms: N3_8  and  C5_10 
REMARK    3  A    between atoms: C5_10  and  N4_12 
REMARK    4  A    between atoms: N4_12  and  C6_14 
ROOT
HETATM    1  C1  UNL     1      11.404 -10.397  23.897  1.00  0.00     0.014 C 
HETATM    2  C2  UNL     1      12.027 -10.693  22.897  1.00  0.00    -0.098 C 
HETATM    3  C3  UNL     1      12.780 -11.025  21.681  1.00  0.00     0.215 C 
ENDROOT
BRANCH   3   4
HETATM    4  N1  UNL     1      13.973 -11.789  21.990  1.00  0.00    -0.354 N 
HETATM    5  C4  UNL     1      14.014 -13.187  21.762  1.00  0.00     0.191 C 
HETATM    6  N2  UNL     1      13.038 -14.042  22.335  1.00  0.00    -0.063 NA
HETATM    7  N3  UNL     1      14.920 -13.743  21.040  1.00  0.00    -0.308 N 
ATOM      8  H3  UNL     1      14.915 -14.754  20.901  1.00  0.00     0.171 HD
ATOM      9  H1  UNL     1      14.790 -11.315  22.376  1.00  0.00     0.163 HD
BRANCH   7  10
HETATM   10  C5  UNL     1      15.917 -12.954  20.443  1.00  0.00     0.174 C 
HETATM   11  S1  UNL     1      17.343 -12.740  21.189  1.00  0.00    -0.041 SA
BRANCH  10  12
HETATM   12  N4  UNL     1      15.671 -12.346  19.201  1.00  0.00    -0.361 N 
ATOM     13  H4  UNL     1      15.986 -11.383  19.083  1.00  0.00     0.162 HD
BRANCH  12  14
HETATM   14  C6  UNL     1      15.008 -12.971  18.072  1.00  0.00     0.101 C 
HETATM   15  C7  UNL     1      15.695 -14.214  17.621  1.00  0.00     0.028 C 
HETATM   16  C8  UNL     1      16.485 -14.083  16.346  1.00  0.00     0.021 C 
HETATM   17  C9  UNL     1      15.864 -13.171  15.341  1.00  0.00     0.116 C 
HETATM   18  N5  UNL     1      15.576 -11.905  15.915  1.00  0.00    -0.415 N 
HETATM   19  C10 UNL     1      16.642 -10.980  16.022  1.00  0.00     0.143 C 
HETATM   20  C11 UNL     1      14.667 -11.992  16.996  1.00  0.00     0.141 C 
ENDBRANCH  12  14
ENDBRANCH  10  12
ENDBRANCH   7  10
ENDBRANCH   3   4
TORSDOF 4
ENDMDL
