MODEL 1
REMARK VINA RESULT: -6.900278042      0.000      0.000
REMARK  2 active torsions:
REMARK  status: ('A' for Active; 'I' for Inactive)
REMARK    1  A    between atoms: N3_4  and  C2_6 
REMARK    2  A    between atoms: C6_10  and  N4_11 
REMARK       I    between atoms: C7_13  and  N6_15 
ROOT
HETATM    1  C2  UNL     1      19.642 -14.362  21.887  1.00  0.00     0.088 A 
HETATM    2  C3  UNL     1      19.088 -15.208  20.784  1.00  0.00     0.030 A 
HETATM    3  C4  UNL     1      18.924 -13.982  19.920  1.00  0.00    -0.004 A 
HETATM    4  C5  UNL     1      17.497 -13.502  19.775  1.00  0.00     0.030 C 
HETATM    5  C6  UNL     1      17.100 -13.013  21.168  1.00  0.00     0.085 C 
HETATM    6  C11 UNL     1      18.384 -12.253  21.531  1.00  0.00     0.032 C 
HETATM    7  C12 UNL     1      19.500 -13.137  21.008  1.00  0.00     0.014 A 
ENDROOT
BRANCH   5   8
HETATM    8  N4  UNL     1      15.965 -12.120  21.103  1.00  0.00    -0.360 N 
HETATM    9  C7  UNL     1      14.880 -12.467  21.712  1.00  0.00     0.186 C 
HETATM   10  N5  UNL     1      14.793 -13.692  22.432  1.00  0.00    -0.064 NA
HETATM   11  N6  UNL     1      13.720 -11.655  21.702  1.00  0.00    -0.356 N 
HETATM   12  C8  UNL     1      13.453 -10.267  21.909  1.00  0.00     0.127 C 
HETATM   13  C10 UNL     1      12.310 -11.881  21.479  1.00  0.00     0.127 C 
HETATM   14  C9  UNL     1      11.972 -10.558  22.127  1.00  0.00     0.040 C 
ATOM     15  H4  UNL     1      16.019 -11.241  20.590  1.00  0.00     0.162 HD
ENDBRANCH   5   8
BRANCH   1  16
HETATM   16  N3  UNL     1      20.943 -14.622  22.370  1.00  0.00    -0.362 N 
HETATM   17  C1  UNL     1      21.336 -14.712  23.558  1.00  0.00     0.197 C 
HETATM   18  N1  UNL     1      20.494 -14.560  24.663  1.00  0.00    -0.067 NA
HETATM   19  N2  UNL     1      22.724 -14.988  23.797  1.00  0.00    -0.067 NA
ATOM     20  H3  UNL     1      21.660 -14.753  21.657  1.00  0.00     0.162 HD
ENDBRANCH   1  16
TORSDOF 2
ENDMDL
MODEL 2
REMARK VINA RESULT: -6.577160436      4.166      6.163
REMARK  2 active torsions:
REMARK  status: ('A' for Active; 'I' for Inactive)
REMARK    1  A    between atoms: N3_4  and  C2_6 
REMARK    2  A    between atoms: C6_10  and  N4_11 
REMARK       I    between atoms: C7_13  and  N6_15 
ROOT
HETATM    1  C2  UNL     1      15.662 -12.991  16.978  1.00  0.00     0.088 A 
HETATM    2  C3  UNL     1      16.956 -12.722  17.678  1.00  0.00     0.030 A 
HETATM    3  C4  UNL     1      16.654 -13.820  18.668  1.00  0.00    -0.004 A 
HETATM    4  C5  UNL     1      16.233 -13.333  20.037  1.00  0.00     0.030 C 
HETATM    5  C6  UNL     1      14.875 -12.666  19.819  1.00  0.00     0.085 C 
HETATM    6  C11 UNL     1      14.242 -13.706  18.883  1.00  0.00     0.032 C 
HETATM    7  C12 UNL     1      15.374 -14.110  17.958  1.00  0.00     0.014 A 
ENDROOT
BRANCH   5   8
HETATM    8  N4  UNL     1      14.140 -12.562  21.060  1.00  0.00    -0.360 N 
HETATM    9  C7  UNL     1      13.331 -11.566  21.209  1.00  0.00     0.186 C 
HETATM   10  N5  UNL     1      13.160 -10.590  20.187  1.00  0.00    -0.064 NA
HETATM   11  N6  UNL     1      12.571 -11.386  22.389  1.00  0.00    -0.356 N 
HETATM   12  C8  UNL     1      11.766 -12.229  23.215  1.00  0.00     0.127 C 
HETATM   13  C10 UNL     1      12.284 -10.273  23.266  1.00  0.00     0.127 C 
HETATM   14  C9  UNL     1      11.106 -11.013  23.857  1.00  0.00     0.040 C 
ATOM     15  H4  UNL     1      14.256 -13.257  21.796  1.00  0.00     0.162 HD
ENDBRANCH   5   8
BRANCH   1  16
HETATM   16  N3  UNL     1      15.677 -13.360  15.615  1.00  0.00    -0.362 N 
HETATM   17  C1  UNL     1      15.127 -12.792  14.641  1.00  0.00     0.197 C 
HETATM   18  N1  UNL     1      14.360 -11.629  14.759  1.00  0.00    -0.067 NA
HETATM   19  N2  UNL     1      15.292 -13.365  13.336  1.00  0.00    -0.067 NA
ATOM     20  H3  UNL     1      16.208 -14.202  15.392  1.00  0.00     0.162 HD
ENDBRANCH   1  16
TORSDOF 2
ENDMDL
MODEL 3
REMARK VINA RESULT: -6.572425202      4.114      5.551
REMARK  2 active torsions:
REMARK  status: ('A' for Active; 'I' for Inactive)
REMARK    1  A    between atoms: N3_4  and  C2_6 
REMARK    2  A    between atoms: C6_10  and  N4_11 
REMARK       I    between atoms: C7_13  and  N6_15 
ROOT
HETATM    1  C2  UNL     1      15.958 -12.750  17.820  1.00  0.00     0.088 A 
HETATM    2  C3  UNL     1      17.119 -13.135  18.681  1.00  0.00     0.030 A 
HETATM    3  C4  UNL     1      16.268 -14.171  19.372  1.00  0.00    -0.004 A 
HETATM    4  C5  UNL     1      15.827 -13.792  20.769  1.00  0.00     0.030 C 
HETATM    5  C6  UNL     1      14.870 -12.616  20.576  1.00  0.00     0.085 C 
HETATM    6  C11 UNL     1      14.069 -13.150  19.379  1.00  0.00     0.032 C 
HETATM    7  C12 UNL     1      15.114 -13.809  18.498  1.00  0.00     0.014 A 
ENDROOT
BRANCH   5   8
HETATM    8  N4  UNL     1      14.022 -12.438  21.734  1.00  0.00    -0.360 N 
HETATM    9  C7  UNL     1      13.307 -11.365  21.808  1.00  0.00     0.186 C 
HETATM   10  N5  UNL     1      13.345 -10.377  20.784  1.00  0.00    -0.064 NA
HETATM   11  N6  UNL     1      12.450 -11.107  22.904  1.00  0.00    -0.356 N 
HETATM   12  C8  UNL     1      11.481 -11.864  23.632  1.00  0.00     0.127 C 
HETATM   13  C10 UNL     1      12.186  -9.971  23.758  1.00  0.00     0.127 C 
HETATM   14  C9  UNL     1      10.883 -10.587  24.214  1.00  0.00     0.040 C 
ATOM     15  H4  UNL     1      13.990 -13.141  22.471  1.00  0.00     0.162 HD
ENDBRANCH   5   8
BRANCH   1  16
HETATM   16  N3  UNL     1      16.071 -12.862  16.417  1.00  0.00    -0.362 N 
HETATM   17  C1  UNL     1      16.588 -12.060  15.603  1.00  0.00     0.197 C 
HETATM   18  N1  UNL     1      17.172 -10.847  15.981  1.00  0.00    -0.067 NA
HETATM   19  N2  UNL     1      16.582 -12.403  14.211  1.00  0.00    -0.067 NA
ATOM     20  H3  UNL     1      15.679 -13.711  16.010  1.00  0.00     0.162 HD
ENDBRANCH   1  16
TORSDOF 2
ENDMDL
MODEL 4
REMARK VINA RESULT: -6.409616527      3.980      6.051
REMARK  2 active torsions:
REMARK  status: ('A' for Active; 'I' for Inactive)
REMARK    1  A    between atoms: N3_4  and  C2_6 
REMARK    2  A    between atoms: C6_10  and  N4_11 
REMARK       I    between atoms: C7_13  and  N6_15 
ROOT
HETATM    1  C2  UNL     1      16.195 -13.240  16.439  1.00  0.00     0.088 A 
HETATM    2  C3  UNL     1      17.417 -12.676  17.093  1.00  0.00     0.030 A 
HETATM    3  C4  UNL     1      17.346 -13.743  18.156  1.00  0.00    -0.004 A 
HETATM    4  C5  UNL     1      16.849 -13.260  19.500  1.00  0.00     0.030 C 
HETATM    5  C6  UNL     1      15.385 -12.888  19.271  1.00  0.00     0.085 C 
HETATM    6  C11 UNL     1      14.962 -14.093  18.417  1.00  0.00     0.032 C 
HETATM    7  C12 UNL     1      16.142 -14.326  17.494  1.00  0.00     0.014 A 
ENDROOT
BRANCH   5   8
HETATM    8  N4  UNL     1      14.654 -12.850  20.518  1.00  0.00    -0.360 N 
HETATM    9  C7  UNL     1      13.682 -12.008  20.631  1.00  0.00     0.186 C 
HETATM   10  N5  UNL     1      13.329 -11.136  19.562  1.00  0.00    -0.064 NA
HETATM   11  N6  UNL     1      12.913 -11.901  21.814  1.00  0.00    -0.356 N 
HETATM   12  C8  UNL     1      12.280 -12.827  22.698  1.00  0.00     0.127 C 
HETATM   13  C10 UNL     1      12.439 -10.811  22.637  1.00  0.00     0.127 C 
HETATM   14  C9  UNL     1      11.419 -11.716  23.288  1.00  0.00     0.040 C 
ATOM     15  H4  UNL     1      14.901 -13.471  21.288  1.00  0.00     0.162 HD
ENDBRANCH   5   8
BRANCH   1  16
HETATM   16  N3  UNL     1      16.271 -13.688  15.102  1.00  0.00    -0.362 N 
HETATM   17  C1  UNL     1      16.371 -13.011  14.051  1.00  0.00     0.197 C 
HETATM   18  N1  UNL     1      16.427 -11.614  14.036  1.00  0.00    -0.067 NA
HETATM   19  N2  UNL     1      16.433 -13.704  12.797  1.00  0.00    -0.067 NA
ATOM     20  H3  UNL     1      16.240 -14.699  14.973  1.00  0.00     0.162 HD
ENDBRANCH   1  16
TORSDOF 2
ENDMDL
MODEL 5
REMARK VINA RESULT: -6.409607899      5.134      7.126
REMARK  2 active torsions:
REMARK  status: ('A' for Active; 'I' for Inactive)
REMARK    1  A    between atoms: N3_4  and  C2_6 
REMARK    2  A    between atoms: C6_10  and  N4_11 
REMARK       I    between atoms: C7_13  and  N6_15 
ROOT
HETATM    1  C2  UNL     1      12.375 -13.122  21.938  1.00  0.00     0.088 A 
HETATM    2  C3  UNL     1      12.156 -14.556  21.574  1.00  0.00     0.030 A 
HETATM    3  C4  UNL     1      13.646 -14.756  21.444  1.00  0.00    -0.004 A 
HETATM    4  C5  UNL     1      14.145 -14.850  20.019  1.00  0.00     0.030 C 
HETATM    5  C6  UNL     1      13.918 -13.459  19.427  1.00  0.00     0.085 C 
HETATM    6  C11 UNL     1      14.408 -12.611  20.610  1.00  0.00     0.032 C 
HETATM    7  C12 UNL     1      13.871 -13.332  21.831  1.00  0.00     0.014 A 
ENDROOT
BRANCH   5   8
HETATM    8  N4  UNL     1      14.741 -13.249  18.257  1.00  0.00    -0.360 N 
HETATM    9  C7  UNL     1      14.565 -12.168  17.572  1.00  0.00     0.186 C 
HETATM   10  N5  UNL     1      13.591 -11.202  17.950  1.00  0.00    -0.064 NA
HETATM   11  N6  UNL     1      15.326 -11.880  16.414  1.00  0.00    -0.356 N 
HETATM   12  C8  UNL     1      16.712 -11.931  16.073  1.00  0.00     0.127 C 
HETATM   13  C10 UNL     1      15.027 -11.413  15.079  1.00  0.00     0.127 C 
HETATM   14  C9  UNL     1      16.474 -11.034  14.863  1.00  0.00     0.040 C 
ATOM     15  H4  UNL     1      15.442 -13.937  17.980  1.00  0.00     0.162 HD
ENDBRANCH   5   8
BRANCH   1  16
HETATM   16  N3  UNL     1      11.910 -12.646  23.183  1.00  0.00    -0.362 N 
HETATM   17  C1  UNL     1      11.487 -11.504  23.480  1.00  0.00     0.197 C 
HETATM   18  N1  UNL     1      11.402 -10.451  22.564  1.00  0.00    -0.067 NA
HETATM   19  N2  UNL     1      11.064 -11.262  24.829  1.00  0.00    -0.067 NA
ATOM     20  H3  UNL     1      11.921 -13.324  23.946  1.00  0.00     0.162 HD
ENDBRANCH   1  16
TORSDOF 2
ENDMDL
