MODEL 1
REMARK VINA RESULT: -7.143572415      0.000      0.000
REMARK  4 active torsions:
REMARK  status: ('A' for Active; 'I' for Inactive)
REMARK       I    between atoms: N1_2  and  C2_4 
REMARK       I    between atoms: C2_4  and  N3_8 
REMARK       I    between atoms: N3_8  and  C3_10 
REMARK       I    between atoms: C3_10  and  N4_12 
REMARK    1  A    between atoms: N4_12  and  C4_14 
REMARK    2  A    between atoms: C4_14  and  C5_15 
REMARK    3  A    between atoms: C5_15  and  O2_16 
REMARK    4  A    between atoms: C5_15  and  N5_18 
ROOT
HETATM    1  C1  UNL     1      12.394 -10.300  22.830  1.00  0.00     0.165 C 
HETATM    2  N1  UNL     1      11.527 -11.370  22.355  1.00  0.00    -0.231 N 
ATOM      3  H1  UNL     1      10.958 -11.190  21.527  1.00  0.00     0.177 HD
HETATM    4  C2  UNL     1      11.425 -12.610  22.949  1.00  0.00     0.675 C 
HETATM    5  N2  UNL     1      10.440 -12.790  23.819  1.00  0.00    -0.235 N 
ATOM      6  H21 UNL     1      10.363 -13.708  24.258  1.00  0.00     0.174 HD
ATOM      7  H22 UNL     1       9.821 -11.994  23.971  1.00  0.00     0.174 HD
HETATM    8  N3  UNL     1      12.272 -13.699  22.740  1.00  0.00    -0.142 N 
ATOM      9  H3  UNL     1      12.099 -14.567  23.247  1.00  0.00     0.189 HD
HETATM   10  C3  UNL     1      13.376 -13.628  21.835  1.00  0.00     0.335 C 
HETATM   11  O1  UNL     1      13.571 -12.583  21.205  1.00  0.00    -0.246 OA
HETATM   12  N4  UNL     1      14.216 -14.763  21.707  1.00  0.00    -0.326 N 
ATOM     13  H4  UNL     1      13.935 -15.611  22.199  1.00  0.00     0.165 HD
ENDROOT
BRANCH  12  14
HETATM   14  C4  UNL     1      15.433 -14.817  20.942  1.00  0.00     0.099 A 
HETATM   15  C10 UNL     1      15.409 -14.684  19.463  1.00  0.00     0.042 A 
HETATM   16  C11 UNL     1      15.535 -16.048  20.048  1.00  0.00     0.042 A 
BRANCH  14  17
HETATM   17  C5  UNL     1      16.677 -14.491  21.715  1.00  0.00     0.142 C 
BRANCH  17  18
HETATM   18  O2  UNL     1      16.493 -14.374  23.013  1.00  0.00    -0.348 OA
ATOM     19  H2  UNL     1      17.242 -14.027  23.484  1.00  0.00     0.219 HD
ENDBRANCH  17  18
BRANCH  17  20
HETATM   20  N5  UNL     1      17.982 -14.291  21.251  1.00  0.00    -0.363 N 
HETATM   21  C6  UNL     1      18.534 -13.107  20.655  1.00  0.00     0.124 C 
HETATM   22  C7  UNL     1      19.897 -13.437  20.159  1.00  0.00     0.021 C 
HETATM   23  C8  UNL     1      20.321 -14.613  20.994  1.00  0.00     0.021 C 
HETATM   24  C9  UNL     1      19.007 -15.325  21.264  1.00  0.00     0.124 C 
ENDBRANCH  17  20
ENDBRANCH  14  17
ENDBRANCH  12  14
TORSDOF 4
ENDMDL
MODEL 2
REMARK VINA RESULT: -7.111075664      1.367      1.622
REMARK  4 active torsions:
REMARK  status: ('A' for Active; 'I' for Inactive)
REMARK       I    between atoms: N1_2  and  C2_4 
REMARK       I    between atoms: C2_4  and  N3_8 
REMARK       I    between atoms: N3_8  and  C3_10 
REMARK       I    between atoms: C3_10  and  N4_12 
REMARK    1  A    between atoms: N4_12  and  C4_14 
REMARK    2  A    between atoms: C4_14  and  C5_15 
REMARK    3  A    between atoms: C5_15  and  O2_16 
REMARK    4  A    between atoms: C5_15  and  N5_18 
ROOT
HETATM    1  C1  UNL     1      11.996  -9.984  23.566  1.00  0.00     0.165 C 
HETATM    2  N1  UNL     1      11.152 -10.965  22.896  1.00  0.00    -0.231 N 
ATOM      3  H1  UNL     1      10.444 -10.621  22.248  1.00  0.00     0.177 HD
HETATM    4  C2  UNL     1      11.248 -12.329  23.079  1.00  0.00     0.675 C 
HETATM    5  N2  UNL     1      10.435 -12.883  23.969  1.00  0.00    -0.235 N 
ATOM      6  H21 UNL     1      10.506 -13.892  24.105  1.00  0.00     0.174 HD
ATOM      7  H22 UNL     1       9.788 -12.254  24.442  1.00  0.00     0.174 HD
HETATM    8  N3  UNL     1      12.135 -13.189  22.432  1.00  0.00    -0.142 N 
ATOM      9  H3  UNL     1      12.117 -14.183  22.658  1.00  0.00     0.189 HD
HETATM   10  C3  UNL     1      13.067 -12.712  21.459  1.00  0.00     0.335 C 
HETATM   11  O1  UNL     1      13.072 -11.511  21.168  1.00  0.00    -0.246 OA
HETATM   12  N4  UNL     1      13.965 -13.641  20.874  1.00  0.00    -0.326 N 
ATOM     13  H4  UNL     1      13.836 -14.626  21.107  1.00  0.00     0.165 HD
ENDROOT
BRANCH  12  14
HETATM   14  C4  UNL     1      15.040 -13.311  19.979  1.00  0.00     0.099 A 
HETATM   15  C10 UNL     1      14.786 -13.081  18.533  1.00  0.00     0.042 A 
HETATM   16  C11 UNL     1      15.337 -14.399  18.954  1.00  0.00     0.042 A 
BRANCH  14  17
HETATM   17  C5  UNL     1      16.250 -12.719  20.641  1.00  0.00     0.142 C 
BRANCH  17  18
HETATM   18  O2  UNL     1      16.185 -11.417  20.822  1.00  0.00    -0.348 OA
ATOM     19  H2  UNL     1      16.494 -11.125  21.672  1.00  0.00     0.219 HD
ENDBRANCH  17  18
BRANCH  17  20
HETATM   20  N5  UNL     1      17.420 -13.350  21.078  1.00  0.00    -0.363 N 
HETATM   21  C6  UNL     1      18.746 -13.218  20.542  1.00  0.00     0.124 C 
HETATM   22  C7  UNL     1      19.614 -14.221  21.216  1.00  0.00     0.021 C 
HETATM   23  C8  UNL     1      18.919 -14.495  22.521  1.00  0.00     0.021 C 
HETATM   24  C9  UNL     1      17.453 -14.317  22.165  1.00  0.00     0.124 C 
ENDBRANCH  17  20
ENDBRANCH  14  17
ENDBRANCH  12  14
TORSDOF 4
ENDMDL
MODEL 3
REMARK VINA RESULT: -6.921305527      2.060      2.646
REMARK  4 active torsions:
REMARK  status: ('A' for Active; 'I' for Inactive)
REMARK       I    between atoms: N1_2  and  C2_4 
REMARK       I    between atoms: C2_4  and  N3_8 
REMARK       I    between atoms: N3_8  and  C3_10 
REMARK       I    between atoms: C3_10  and  N4_12 
REMARK    1  A    between atoms: N4_12  and  C4_14 
REMARK    2  A    between atoms: C4_14  and  C5_15 
REMARK    3  A    between atoms: C5_15  and  O2_16 
REMARK    4  A    between atoms: C5_15  and  N5_18 
ROOT
HETATM    1  C1  UNL     1      13.317 -10.342  22.033  1.00  0.00     0.165 C 
HETATM    2  N1  UNL     1      11.919 -10.751  22.075  1.00  0.00    -0.231 N 
ATOM      3  H1  UNL     1      11.300 -10.410  21.339  1.00  0.00     0.177 HD
HETATM    4  C2  UNL     1      11.377 -11.568  23.045  1.00  0.00     0.675 C 
HETATM    5  N2  UNL     1      10.784 -10.981  24.076  1.00  0.00    -0.235 N 
ATOM      6  H21 UNL     1      10.382 -11.585  24.793  1.00  0.00     0.174 HD
ATOM      7  H22 UNL     1      10.763  -9.962  24.063  1.00  0.00     0.174 HD
HETATM    8  N3  UNL     1      11.406 -12.963  23.061  1.00  0.00    -0.142 N 
ATOM      9  H3  UNL     1      10.976 -13.460  23.840  1.00  0.00     0.189 HD
HETATM   10  C3  UNL     1      12.024 -13.712  22.012  1.00  0.00     0.335 C 
HETATM   11  O1  UNL     1      12.526 -13.109  21.056  1.00  0.00    -0.246 OA
HETATM   12  N4  UNL     1      12.051 -15.126  22.119  1.00  0.00    -0.326 N 
ATOM     13  H4  UNL     1      11.541 -15.545  22.897  1.00  0.00     0.165 HD
ENDROOT
BRANCH  12  14
HETATM   14  C4  UNL     1      12.736 -16.017  21.223  1.00  0.00     0.099 A 
HETATM   15  C10 UNL     1      12.351 -16.104  19.791  1.00  0.00     0.042 A 
HETATM   16  C11 UNL     1      11.866 -17.163  20.719  1.00  0.00     0.042 A 
BRANCH  14  17
HETATM   17  C5  UNL     1      14.113 -16.417  21.665  1.00  0.00     0.142 C 
BRANCH  17  18
HETATM   18  O2  UNL     1      14.139 -17.176  22.739  1.00  0.00    -0.348 OA
ATOM     19  H2  UNL     1      13.458 -17.839  22.766  1.00  0.00     0.219 HD
ENDBRANCH  17  18
BRANCH  17  20
HETATM   20  N5  UNL     1      15.354 -16.091  21.104  1.00  0.00    -0.363 N 
HETATM   21  C6  UNL     1      15.751 -14.848  20.505  1.00  0.00     0.124 C 
HETATM   22  C7  UNL     1      17.091 -15.044  19.890  1.00  0.00     0.021 C 
HETATM   23  C8  UNL     1      17.682 -16.200  20.649  1.00  0.00     0.021 C 
HETATM   24  C9  UNL     1      16.460 -17.031  21.001  1.00  0.00     0.124 C 
ENDBRANCH  17  20
ENDBRANCH  14  17
ENDBRANCH  12  14
TORSDOF 4
ENDMDL
MODEL 4
REMARK VINA RESULT: -6.840101628      1.172      1.409
REMARK  4 active torsions:
REMARK  status: ('A' for Active; 'I' for Inactive)
REMARK       I    between atoms: N1_2  and  C2_4 
REMARK       I    between atoms: C2_4  and  N3_8 
REMARK       I    between atoms: N3_8  and  C3_10 
REMARK       I    between atoms: C3_10  and  N4_12 
REMARK    1  A    between atoms: N4_12  and  C4_14 
REMARK    2  A    between atoms: C4_14  and  C5_15 
REMARK    3  A    between atoms: C5_15  and  O2_16 
REMARK    4  A    between atoms: C5_15  and  N5_18 
ROOT
HETATM    1  C1  UNL     1      12.135 -10.199  23.038  1.00  0.00     0.165 C 
HETATM    2  N1  UNL     1      11.330 -11.316  22.563  1.00  0.00    -0.231 N 
ATOM      3  H1  UNL     1      10.704 -11.152  21.775  1.00  0.00     0.177 HD
HETATM    4  C2  UNL     1      11.357 -12.582  23.110  1.00  0.00     0.675 C 
HETATM    5  N2  UNL     1      10.438 -12.873  24.021  1.00  0.00    -0.235 N 
ATOM      6  H21 UNL     1      10.457 -13.809  24.426  1.00  0.00     0.174 HD
ATOM      7  H22 UNL     1       9.768 -12.135  24.238  1.00  0.00     0.174 HD
HETATM    8  N3  UNL     1      12.273 -13.591  22.813  1.00  0.00    -0.142 N 
ATOM      9  H3  UNL     1      12.196 -14.489  23.291  1.00  0.00     0.189 HD
HETATM   10  C3  UNL     1      13.317 -13.398  21.855  1.00  0.00     0.335 C 
HETATM   11  O1  UNL     1      13.395 -12.318  21.260  1.00  0.00    -0.246 OA
HETATM   12  N4  UNL     1      14.235 -14.456  21.637  1.00  0.00    -0.326 N 
ATOM     13  H4  UNL     1      14.048 -15.342  22.107  1.00  0.00     0.165 HD
ENDROOT
BRANCH  12  14
HETATM   14  C4  UNL     1      15.408 -14.385  20.809  1.00  0.00     0.099 A 
HETATM   15  C10 UNL     1      15.314 -14.561  19.336  1.00  0.00     0.042 A 
HETATM   16  C11 UNL     1      15.777 -15.713  20.159  1.00  0.00     0.042 A 
BRANCH  14  17
HETATM   17  C5  UNL     1      16.559 -13.635  21.411  1.00  0.00     0.142 C 
BRANCH  17  18
HETATM   18  O2  UNL     1      16.477 -12.327  21.288  1.00  0.00    -0.348 OA
ATOM     19  H2  UNL     1      16.560 -11.851  22.106  1.00  0.00     0.219 HD
ENDBRANCH  17  18
BRANCH  17  20
HETATM   20  N5  UNL     1      17.692 -14.127  22.069  1.00  0.00    -0.363 N 
HETATM   21  C6  UNL     1      19.066 -14.005  21.670  1.00  0.00     0.124 C 
HETATM   22  C7  UNL     1      19.884 -14.845  22.585  1.00  0.00     0.021 C 
HETATM   23  C8  UNL     1      19.051 -14.956  23.832  1.00  0.00     0.021 C 
HETATM   24  C9  UNL     1      17.632 -14.914  23.292  1.00  0.00     0.124 C 
ENDBRANCH  17  20
ENDBRANCH  14  17
ENDBRANCH  12  14
TORSDOF 4
ENDMDL
MODEL 5
REMARK VINA RESULT: -6.827537074      1.711      2.260
REMARK  4 active torsions:
REMARK  status: ('A' for Active; 'I' for Inactive)
REMARK       I    between atoms: N1_2  and  C2_4 
REMARK       I    between atoms: C2_4  and  N3_8 
REMARK       I    between atoms: N3_8  and  C3_10 
REMARK       I    between atoms: C3_10  and  N4_12 
REMARK    1  A    between atoms: N4_12  and  C4_14 
REMARK    2  A    between atoms: C4_14  and  C5_15 
REMARK    3  A    between atoms: C5_15  and  O2_16 
REMARK    4  A    between atoms: C5_15  and  N5_18 
ROOT
HETATM    1  C1  UNL     1      13.028 -10.304  22.220  1.00  0.00     0.165 C 
HETATM    2  N1  UNL     1      11.716 -10.936  22.245  1.00  0.00    -0.231 N 
ATOM      3  H1  UNL     1      11.051 -10.683  21.513  1.00  0.00     0.177 HD
HETATM    4  C2  UNL     1      11.312 -11.853  23.192  1.00  0.00     0.675 C 
HETATM    5  N2  UNL     1      10.628 -11.394  24.232  1.00  0.00    -0.235 N 
ATOM      6  H21 UNL     1      10.329 -12.072  24.933  1.00  0.00     0.174 HD
ATOM      7  H22 UNL     1      10.441 -10.392  24.243  1.00  0.00     0.174 HD
HETATM    8  N3  UNL     1      11.567 -13.224  23.177  1.00  0.00    -0.142 N 
ATOM      9  H3  UNL     1      11.222 -13.802  23.943  1.00  0.00     0.189 HD
HETATM   10  C3  UNL     1      12.302 -13.838  22.115  1.00  0.00     0.335 C 
HETATM   11  O1  UNL     1      12.701 -13.140  21.177  1.00  0.00    -0.246 OA
HETATM   12  N4  UNL     1      12.558 -15.231  22.191  1.00  0.00    -0.326 N 
ATOM     13  H4  UNL     1      12.121 -15.746  22.956  1.00  0.00     0.165 HD
ENDROOT
BRANCH  12  14
HETATM   14  C4  UNL     1      13.381 -15.978  21.280  1.00  0.00     0.099 A 
HETATM   15  C10 UNL     1      12.883 -16.349  19.930  1.00  0.00     0.042 A 
HETATM   16  C11 UNL     1      12.862 -17.384  21.001  1.00  0.00     0.042 A 
BRANCH  14  17
HETATM   17  C5  UNL     1      14.855 -15.890  21.547  1.00  0.00     0.142 C 
BRANCH  17  18
HETATM   18  O2  UNL     1      15.293 -16.741  22.451  1.00  0.00    -0.348 OA
ATOM     19  H2  UNL     1      15.229 -17.653  22.193  1.00  0.00     0.219 HD
ENDBRANCH  17  18
BRANCH  17  20
HETATM   20  N5  UNL     1      15.809 -15.037  20.982  1.00  0.00    -0.363 N 
HETATM   21  C6  UNL     1      16.511 -15.199  19.739  1.00  0.00     0.124 C 
HETATM   22  C7  UNL     1      17.550 -14.138  19.658  1.00  0.00     0.021 C 
HETATM   23  C8  UNL     1      17.038 -13.049  20.560  1.00  0.00     0.021 C 
HETATM   24  C9  UNL     1      16.286 -13.823  21.628  1.00  0.00     0.124 C 
ENDBRANCH  17  20
ENDBRANCH  14  17
ENDBRANCH  12  14
TORSDOF 4
ENDMDL
