MODEL 1
REMARK VINA RESULT: -6.261028995      0.000      0.000
REMARK  5 active torsions:
REMARK  status: ('A' for Active; 'I' for Inactive)
REMARK    1  A    between atoms: N1_2  and  C2_4 
REMARK    2  A    between atoms: C2_4  and  N2_6 
REMARK    3  A    between atoms: N2_6  and  N3_8 
REMARK       I    between atoms: N3_8  and  C3_10 
REMARK       I    between atoms: C3_10  and  N4_12 
REMARK    4  A    between atoms: N4_12  and  C4_14 
REMARK    5  A    between atoms: C4_14  and  C5_15 
ROOT
HETATM    1  N3  UNL     1      12.323 -13.933  22.760  1.00  0.00    -0.249 N 
ATOM      2  H3  UNL     1      12.601 -14.318  23.663  1.00  0.00     0.192 HD
HETATM    3  C3  UNL     1      13.024 -14.276  21.553  1.00  0.00     0.334 C 
HETATM    4  O1  UNL     1      12.669 -13.806  20.454  1.00  0.00    -0.246 OA
HETATM    5  N4  UNL     1      14.131 -15.159  21.600  1.00  0.00    -0.341 N 
ATOM      6  H4  UNL     1      14.434 -15.551  22.492  1.00  0.00     0.164 HD
ENDROOT
BRANCH   1   7
HETATM    7  N2  UNL     1      11.249 -13.056  22.647  1.00  0.00    -0.272 N 
ATOM      8  H2  UNL     1      10.306 -13.410  22.490  1.00  0.00     0.189 HD
BRANCH   7   9
HETATM    9  C2  UNL     1      11.487 -11.658  22.752  1.00  0.00     0.186 C 
HETATM   10  S1  UNL     1      11.154 -10.890  24.176  1.00  0.00    -0.040 SA
BRANCH   9  11
HETATM   11  N1  UNL     1      12.003 -10.893  21.673  1.00  0.00    -0.370 N 
HETATM   12  C1  UNL     1      13.416 -10.512  21.714  1.00  0.00     0.148 C 
ATOM     13  H1  UNL     1      11.406 -10.617  20.893  1.00  0.00     0.161 HD
ENDBRANCH   9  11
ENDBRANCH   7   9
ENDBRANCH   1   7
BRANCH   5  14
HETATM   14  C4  UNL     1      14.827 -15.500  20.393  1.00  0.00     0.129 C 
BRANCH  14  15
HETATM   15  C5  UNL     1      16.229 -14.917  20.395  1.00  0.00     0.008 C 
HETATM   16  C6  UNL     1      16.494 -14.207  21.734  1.00  0.00     0.011 C 
HETATM   17  C7  UNL     1      17.066 -12.908  21.267  1.00  0.00    -0.014 C 
HETATM   18  C8  UNL     1      18.337 -13.204  20.516  1.00  0.00     0.005 C 
HETATM   19  C11 UNL     1      16.124 -12.610  20.093  1.00  0.00     0.010 C 
HETATM   20  C9  UNL     1      17.930 -13.710  19.148  1.00  0.00     0.005 C 
HETATM   21  C10 UNL     1      16.451 -13.901  19.324  1.00  0.00    -0.009 C 
ENDBRANCH  14  15
ENDBRANCH   5  14
TORSDOF 5
ENDMDL
MODEL 2
REMARK VINA RESULT: -6.246481826      1.083      1.250
REMARK  5 active torsions:
REMARK  status: ('A' for Active; 'I' for Inactive)
REMARK    1  A    between atoms: N1_2  and  C2_4 
REMARK    2  A    between atoms: C2_4  and  N2_6 
REMARK    3  A    between atoms: N2_6  and  N3_8 
REMARK       I    between atoms: N3_8  and  C3_10 
REMARK       I    between atoms: C3_10  and  N4_12 
REMARK    4  A    between atoms: N4_12  and  C4_14 
REMARK    5  A    between atoms: C4_14  and  C5_15 
ROOT
HETATM    1  N3  UNL     1      12.348 -13.894  22.769  1.00  0.00    -0.249 N 
ATOM      2  H3  UNL     1      12.664 -14.190  23.693  1.00  0.00     0.192 HD
HETATM    3  C3  UNL     1      13.035 -14.306  21.576  1.00  0.00     0.334 C 
HETATM    4  O1  UNL     1      12.633 -13.944  20.453  1.00  0.00    -0.246 OA
HETATM    5  N4  UNL     1      14.182 -15.133  21.666  1.00  0.00    -0.341 N 
ATOM      6  H4  UNL     1      14.523 -15.436  22.578  1.00  0.00     0.164 HD
ENDROOT
BRANCH   1   7
HETATM    7  N2  UNL     1      11.233 -13.077  22.614  1.00  0.00    -0.272 N 
ATOM      8  H2  UNL     1      10.344 -13.467  22.300  1.00  0.00     0.189 HD
BRANCH   7   9
HETATM    9  C2  UNL     1      11.351 -11.689  22.899  1.00  0.00     0.186 C 
HETATM   10  S1  UNL     1      12.133 -10.710  21.824  1.00  0.00    -0.040 SA
BRANCH   9  11
HETATM   11  N1  UNL     1      10.817 -11.110  24.080  1.00  0.00    -0.370 N 
HETATM   12  C1  UNL     1      11.249  -9.758  24.438  1.00  0.00     0.148 C 
ATOM     13  H1  UNL     1      10.152 -11.620  24.661  1.00  0.00     0.161 HD
ENDBRANCH   9  11
ENDBRANCH   7   9
ENDBRANCH   1   7
BRANCH   5  14
HETATM   14  C4  UNL     1      14.863 -15.543  20.472  1.00  0.00     0.129 C 
BRANCH  14  15
HETATM   15  C5  UNL     1      16.260 -14.947  20.417  1.00  0.00     0.008 C 
HETATM   16  C6  UNL     1      16.574 -14.238  21.745  1.00  0.00     0.011 C 
HETATM   17  C7  UNL     1      17.116 -12.934  21.257  1.00  0.00    -0.014 C 
HETATM   18  C8  UNL     1      18.357 -13.218  20.453  1.00  0.00     0.005 C 
HETATM   19  C11 UNL     1      16.122 -12.641  20.124  1.00  0.00     0.010 C 
HETATM   20  C9  UNL     1      17.897 -13.724  19.103  1.00  0.00     0.005 C 
HETATM   21  C10 UNL     1      16.429 -13.928  19.339  1.00  0.00    -0.009 C 
ENDBRANCH  14  15
ENDBRANCH   5  14
TORSDOF 5
ENDMDL
MODEL 3
REMARK VINA RESULT: -6.219128802      2.381      3.428
REMARK  5 active torsions:
REMARK  status: ('A' for Active; 'I' for Inactive)
REMARK    1  A    between atoms: N1_2  and  C2_4 
REMARK    2  A    between atoms: C2_4  and  N2_6 
REMARK    3  A    between atoms: N2_6  and  N3_8 
REMARK       I    between atoms: N3_8  and  C3_10 
REMARK       I    between atoms: C3_10  and  N4_12 
REMARK    4  A    between atoms: N4_12  and  C4_14 
REMARK    5  A    between atoms: C4_14  and  C5_15 
ROOT
HETATM    1  N3  UNL     1      14.651 -11.007  21.284  1.00  0.00    -0.249 N 
ATOM      2  H3  UNL     1      15.125 -10.246  21.771  1.00  0.00     0.192 HD
HETATM    3  C3  UNL     1      15.383 -12.124  20.751  1.00  0.00     0.334 C 
HETATM    4  O1  UNL     1      14.790 -13.051  20.164  1.00  0.00    -0.246 OA
HETATM    5  N4  UNL     1      16.791 -12.183  20.890  1.00  0.00    -0.341 N 
ATOM      6  H4  UNL     1      17.289 -11.431  21.367  1.00  0.00     0.164 HD
ENDROOT
BRANCH   1   7
HETATM    7  N2  UNL     1      13.271 -11.005  21.108  1.00  0.00    -0.272 N 
ATOM      8  H2  UNL     1      12.867 -10.827  20.188  1.00  0.00     0.189 HD
BRANCH   7   9
HETATM    9  C2  UNL     1      12.433 -11.255  22.229  1.00  0.00     0.186 C 
HETATM   10  S1  UNL     1      11.709 -12.731  22.379  1.00  0.00    -0.040 SA
BRANCH   9  11
HETATM   11  N1  UNL     1      12.194 -10.276  23.229  1.00  0.00    -0.370 N 
HETATM   12  C1  UNL     1      11.184 -10.567  24.248  1.00  0.00     0.148 C 
ATOM     13  H1  UNL     1      12.711  -9.397  23.238  1.00  0.00     0.161 HD
ENDBRANCH   9  11
ENDBRANCH   7   9
ENDBRANCH   1   7
BRANCH   5  14
HETATM   14  C4  UNL     1      17.516 -13.300  20.359  1.00  0.00     0.129 C 
BRANCH  14  15
HETATM   15  C5  UNL     1      18.729 -13.614  21.218  1.00  0.00     0.008 C 
HETATM   16  C6  UNL     1      19.939 -13.917  20.318  1.00  0.00     0.011 C 
HETATM   17  C7  UNL     1      20.459 -15.171  20.942  1.00  0.00    -0.014 C 
HETATM   18  C8  UNL     1      20.865 -14.852  22.356  1.00  0.00     0.005 C 
HETATM   19  C11 UNL     1      19.137 -15.906  21.201  1.00  0.00     0.010 C 
HETATM   20  C9  UNL     1      19.592 -14.775  23.171  1.00  0.00     0.005 C 
HETATM   21  C10 UNL     1      18.543 -14.806  22.097  1.00  0.00    -0.009 C 
ENDBRANCH  14  15
ENDBRANCH   5  14
TORSDOF 5
ENDMDL
MODEL 4
REMARK VINA RESULT: -6.196014652      2.001      2.624
REMARK  5 active torsions:
REMARK  status: ('A' for Active; 'I' for Inactive)
REMARK    1  A    between atoms: N1_2  and  C2_4 
REMARK    2  A    between atoms: C2_4  and  N2_6 
REMARK    3  A    between atoms: N2_6  and  N3_8 
REMARK       I    between atoms: N3_8  and  C3_10 
REMARK       I    between atoms: C3_10  and  N4_12 
REMARK    4  A    between atoms: N4_12  and  C4_14 
REMARK    5  A    between atoms: C4_14  and  C5_15 
ROOT
HETATM    1  N3  UNL     1      13.383 -10.461  22.120  1.00  0.00    -0.249 N 
ATOM      2  H3  UNL     1      14.021  -9.841  22.619  1.00  0.00     0.192 HD
HETATM    3  C3  UNL     1      13.871 -11.452  21.201  1.00  0.00     0.334 C 
HETATM    4  O1  UNL     1      13.081 -12.210  20.603  1.00  0.00    -0.246 OA
HETATM    5  N4  UNL     1      15.262 -11.580  20.965  1.00  0.00    -0.341 N 
ATOM      6  H4  UNL     1      15.920 -10.967  21.446  1.00  0.00     0.164 HD
ENDROOT
BRANCH   1   7
HETATM    7  N2  UNL     1      12.006 -10.381  22.302  1.00  0.00    -0.272 N 
ATOM      8  H2  UNL     1      11.419  -9.913  21.611  1.00  0.00     0.189 HD
BRANCH   7   9
HETATM    9  C2  UNL     1      11.429 -10.961  23.464  1.00  0.00     0.186 C 
HETATM   10  S1  UNL     1      11.044 -12.566  23.457  1.00  0.00    -0.040 SA
BRANCH   9  11
HETATM   11  N1  UNL     1      11.171 -10.206  24.639  1.00  0.00    -0.370 N 
HETATM   12  C1  UNL     1      11.567  -8.797  24.652  1.00  0.00     0.148 C 
ATOM     13  H1  UNL     1      10.723 -10.634  25.450  1.00  0.00     0.161 HD
ENDBRANCH   9  11
ENDBRANCH   7   9
ENDBRANCH   1   7
BRANCH   5  14
HETATM   14  C4  UNL     1      15.744 -12.573  20.049  1.00  0.00     0.129 C 
BRANCH  14  15
HETATM   15  C5  UNL     1      16.782 -13.460  20.713  1.00  0.00     0.008 C 
HETATM   16  C6  UNL     1      17.948 -12.599  21.229  1.00  0.00     0.011 C 
HETATM   17  C7  UNL     1      19.124 -13.363  20.716  1.00  0.00    -0.014 C 
HETATM   18  C8  UNL     1      19.101 -14.731  21.346  1.00  0.00     0.005 C 
HETATM   19  C11 UNL     1      18.622 -13.708  19.307  1.00  0.00     0.010 C 
HETATM   20  C9  UNL     1      18.047 -15.533  20.614  1.00  0.00     0.005 C 
HETATM   21  C10 UNL     1      17.377 -14.472  19.789  1.00  0.00    -0.009 C 
ENDBRANCH  14  15
ENDBRANCH   5  14
TORSDOF 5
ENDMDL
MODEL 5
REMARK VINA RESULT: -6.125708945      2.290      3.451
REMARK  5 active torsions:
REMARK  status: ('A' for Active; 'I' for Inactive)
REMARK    1  A    between atoms: N1_2  and  C2_4 
REMARK    2  A    between atoms: C2_4  and  N2_6 
REMARK    3  A    between atoms: N2_6  and  N3_8 
REMARK       I    between atoms: N3_8  and  C3_10 
REMARK       I    between atoms: C3_10  and  N4_12 
REMARK    4  A    between atoms: N4_12  and  C4_14 
REMARK    5  A    between atoms: C4_14  and  C5_15 
ROOT
HETATM    1  N3  UNL     1      14.648 -11.037  21.327  1.00  0.00    -0.249 N 
ATOM      2  H3  UNL     1      15.064 -10.391  21.998  1.00  0.00     0.192 HD
HETATM    3  C3  UNL     1      15.430 -12.063  20.694  1.00  0.00     0.334 C 
HETATM    4  O1  UNL     1      14.907 -12.852  19.882  1.00  0.00    -0.246 OA
HETATM    5  N4  UNL     1      16.809 -12.190  20.988  1.00  0.00    -0.341 N 
ATOM      6  H4  UNL     1      17.251 -11.551  21.650  1.00  0.00     0.164 HD
ENDROOT
BRANCH   1   7
HETATM    7  N2  UNL     1      13.300 -10.961  20.990  1.00  0.00    -0.272 N 
ATOM      8  H2  UNL     1      12.994 -10.378  20.211  1.00  0.00     0.189 HD
BRANCH   7   9
HETATM    9  C2  UNL     1      12.357 -11.707  21.746  1.00  0.00     0.186 C 
HETATM   10  S1  UNL     1      11.637 -11.004  23.055  1.00  0.00    -0.040 SA
BRANCH   9  11
HETATM   11  N1  UNL     1      12.008 -13.044  21.417  1.00  0.00    -0.370 N 
HETATM   12  C1  UNL     1      12.575 -14.122  22.228  1.00  0.00     0.148 C 
ATOM     13  H1  UNL     1      11.382 -13.246  20.637  1.00  0.00     0.161 HD
ENDBRANCH   9  11
ENDBRANCH   7   9
ENDBRANCH   1   7
BRANCH   5  14
HETATM   14  C4  UNL     1      17.585 -13.216  20.355  1.00  0.00     0.129 C 
BRANCH  14  15
HETATM   15  C5  UNL     1      18.798 -13.573  21.198  1.00  0.00     0.008 C 
HETATM   16  C6  UNL     1      19.950 -14.023  20.284  1.00  0.00     0.011 C 
HETATM   17  C7  UNL     1      20.393 -15.275  20.969  1.00  0.00    -0.014 C 
HETATM   18  C8  UNL     1      20.868 -14.906  22.350  1.00  0.00     0.005 C 
HETATM   19  C11 UNL     1      19.028 -15.887  21.310  1.00  0.00     0.010 C 
HETATM   20  C9  UNL     1      19.632 -14.681  23.193  1.00  0.00     0.005 C 
HETATM   21  C10 UNL     1      18.549 -14.693  22.153  1.00  0.00    -0.009 C 
ENDBRANCH  14  15
ENDBRANCH   5  14
TORSDOF 5
ENDMDL
