MODEL 1
REMARK VINA RESULT: -6.680432908      0.000      0.000
REMARK  5 active torsions:
REMARK  status: ('A' for Active; 'I' for Inactive)
REMARK    1  A    between atoms: C2_2  and  N1_3 
REMARK       I    between atoms: N1_3  and  C3_5 
REMARK       I    between atoms: C3_5  and  N2_7 
REMARK    2  A    between atoms: N2_7  and  N3_9 
REMARK    3  A    between atoms: N3_9  and  C4_11 
REMARK    4  A    between atoms: C4_11  and  N4_13 
REMARK    5  A    between atoms: N4_13  and  C5_15 
ROOT
HETATM    1  C4  UNL     1      14.344 -12.952  20.366  1.00  0.00     0.186 C 
HETATM    2  S1  UNL     1      13.605 -14.050  21.318  1.00  0.00    -0.040 SA
ENDROOT
BRANCH   1   3
HETATM    3  N3  UNL     1      13.731 -11.641  20.380  1.00  0.00    -0.272 N 
ATOM      4  H3  UNL     1      13.178 -11.344  19.576  1.00  0.00     0.189 HD
BRANCH   3   5
HETATM    5  N2  UNL     1      13.875 -10.766  21.467  1.00  0.00    -0.249 N 
HETATM    6  C3  UNL     1      12.793 -10.571  22.376  1.00  0.00     0.334 C 
HETATM    7  N1  UNL     1      12.883  -9.695  23.473  1.00  0.00    -0.342 N 
HETATM    8  O1  UNL     1      11.736 -11.204  22.173  1.00  0.00    -0.246 OA
ATOM      9  H1  UNL     1      13.739  -9.169  23.649  1.00  0.00     0.164 HD
ATOM     10  H2  UNL     1      14.754 -10.269  21.609  1.00  0.00     0.192 HD
BRANCH   7  11
HETATM   11  C2  UNL     1      11.728  -9.553  24.359  1.00  0.00     0.120 C 
HETATM   12  C1  UNL     1      11.788  -8.240  25.076  1.00  0.00     0.026 C 
ENDBRANCH   7  11
ENDBRANCH   3   5
ENDBRANCH   1   3
BRANCH   1  13
HETATM   13  N4  UNL     1      15.482 -13.195  19.573  1.00  0.00    -0.361 N 
ATOM     14  H4  UNL     1      15.376 -13.033  18.572  1.00  0.00     0.162 HD
BRANCH  13  15
HETATM   15  C5  UNL     1      16.749 -13.634  19.998  1.00  0.00     0.087 C 
HETATM   16  C6  UNL     1      17.782 -13.860  18.906  1.00  0.00     0.044 C 
HETATM   17  C7  UNL     1      18.990 -14.498  19.618  1.00  0.00     0.118 C 
HETATM   18  N5  UNL     1      18.648 -14.929  20.922  1.00  0.00    -0.416 N 
HETATM   19  C8  UNL     1      19.134 -16.157  21.389  1.00  0.00     0.143 C 
HETATM   20  C9  UNL     1      18.301 -13.920  21.862  1.00  0.00     0.118 C 
HETATM   21  C10 UNL     1      17.421 -12.898  21.108  1.00  0.00     0.044 C 
ENDBRANCH  13  15
ENDBRANCH   1  13
TORSDOF 5
ENDMDL
MODEL 2
REMARK VINA RESULT: -6.023180938      2.155      3.052
REMARK  5 active torsions:
REMARK  status: ('A' for Active; 'I' for Inactive)
REMARK    1  A    between atoms: C2_2  and  N1_3 
REMARK       I    between atoms: N1_3  and  C3_5 
REMARK       I    between atoms: C3_5  and  N2_7 
REMARK    2  A    between atoms: N2_7  and  N3_9 
REMARK    3  A    between atoms: N3_9  and  C4_11 
REMARK    4  A    between atoms: C4_11  and  N4_13 
REMARK    5  A    between atoms: N4_13  and  C5_15 
ROOT
HETATM    1  C4  UNL     1      17.265 -13.452  20.251  1.00  0.00     0.186 C 
HETATM    2  S1  UNL     1      17.719 -13.851  18.737  1.00  0.00    -0.040 SA
ENDROOT
BRANCH   1   3
HETATM    3  N3  UNL     1      15.856 -13.153  20.392  1.00  0.00    -0.272 N 
ATOM      4  H3  UNL     1      15.173 -13.759  19.938  1.00  0.00     0.189 HD
BRANCH   3   5
HETATM    5  N2  UNL     1      15.401 -12.054  21.137  1.00  0.00    -0.249 N 
HETATM    6  C3  UNL     1      14.002 -11.841  21.315  1.00  0.00     0.334 C 
HETATM    7  N1  UNL     1      13.497 -10.747  22.042  1.00  0.00    -0.342 N 
HETATM    8  O1  UNL     1      13.214 -12.661  20.800  1.00  0.00    -0.246 OA
ATOM      9  H1  UNL     1      14.129 -10.068  22.465  1.00  0.00     0.164 HD
ATOM     10  H2  UNL     1      16.072 -11.406  21.550  1.00  0.00     0.192 HD
BRANCH   7  11
HETATM   11  C2  UNL     1      12.048 -10.602  22.180  1.00  0.00     0.120 C 
HETATM   12  C1  UNL     1      11.659 -10.678  23.623  1.00  0.00     0.026 C 
ENDBRANCH   7  11
ENDBRANCH   3   5
ENDBRANCH   1   3
BRANCH   1  13
HETATM   13  N4  UNL     1      18.120 -13.384  21.368  1.00  0.00    -0.361 N 
ATOM     14  H4  UNL     1      18.184 -12.478  21.831  1.00  0.00     0.162 HD
BRANCH  13  15
HETATM   15  C5  UNL     1      18.897 -14.418  21.921  1.00  0.00     0.087 C 
HETATM   16  C6  UNL     1      18.454 -15.836  21.600  1.00  0.00     0.044 C 
HETATM   17  C7  UNL     1      19.350 -16.744  22.462  1.00  0.00     0.118 C 
HETATM   18  N5  UNL     1      20.039 -15.999  23.449  1.00  0.00    -0.416 N 
HETATM   19  C8  UNL     1      20.164 -16.522  24.742  1.00  0.00     0.143 C 
HETATM   20  C9  UNL     1      20.999 -15.057  22.988  1.00  0.00     0.118 C 
HETATM   21  C10 UNL     1      20.378 -14.360  21.756  1.00  0.00     0.044 C 
ENDBRANCH  13  15
ENDBRANCH   1  13
TORSDOF 5
ENDMDL
MODEL 3
REMARK VINA RESULT: -5.969301406      3.238      4.604
REMARK  5 active torsions:
REMARK  status: ('A' for Active; 'I' for Inactive)
REMARK    1  A    between atoms: C2_2  and  N1_3 
REMARK       I    between atoms: N1_3  and  C3_5 
REMARK       I    between atoms: C3_5  and  N2_7 
REMARK    2  A    between atoms: N2_7  and  N3_9 
REMARK    3  A    between atoms: N3_9  and  C4_11 
REMARK    4  A    between atoms: C4_11  and  N4_13 
REMARK    5  A    between atoms: N4_13  and  C5_15 
ROOT
HETATM    1  C4  UNL     1      18.709 -13.853  20.978  1.00  0.00     0.186 C 
HETATM    2  S1  UNL     1      20.130 -13.531  20.247  1.00  0.00    -0.040 SA
ENDROOT
BRANCH   1   3
HETATM    3  N3  UNL     1      17.592 -13.076  20.482  1.00  0.00    -0.272 N 
ATOM      4  H3  UNL     1      17.471 -12.972  19.474  1.00  0.00     0.189 HD
BRANCH   3   5
HETATM    5  N2  UNL     1      16.672 -12.463  21.345  1.00  0.00    -0.249 N 
HETATM    6  C3  UNL     1      15.328 -12.247  20.920  1.00  0.00     0.334 C 
HETATM    7  N1  UNL     1      14.371 -11.626  21.744  1.00  0.00    -0.342 N 
HETATM    8  O1  UNL     1      15.007 -12.626  19.774  1.00  0.00    -0.246 OA
ATOM      9  H1  UNL     1      14.620 -11.309  22.681  1.00  0.00     0.164 HD
ATOM     10  H2  UNL     1      16.964 -12.172  22.277  1.00  0.00     0.192 HD
BRANCH   7  11
HETATM   11  C2  UNL     1      13.013 -11.443  21.233  1.00  0.00     0.120 C 
HETATM   12  C1  UNL     1      12.248 -10.518  22.126  1.00  0.00     0.026 C 
ENDBRANCH   7  11
ENDBRANCH   3   5
ENDBRANCH   1   3
BRANCH   1  13
HETATM   13  N4  UNL     1      18.517 -14.791  22.010  1.00  0.00    -0.361 N 
ATOM     14  H4  UNL     1      17.772 -15.473  21.865  1.00  0.00     0.162 HD
BRANCH  13  15
HETATM   15  C5  UNL     1      19.230 -14.901  23.217  1.00  0.00     0.087 C 
HETATM   16  C6  UNL     1      18.422 -15.303  24.440  1.00  0.00     0.044 C 
HETATM   17  C7  UNL     1      19.393 -15.170  25.628  1.00  0.00     0.118 C 
HETATM   18  N5  UNL     1      20.560 -14.459  25.260  1.00  0.00    -0.416 N 
HETATM   19  C8  UNL     1      21.100 -13.519  26.147  1.00  0.00     0.143 C 
HETATM   20  C9  UNL     1      21.412 -15.073  24.301  1.00  0.00     0.118 C 
HETATM   21  C10 UNL     1      20.491 -15.697  23.228  1.00  0.00     0.044 C 
ENDBRANCH  13  15
ENDBRANCH   1  13
TORSDOF 5
ENDMDL
MODEL 4
REMARK VINA RESULT: -5.873774880      3.443      4.935
REMARK  5 active torsions:
REMARK  status: ('A' for Active; 'I' for Inactive)
REMARK    1  A    between atoms: C2_2  and  N1_3 
REMARK       I    between atoms: N1_3  and  C3_5 
REMARK       I    between atoms: C3_5  and  N2_7 
REMARK    2  A    between atoms: N2_7  and  N3_9 
REMARK    3  A    between atoms: N3_9  and  C4_11 
REMARK    4  A    between atoms: C4_11  and  N4_13 
REMARK    5  A    between atoms: N4_13  and  C5_15 
ROOT
HETATM    1  C4  UNL     1      18.807 -14.139  21.563  1.00  0.00     0.186 C 
HETATM    2  S1  UNL     1      20.059 -13.838  20.563  1.00  0.00    -0.040 SA
ENDROOT
BRANCH   1   3
HETATM    3  N3  UNL     1      17.504 -13.918  20.972  1.00  0.00    -0.272 N 
ATOM      4  H3  UNL     1      17.044 -14.689  20.487  1.00  0.00     0.189 HD
BRANCH   3   5
HETATM    5  N2  UNL     1      16.856 -12.677  21.048  1.00  0.00    -0.249 N 
HETATM    6  C3  UNL     1      15.431 -12.615  21.070  1.00  0.00     0.334 C 
HETATM    7  N1  UNL     1      14.734 -11.394  21.132  1.00  0.00    -0.342 N 
HETATM    8  O1  UNL     1      14.797 -13.690  21.029  1.00  0.00    -0.246 OA
ATOM      9  H1  UNL     1      15.239 -10.508  21.164  1.00  0.00     0.164 HD
ATOM     10  H2  UNL     1      17.403 -11.817  21.088  1.00  0.00     0.192 HD
BRANCH   7  11
HETATM   11  C2  UNL     1      13.272 -11.417  21.153  1.00  0.00     0.120 C 
HETATM   12  C1  UNL     1      12.763 -10.701  22.365  1.00  0.00     0.026 C 
ENDBRANCH   7  11
ENDBRANCH   3   5
ENDBRANCH   1   3
BRANCH   1  13
HETATM   13  N4  UNL     1      18.917 -14.578  22.897  1.00  0.00    -0.361 N 
ATOM     14  H4  UNL     1      18.040 -14.711  23.400  1.00  0.00     0.162 HD
BRANCH  13  15
HETATM   15  C5  UNL     1      20.092 -14.855  23.618  1.00  0.00     0.087 C 
HETATM   16  C6  UNL     1      20.238 -14.152  24.958  1.00  0.00     0.044 C 
HETATM   17  C7  UNL     1      21.664 -14.484  25.435  1.00  0.00     0.118 C 
HETATM   18  N5  UNL     1      22.439 -15.041  24.390  1.00  0.00    -0.416 N 
HETATM   19  C8  UNL     1      23.774 -14.648  24.240  1.00  0.00     0.143 C 
HETATM   20  C9  UNL     1      22.032 -16.312  23.895  1.00  0.00     0.118 C 
HETATM   21  C10 UNL     1      20.489 -16.279  23.810  1.00  0.00     0.044 C 
ENDBRANCH  13  15
ENDBRANCH   1  13
TORSDOF 5
ENDMDL
MODEL 5
REMARK VINA RESULT: -5.841981867      2.755      4.068
REMARK  5 active torsions:
REMARK  status: ('A' for Active; 'I' for Inactive)
REMARK    1  A    between atoms: C2_2  and  N1_3 
REMARK       I    between atoms: N1_3  and  C3_5 
REMARK       I    between atoms: C3_5  and  N2_7 
REMARK    2  A    between atoms: N2_7  and  N3_9 
REMARK    3  A    between atoms: N3_9  and  C4_11 
REMARK    4  A    between atoms: C4_11  and  N4_13 
REMARK    5  A    between atoms: N4_13  and  C5_15 
ROOT
HETATM    1  C4  UNL     1      18.039 -13.831  20.223  1.00  0.00     0.186 C 
HETATM    2  S1  UNL     1      18.912 -13.929  18.851  1.00  0.00    -0.040 SA
ENDROOT
BRANCH   1   3
HETATM    3  N3  UNL     1      16.673 -14.295  20.097  1.00  0.00    -0.272 N 
ATOM      4  H3  UNL     1      16.487 -15.298  20.132  1.00  0.00     0.189 HD
BRANCH   3   5
HETATM    5  N2  UNL     1      15.600 -13.408  19.929  1.00  0.00    -0.249 N 
HETATM    6  C3  UNL     1      14.910 -12.898  21.069  1.00  0.00     0.334 C 
HETATM    7  N1  UNL     1      13.819 -12.016  20.952  1.00  0.00    -0.342 N 
HETATM    8  O1  UNL     1      15.298 -13.258  22.199  1.00  0.00    -0.246 OA
ATOM      9  H1  UNL     1      13.490 -11.716  20.035  1.00  0.00     0.164 HD
ATOM     10  H2  UNL     1      15.312 -13.128  18.992  1.00  0.00     0.192 HD
BRANCH   7  11
HETATM   11  C2  UNL     1      13.168 -11.537  22.170  1.00  0.00     0.120 C 
HETATM   12  C1  UNL     1      12.277 -10.376  21.854  1.00  0.00     0.026 C 
ENDBRANCH   7  11
ENDBRANCH   3   5
ENDBRANCH   1   3
BRANCH   1  13
HETATM   13  N4  UNL     1      18.511 -13.344  21.458  1.00  0.00    -0.361 N 
ATOM     14  H4  UNL     1      18.329 -12.360  21.652  1.00  0.00     0.162 HD
BRANCH  13  15
HETATM   15  C5  UNL     1      19.204 -14.054  22.454  1.00  0.00     0.087 C 
HETATM   16  C6  UNL     1      18.376 -15.012  23.295  1.00  0.00     0.044 C 
HETATM   17  C7  UNL     1      19.327 -15.506  24.401  1.00  0.00     0.118 C 
HETATM   18  N5  UNL     1      20.500 -14.716  24.460  1.00  0.00    -0.416 N 
HETATM   19  C8  UNL     1      21.025 -14.357  25.707  1.00  0.00     0.143 C 
HETATM   20  C9  UNL     1      21.368 -14.769  23.334  1.00  0.00     0.118 C 
HETATM   21  C10 UNL     1      20.465 -14.757  22.080  1.00  0.00     0.044 C 
ENDBRANCH  13  15
ENDBRANCH   1  13
TORSDOF 5
ENDMDL
