MODEL 1
REMARK VINA RESULT: -6.561041052      0.000      0.000
REMARK  6 active torsions:
REMARK  status: ('A' for Active; 'I' for Inactive)
REMARK    1  A    between atoms: C2_2  and  C3_3 
REMARK    2  A    between atoms: C3_3  and  N1_4 
REMARK    3  A    between atoms: N1_4  and  C4_6 
REMARK    4  A    between atoms: C4_6  and  N2_8 
REMARK    5  A    between atoms: N2_8  and  N3_10 
REMARK       I    between atoms: N3_10  and  C5_12 
REMARK       I    between atoms: C5_12  and  N4_14 
REMARK    6  A    between atoms: C8_17  and  N5_18 
ROOT
HETATM    1  N3  UNL     1      15.029 -12.957  20.484  1.00  0.00    -0.249 N 
ATOM      2  H3  UNL     1      15.199 -11.970  20.292  1.00  0.00     0.192 HD
HETATM    3  C5  UNL     1      13.875 -13.370  21.187  1.00  0.00     0.337 C 
HETATM    4  O1  UNL     1      13.714 -14.613  21.395  1.00  0.00    -0.245 OA
HETATM    5  N4  UNL     1      12.928 -12.428  21.646  1.00  0.00    -0.333 N 
HETATM    6  C6  UNL     1      13.068 -11.012  21.420  1.00  0.00     0.129 C 
HETATM    7  C7  UNL     1      12.931 -10.283  22.775  1.00  0.00     0.052 C 
HETATM    8  C8  UNL     1      11.609 -10.692  23.341  1.00  0.00     0.186 C 
HETATM    9  C9  UNL     1      11.727 -12.172  23.725  1.00  0.00     0.052 C 
HETATM   10  C10 UNL     1      11.765 -12.934  22.389  1.00  0.00     0.129 C 
ENDROOT
BRANCH   1  11
HETATM   11  N2  UNL     1      15.932 -13.935  20.057  1.00  0.00    -0.272 N 
ATOM     12  H2  UNL     1      15.624 -14.896  19.907  1.00  0.00     0.189 HD
BRANCH  11  13
HETATM   13  C4  UNL     1      17.276 -13.569  19.838  1.00  0.00     0.186 C 
HETATM   14  S1  UNL     1      17.893 -13.687  18.331  1.00  0.00    -0.040 SA
BRANCH  13  15
HETATM   15  N1  UNL     1      18.043 -13.089  20.928  1.00  0.00    -0.366 N 
ATOM     16  H1  UNL     1      18.159 -12.085  21.063  1.00  0.00     0.161 HD
BRANCH  15  17
HETATM   17  C3  UNL     1      18.660 -14.010  21.848  1.00  0.00     0.121 C 
BRANCH  17  18
HETATM   18  C2  UNL     1      19.995 -14.427  21.319  1.00  0.00     0.015 C 
HETATM   19  C1  UNL     1      19.872 -15.912  20.932  1.00  0.00     0.006 C 
ENDBRANCH  17  18
ENDBRANCH  15  17
ENDBRANCH  13  15
ENDBRANCH  11  13
ENDBRANCH   1  11
BRANCH   8  20
HETATM   20  N5  UNL     1      11.216  -9.901  24.485  1.00  0.00    -0.075 N 
ATOM     21  H53 UNL     1      11.779  -9.054  24.552  1.00  0.00     0.274 HD
ATOM     22  H52 UNL     1      10.298  -9.480  24.339  1.00  0.00     0.274 HD
ATOM     23  H51 UNL     1      11.240 -10.426  25.359  1.00  0.00     0.274 HD
ENDBRANCH   8  20
TORSDOF 6
ENDMDL
MODEL 2
REMARK VINA RESULT: -6.530416135      1.654      2.075
REMARK  6 active torsions:
REMARK  status: ('A' for Active; 'I' for Inactive)
REMARK    1  A    between atoms: C2_2  and  C3_3 
REMARK    2  A    between atoms: C3_3  and  N1_4 
REMARK    3  A    between atoms: N1_4  and  C4_6 
REMARK    4  A    between atoms: C4_6  and  N2_8 
REMARK    5  A    between atoms: N2_8  and  N3_10 
REMARK       I    between atoms: N3_10  and  C5_12 
REMARK       I    between atoms: C5_12  and  N4_14 
REMARK    6  A    between atoms: C8_17  and  N5_18 
ROOT
HETATM    1  N3  UNL     1      14.997 -12.939  20.488  1.00  0.00    -0.249 N 
ATOM      2  H3  UNL     1      15.173 -11.953  20.296  1.00  0.00     0.192 HD
HETATM    3  C5  UNL     1      13.842 -13.343  21.195  1.00  0.00     0.337 C 
HETATM    4  O1  UNL     1      13.672 -14.585  21.403  1.00  0.00    -0.245 OA
HETATM    5  N4  UNL     1      12.903 -12.394  21.657  1.00  0.00    -0.333 N 
HETATM    6  C6  UNL     1      13.053 -10.979  21.431  1.00  0.00     0.129 C 
HETATM    7  C7  UNL     1      12.926 -10.249  22.787  1.00  0.00     0.052 C 
HETATM    8  C8  UNL     1      11.603 -10.649  23.357  1.00  0.00     0.186 C 
HETATM    9  C9  UNL     1      11.711 -12.130  23.741  1.00  0.00     0.052 C 
HETATM   10  C10 UNL     1      11.739 -12.892  22.404  1.00  0.00     0.129 C 
ENDROOT
BRANCH   1  11
HETATM   11  N2  UNL     1      15.891 -13.923  20.058  1.00  0.00    -0.272 N 
ATOM     12  H2  UNL     1      15.562 -14.864  19.839  1.00  0.00     0.189 HD
BRANCH  11  13
HETATM   13  C4  UNL     1      17.257 -13.592  19.933  1.00  0.00     0.186 C 
HETATM   14  S1  UNL     1      18.057 -13.026  21.238  1.00  0.00    -0.040 SA
BRANCH  13  15
HETATM   15  N1  UNL     1      17.896 -13.782  18.683  1.00  0.00    -0.366 N 
ATOM     16  H1  UNL     1      17.336 -13.866  17.835  1.00  0.00     0.161 HD
BRANCH  15  17
HETATM   17  C3  UNL     1      19.333 -13.857  18.601  1.00  0.00     0.121 C 
BRANCH  17  18
HETATM   18  C2  UNL     1      19.782 -13.386  17.255  1.00  0.00     0.015 C 
HETATM   19  C1  UNL     1      18.508 -13.056  16.456  1.00  0.00     0.006 C 
ENDBRANCH  17  18
ENDBRANCH  15  17
ENDBRANCH  13  15
ENDBRANCH  11  13
ENDBRANCH   1  11
BRANCH   8  20
HETATM   20  N5  UNL     1      11.219  -9.856  24.503  1.00  0.00    -0.075 N 
ATOM     21  H53 UNL     1      11.772  -9.001  24.555  1.00  0.00     0.274 HD
ATOM     22  H52 UNL     1      10.294  -9.449  24.370  1.00  0.00     0.274 HD
ATOM     23  H51 UNL     1      11.266 -10.374  25.379  1.00  0.00     0.274 HD
ENDBRANCH   8  20
TORSDOF 6
ENDMDL
MODEL 3
REMARK VINA RESULT: -6.456343211      2.337      7.106
REMARK  6 active torsions:
REMARK  status: ('A' for Active; 'I' for Inactive)
REMARK    1  A    between atoms: C2_2  and  C3_3 
REMARK    2  A    between atoms: C3_3  and  N1_4 
REMARK    3  A    between atoms: N1_4  and  C4_6 
REMARK    4  A    between atoms: C4_6  and  N2_8 
REMARK    5  A    between atoms: N2_8  and  N3_10 
REMARK       I    between atoms: N3_10  and  C5_12 
REMARK       I    between atoms: C5_12  and  N4_14 
REMARK    6  A    between atoms: C8_17  and  N5_18 
ROOT
HETATM    1  N3  UNL     1      15.490 -13.551  20.103  1.00  0.00    -0.249 N 
ATOM      2  H3  UNL     1      15.316 -14.501  19.775  1.00  0.00     0.192 HD
HETATM    3  C5  UNL     1      16.784 -13.147  20.499  1.00  0.00     0.337 C 
HETATM    4  O1  UNL     1      16.942 -11.951  20.897  1.00  0.00    -0.245 OA
HETATM    5  N4  UNL     1      17.872 -14.048  20.455  1.00  0.00    -0.333 N 
HETATM    6  C6  UNL     1      17.737 -15.408  20.000  1.00  0.00     0.129 C 
HETATM    7  C7  UNL     1      18.325 -16.347  21.077  1.00  0.00     0.052 C 
HETATM    8  C8  UNL     1      19.736 -15.904  21.294  1.00  0.00     0.186 C 
HETATM    9  C9  UNL     1      19.674 -14.537  21.987  1.00  0.00     0.052 C 
HETATM   10  C10 UNL     1      19.183 -13.559  20.906  1.00  0.00     0.129 C 
ENDROOT
BRANCH   1  11
HETATM   11  N2  UNL     1      14.453 -12.616  20.170  1.00  0.00    -0.272 N 
ATOM     12  H2  UNL     1      14.273 -11.982  19.392  1.00  0.00     0.189 HD
BRANCH  11  13
HETATM   13  C4  UNL     1      13.657 -12.567  21.335  1.00  0.00     0.186 C 
HETATM   14  S1  UNL     1      12.901 -13.925  21.834  1.00  0.00    -0.040 SA
BRANCH  13  15
HETATM   15  N1  UNL     1      13.558 -11.346  22.046  1.00  0.00    -0.366 N 
ATOM     16  H1  UNL     1      14.370 -10.983  22.546  1.00  0.00     0.161 HD
BRANCH  15  17
HETATM   17  C3  UNL     1      12.318 -10.613  22.069  1.00  0.00     0.121 C 
BRANCH  17  18
HETATM   18  C2  UNL     1      12.062 -10.107  23.452  1.00  0.00     0.015 C 
HETATM   19  C1  UNL     1      11.433 -11.273  24.238  1.00  0.00     0.006 C 
ENDBRANCH  17  18
ENDBRANCH  15  17
ENDBRANCH  13  15
ENDBRANCH  11  13
ENDBRANCH   1  11
BRANCH   8  20
HETATM   20  N5  UNL     1      20.506 -16.837  22.085  1.00  0.00    -0.075 N 
ATOM     21  H53 UNL     1      20.748 -16.434  22.989  1.00  0.00     0.274 HD
ATOM     22  H52 UNL     1      19.925 -17.614  22.399  1.00  0.00     0.274 HD
ATOM     23  H51 UNL     1      21.338 -17.177  21.602  1.00  0.00     0.274 HD
ENDBRANCH   8  20
TORSDOF 6
ENDMDL
MODEL 4
REMARK VINA RESULT: -6.340006690      2.407      7.120
REMARK  6 active torsions:
REMARK  status: ('A' for Active; 'I' for Inactive)
REMARK    1  A    between atoms: C2_2  and  C3_3 
REMARK    2  A    between atoms: C3_3  and  N1_4 
REMARK    3  A    between atoms: N1_4  and  C4_6 
REMARK    4  A    between atoms: C4_6  and  N2_8 
REMARK    5  A    between atoms: N2_8  and  N3_10 
REMARK       I    between atoms: N3_10  and  C5_12 
REMARK       I    between atoms: C5_12  and  N4_14 
REMARK    6  A    between atoms: C8_17  and  N5_18 
ROOT
HETATM    1  N3  UNL     1      15.857 -13.748  20.518  1.00  0.00    -0.249 N 
ATOM      2  H3  UNL     1      15.718 -14.286  21.374  1.00  0.00     0.192 HD
HETATM    3  C5  UNL     1      17.127 -13.681  19.903  1.00  0.00     0.337 C 
HETATM    4  O1  UNL     1      17.241 -12.998  18.838  1.00  0.00    -0.245 OA
HETATM    5  N4  UNL     1      18.240 -14.353  20.458  1.00  0.00    -0.333 N 
HETATM    6  C6  UNL     1      18.149 -15.146  21.657  1.00  0.00     0.129 C 
HETATM    7  C7  UNL     1      19.239 -14.670  22.644  1.00  0.00     0.052 C 
HETATM    8  C8  UNL     1      20.542 -14.787  21.919  1.00  0.00     0.186 C 
HETATM    9  C9  UNL     1      20.540 -13.716  20.822  1.00  0.00     0.052 C 
HETATM   10  C10 UNL     1      19.533 -14.216  19.772  1.00  0.00     0.129 C 
ENDROOT
BRANCH   1  11
HETATM   11  N2  UNL     1      14.795 -13.060  19.925  1.00  0.00    -0.272 N 
ATOM     12  H2  UNL     1      14.760 -12.930  18.914  1.00  0.00     0.189 HD
BRANCH  11  13
HETATM   13  C4  UNL     1      13.771 -12.549  20.750  1.00  0.00     0.186 C 
HETATM   14  S1  UNL     1      12.664 -13.578  21.368  1.00  0.00    -0.040 SA
BRANCH  13  15
HETATM   15  N1  UNL     1      13.748 -11.161  21.034  1.00  0.00    -0.366 N 
ATOM     16  H1  UNL     1      14.583 -10.598  20.873  1.00  0.00     0.161 HD
BRANCH  15  17
HETATM   17  C3  UNL     1      12.554 -10.541  21.549  1.00  0.00     0.121 C 
BRANCH  17  18
HETATM   18  C2  UNL     1      12.774 -10.136  22.971  1.00  0.00     0.015 C 
HETATM   19  C1  UNL     1      11.627 -10.758  23.789  1.00  0.00     0.006 C 
ENDBRANCH  17  18
ENDBRANCH  15  17
ENDBRANCH  13  15
ENDBRANCH  11  13
ENDBRANCH   1  11
BRANCH   8  20
HETATM   20  N5  UNL     1      21.686 -14.622  22.786  1.00  0.00    -0.075 N 
ATOM     21  H53 UNL     1      21.424 -14.143  23.647  1.00  0.00     0.274 HD
ATOM     22  H52 UNL     1      21.980 -15.517  23.177  1.00  0.00     0.274 HD
ATOM     23  H51 UNL     1      22.467 -14.151  22.330  1.00  0.00     0.274 HD
ENDBRANCH   8  20
TORSDOF 6
ENDMDL
MODEL 5
REMARK VINA RESULT: -6.001157568      2.780      6.779
REMARK  6 active torsions:
REMARK  status: ('A' for Active; 'I' for Inactive)
REMARK    1  A    between atoms: C2_2  and  C3_3 
REMARK    2  A    between atoms: C3_3  and  N1_4 
REMARK    3  A    between atoms: N1_4  and  C4_6 
REMARK    4  A    between atoms: C4_6  and  N2_8 
REMARK    5  A    between atoms: N2_8  and  N3_10 
REMARK       I    between atoms: N3_10  and  C5_12 
REMARK       I    between atoms: C5_12  and  N4_14 
REMARK    6  A    between atoms: C8_17  and  N5_18 
ROOT
HETATM    1  N3  UNL     1      15.504 -13.517  20.319  1.00  0.00    -0.249 N 
ATOM      2  H3  UNL     1      15.288 -14.463  20.005  1.00  0.00     0.192 HD
HETATM    3  C5  UNL     1      16.834 -13.139  20.615  1.00  0.00     0.337 C 
HETATM    4  O1  UNL     1      17.045 -11.947  21.000  1.00  0.00    -0.245 OA
HETATM    5  N4  UNL     1      17.897 -14.061  20.487  1.00  0.00    -0.333 N 
HETATM    6  C6  UNL     1      17.700 -15.418  20.043  1.00  0.00     0.129 C 
HETATM    7  C7  UNL     1      18.351 -16.370  21.071  1.00  0.00     0.052 C 
HETATM    8  C8  UNL     1      19.783 -15.955  21.179  1.00  0.00     0.186 C 
HETATM    9  C9  UNL     1      19.801 -14.589  21.876  1.00  0.00     0.052 C 
HETATM   10  C10 UNL     1      19.248 -13.599  20.835  1.00  0.00     0.129 C 
ENDROOT
BRANCH   1  11
HETATM   11  N2  UNL     1      14.494 -12.562  20.467  1.00  0.00    -0.272 N 
ATOM     12  H2  UNL     1      14.352 -11.842  19.759  1.00  0.00     0.189 HD
BRANCH  11  13
HETATM   13  C4  UNL     1      13.674 -12.613  21.614  1.00  0.00     0.186 C 
HETATM   14  S1  UNL     1      12.979 -11.238  22.152  1.00  0.00    -0.040 SA
BRANCH  13  15
HETATM   15  N1  UNL     1      13.463 -13.861  22.250  1.00  0.00    -0.366 N 
ATOM     16  H1  UNL     1      13.957 -14.079  23.115  1.00  0.00     0.161 HD
BRANCH  15  17
HETATM   17  C3  UNL     1      12.554 -14.825  21.684  1.00  0.00     0.121 C 
BRANCH  17  18
HETATM   18  C2  UNL     1      13.188 -16.179  21.698  1.00  0.00     0.015 C 
HETATM   19  C1  UNL     1      12.260 -17.110  20.897  1.00  0.00     0.006 C 
ENDBRANCH  17  18
ENDBRANCH  15  17
ENDBRANCH  13  15
ENDBRANCH  11  13
ENDBRANCH   1  11
BRANCH   8  20
HETATM   20  N5  UNL     1      20.592 -16.905  21.908  1.00  0.00    -0.075 N 
ATOM     21  H53 UNL     1      21.163 -17.461  21.272  1.00  0.00     0.274 HD
ATOM     22  H52 UNL     1      21.332 -16.432  22.426  1.00  0.00     0.274 HD
ATOM     23  H51 UNL     1      20.044 -17.505  22.524  1.00  0.00     0.274 HD
ENDBRANCH   8  20
TORSDOF 6
ENDMDL
