MODEL 1
REMARK VINA RESULT: -5.911053514      0.000      0.000
REMARK  7 active torsions:
REMARK  status: ('A' for Active; 'I' for Inactive)
REMARK       I    between atoms: C3_3  and  N1_5 
REMARK    1  A    between atoms: N1_5  and  N2_7 
REMARK    2  A    between atoms: N2_7  and  C4_9 
REMARK    3  A    between atoms: C4_9  and  N3_11 
REMARK    4  A    between atoms: N3_11  and  C5_13 
REMARK    5  A    between atoms: C5_13  and  N4_15 
REMARK    6  A    between atoms: N4_15  and  C6_17 
REMARK    7  A    between atoms: C6_17  and  C7_18 
ROOT
HETATM    1  C1  UNL     1      11.722  -8.805  24.958  1.00  0.00     0.023 C 
HETATM    2  C2  UNL     1      11.713  -9.706  24.157  1.00  0.00    -0.015 C 
HETATM    3  C3  UNL     1      11.729 -10.774  23.206  1.00  0.00     0.314 C 
HETATM    4  O1  UNL     1      11.807 -10.491  21.991  1.00  0.00    -0.256 OA
HETATM    5  N1  UNL     1      11.661 -12.151  23.585  1.00  0.00    -0.257 N 
ATOM      6  H1  UNL     1      11.596 -12.406  24.570  1.00  0.00     0.191 HD
ENDROOT
BRANCH   5   7
HETATM    7  N2  UNL     1      11.682 -13.136  22.616  1.00  0.00    -0.273 N 
ATOM      8  H2  UNL     1      10.815 -13.434  22.170  1.00  0.00     0.189 HD
BRANCH   7   9
HETATM    9  C4  UNL     1      12.915 -13.732  22.246  1.00  0.00     0.192 C 
HETATM   10  S1  UNL     1      12.875 -15.299  21.747  1.00  0.00    -0.039 SA
BRANCH   9  11
HETATM   11  N3  UNL     1      14.110 -12.997  22.307  1.00  0.00    -0.309 N 
ATOM     12  H3  UNL     1      14.486 -12.803  23.235  1.00  0.00     0.170 HD
BRANCH  11  13
HETATM   13  C5  UNL     1      14.845 -12.496  21.198  1.00  0.00     0.173 C 
HETATM   14  S2  UNL     1      14.064 -12.069  19.830  1.00  0.00    -0.041 SA
BRANCH  13  15
HETATM   15  N4  UNL     1      16.255 -12.388  21.302  1.00  0.00    -0.367 N 
ATOM     16  H4  UNL     1      16.629 -11.644  21.891  1.00  0.00     0.161 HD
BRANCH  15  17
HETATM   17  C6  UNL     1      17.196 -13.246  20.642  1.00  0.00     0.121 C 
BRANCH  17  18
HETATM   18  C7  UNL     1      18.523 -13.284  21.334  1.00  0.00     0.015 C 
HETATM   19  C8  UNL     1      19.587 -13.688  20.305  1.00  0.00     0.006 C 
ENDBRANCH  17  18
ENDBRANCH  15  17
ENDBRANCH  13  15
ENDBRANCH  11  13
ENDBRANCH   9  11
ENDBRANCH   7   9
ENDBRANCH   5   7
TORSDOF 7
ENDMDL
MODEL 2
REMARK VINA RESULT: -5.746723362      1.904      6.472
REMARK  7 active torsions:
REMARK  status: ('A' for Active; 'I' for Inactive)
REMARK       I    between atoms: C3_3  and  N1_5 
REMARK    1  A    between atoms: N1_5  and  N2_7 
REMARK    2  A    between atoms: N2_7  and  C4_9 
REMARK    3  A    between atoms: C4_9  and  N3_11 
REMARK    4  A    between atoms: N3_11  and  C5_13 
REMARK    5  A    between atoms: C5_13  and  N4_15 
REMARK    6  A    between atoms: N4_15  and  C6_17 
REMARK    7  A    between atoms: C6_17  and  C7_18 
ROOT
HETATM    1  C1  UNL     1      19.612 -15.379  20.252  1.00  0.00     0.023 C 
HETATM    2  C2  UNL     1      18.756 -14.531  20.230  1.00  0.00    -0.015 C 
HETATM    3  C3  UNL     1      17.721 -13.543  20.199  1.00  0.00     0.314 C 
HETATM    4  O1  UNL     1      17.317 -13.136  19.089  1.00  0.00    -0.256 OA
HETATM    5  N1  UNL     1      17.130 -13.003  21.383  1.00  0.00    -0.257 N 
ATOM      6  H1  UNL     1      17.445 -13.320  22.300  1.00  0.00     0.191 HD
ENDROOT
BRANCH   5   7
HETATM    7  N2  UNL     1      16.133 -12.052  21.286  1.00  0.00    -0.273 N 
ATOM      8  H2  UNL     1      16.371 -11.060  21.281  1.00  0.00     0.189 HD
BRANCH   7   9
HETATM    9  C4  UNL     1      14.778 -12.459  21.194  1.00  0.00     0.192 C 
HETATM   10  S1  UNL     1      13.948 -12.019  19.844  1.00  0.00    -0.039 SA
BRANCH   9  11
HETATM   11  N3  UNL     1      14.187 -13.211  22.223  1.00  0.00    -0.309 N 
ATOM     12  H3  UNL     1      14.705 -13.282  23.099  1.00  0.00     0.170 HD
BRANCH  11  13
HETATM   13  C5  UNL     1      12.936 -13.883  22.159  1.00  0.00     0.173 C 
HETATM   14  S2  UNL     1      12.870 -15.439  21.672  1.00  0.00    -0.041 SA
BRANCH  13  15
HETATM   15  N4  UNL     1      11.759 -13.175  22.513  1.00  0.00    -0.367 N 
ATOM     16  H4  UNL     1      10.918 -13.357  21.966  1.00  0.00     0.161 HD
BRANCH  15  17
HETATM   17  C6  UNL     1      11.661 -12.226  23.583  1.00  0.00     0.121 C 
BRANCH  17  18
HETATM   18  C7  UNL     1      11.827 -10.813  23.114  1.00  0.00     0.015 C 
HETATM   19  C8  UNL     1      11.588  -9.882  24.310  1.00  0.00     0.006 C 
ENDBRANCH  17  18
ENDBRANCH  15  17
ENDBRANCH  13  15
ENDBRANCH  11  13
ENDBRANCH   9  11
ENDBRANCH   7   9
ENDBRANCH   5   7
TORSDOF 7
ENDMDL
MODEL 3
REMARK VINA RESULT: -5.650082235      2.146      2.596
REMARK  7 active torsions:
REMARK  status: ('A' for Active; 'I' for Inactive)
REMARK       I    between atoms: C3_3  and  N1_5 
REMARK    1  A    between atoms: N1_5  and  N2_7 
REMARK    2  A    between atoms: N2_7  and  C4_9 
REMARK    3  A    between atoms: C4_9  and  N3_11 
REMARK    4  A    between atoms: N3_11  and  C5_13 
REMARK    5  A    between atoms: C5_13  and  N4_15 
REMARK    6  A    between atoms: N4_15  and  C6_17 
REMARK    7  A    between atoms: C6_17  and  C7_18 
ROOT
HETATM    1  C1  UNL     1      11.779  -9.024  24.734  1.00  0.00     0.023 C 
HETATM    2  C2  UNL     1      12.071  -9.743  23.812  1.00  0.00    -0.015 C 
HETATM    3  C3  UNL     1      12.401 -10.582  22.701  1.00  0.00     0.314 C 
HETATM    4  O1  UNL     1      11.643 -11.538  22.430  1.00  0.00    -0.256 OA
HETATM    5  N1  UNL     1      13.558 -10.374  21.889  1.00  0.00    -0.257 N 
ATOM      6  H1  UNL     1      14.191  -9.601  22.093  1.00  0.00     0.191 HD
ENDROOT
BRANCH   5   7
HETATM    7  N2  UNL     1      13.820 -11.221  20.829  1.00  0.00    -0.273 N 
ATOM      8  H2  UNL     1      13.400 -11.044  19.917  1.00  0.00     0.189 HD
BRANCH   7   9
HETATM    9  C4  UNL     1      14.677 -12.337  21.014  1.00  0.00     0.192 C 
HETATM   10  S1  UNL     1      13.967 -13.789  21.318  1.00  0.00    -0.039 SA
BRANCH   9  11
HETATM   11  N3  UNL     1      16.071 -12.187  20.935  1.00  0.00    -0.309 N 
ATOM     12  H3  UNL     1      16.447 -11.256  21.118  1.00  0.00     0.170 HD
BRANCH  11  13
HETATM   13  C5  UNL     1      17.008 -13.209  20.623  1.00  0.00     0.173 C 
HETATM   14  S2  UNL     1      18.175 -13.599  21.694  1.00  0.00    -0.041 SA
BRANCH  13  15
HETATM   15  N4  UNL     1      16.914 -13.867  19.370  1.00  0.00    -0.367 N 
ATOM     16  H4  UNL     1      16.256 -14.643  19.294  1.00  0.00     0.161 HD
BRANCH  15  17
HETATM   17  C6  UNL     1      17.671 -13.524  18.202  1.00  0.00     0.121 C 
BRANCH  17  18
HETATM   18  C7  UNL     1      19.118 -13.887  18.328  1.00  0.00     0.015 C 
HETATM   19  C8  UNL     1      19.862 -13.316  17.114  1.00  0.00     0.006 C 
ENDBRANCH  17  18
ENDBRANCH  15  17
ENDBRANCH  13  15
ENDBRANCH  11  13
ENDBRANCH   9  11
ENDBRANCH   7   9
ENDBRANCH   5   7
TORSDOF 7
ENDMDL
MODEL 4
REMARK VINA RESULT: -5.515596462      1.879      2.377
REMARK  7 active torsions:
REMARK  status: ('A' for Active; 'I' for Inactive)
REMARK       I    between atoms: C3_3  and  N1_5 
REMARK    1  A    between atoms: N1_5  and  N2_7 
REMARK    2  A    between atoms: N2_7  and  C4_9 
REMARK    3  A    between atoms: C4_9  and  N3_11 
REMARK    4  A    between atoms: N3_11  and  C5_13 
REMARK    5  A    between atoms: C5_13  and  N4_15 
REMARK    6  A    between atoms: N4_15  and  C6_17 
REMARK    7  A    between atoms: C6_17  and  C7_18 
ROOT
HETATM    1  C1  UNL     1      11.670  -9.067  24.698  1.00  0.00     0.023 C 
HETATM    2  C2  UNL     1      12.003  -9.790  23.792  1.00  0.00    -0.015 C 
HETATM    3  C3  UNL     1      12.380 -10.635  22.702  1.00  0.00     0.314 C 
HETATM    4  O1  UNL     1      11.663 -11.623  22.436  1.00  0.00    -0.256 OA
HETATM    5  N1  UNL     1      13.542 -10.398  21.903  1.00  0.00    -0.257 N 
ATOM      6  H1  UNL     1      14.142  -9.598  22.103  1.00  0.00     0.191 HD
ENDROOT
BRANCH   5   7
HETATM    7  N2  UNL     1      13.851 -11.251  20.862  1.00  0.00    -0.273 N 
ATOM      8  H2  UNL     1      13.445 -11.101  19.939  1.00  0.00     0.189 HD
BRANCH   7   9
HETATM    9  C4  UNL     1      14.737 -12.338  21.082  1.00  0.00     0.192 C 
HETATM   10  S1  UNL     1      14.068 -13.825  21.291  1.00  0.00    -0.039 SA
BRANCH   9  11
HETATM   11  N3  UNL     1      16.126 -12.130  21.113  1.00  0.00    -0.309 N 
ATOM     12  H3  UNL     1      16.448 -11.193  21.355  1.00  0.00     0.170 HD
BRANCH  11  13
HETATM   13  C5  UNL     1      17.125 -13.103  20.839  1.00  0.00     0.173 C 
HETATM   14  S2  UNL     1      17.265 -13.727  19.338  1.00  0.00    -0.041 SA
BRANCH  13  15
HETATM   15  N4  UNL     1      17.981 -13.523  21.890  1.00  0.00    -0.367 N 
ATOM     16  H4  UNL     1      18.057 -12.916  22.706  1.00  0.00     0.161 HD
BRANCH  15  17
HETATM   17  C6  UNL     1      18.745 -14.736  21.893  1.00  0.00     0.121 C 
BRANCH  17  18
HETATM   18  C7  UNL     1      20.210 -14.493  21.711  1.00  0.00     0.015 C 
HETATM   19  C8  UNL     1      20.931 -14.931  22.993  1.00  0.00     0.006 C 
ENDBRANCH  17  18
ENDBRANCH  15  17
ENDBRANCH  13  15
ENDBRANCH  11  13
ENDBRANCH   9  11
ENDBRANCH   7   9
ENDBRANCH   5   7
TORSDOF 7
ENDMDL
MODEL 5
REMARK VINA RESULT: -5.313438030      3.428      4.753
REMARK  7 active torsions:
REMARK  status: ('A' for Active; 'I' for Inactive)
REMARK       I    between atoms: C3_3  and  N1_5 
REMARK    1  A    between atoms: N1_5  and  N2_7 
REMARK    2  A    between atoms: N2_7  and  C4_9 
REMARK    3  A    between atoms: C4_9  and  N3_11 
REMARK    4  A    between atoms: N3_11  and  C5_13 
REMARK    5  A    between atoms: C5_13  and  N4_15 
REMARK    6  A    between atoms: N4_15  and  C6_17 
REMARK    7  A    between atoms: C6_17  and  C7_18 
ROOT
HETATM    1  C1  UNL     1      12.709 -10.472  21.867  1.00  0.00     0.023 C 
HETATM    2  C2  UNL     1      13.446 -11.416  21.728  1.00  0.00    -0.015 C 
HETATM    3  C3  UNL     1      14.300 -12.550  21.555  1.00  0.00     0.314 C 
HETATM    4  O1  UNL     1      14.352 -13.403  22.467  1.00  0.00    -0.256 OA
HETATM    5  N1  UNL     1      15.095 -12.750  20.384  1.00  0.00    -0.257 N 
ATOM      6  H1  UNL     1      15.069 -12.067  19.627  1.00  0.00     0.191 HD
ENDROOT
BRANCH   5   7
HETATM    7  N2  UNL     1      15.899 -13.869  20.277  1.00  0.00    -0.273 N 
ATOM      8  H2  UNL     1      15.492 -14.801  20.356  1.00  0.00     0.189 HD
BRANCH   7   9
HETATM    9  C4  UNL     1      17.292 -13.716  20.058  1.00  0.00     0.192 C 
HETATM   10  S1  UNL     1      17.814 -13.713  18.498  1.00  0.00    -0.039 SA
BRANCH   9  11
HETATM   11  N3  UNL     1      18.173 -13.572  21.142  1.00  0.00    -0.309 N 
ATOM     12  H3  UNL     1      18.334 -12.625  21.484  1.00  0.00     0.170 HD
BRANCH  11  13
HETATM   13  C5  UNL     1      18.862 -14.622  21.808  1.00  0.00     0.173 C 
HETATM   14  S2  UNL     1      19.528 -15.836  20.944  1.00  0.00    -0.041 SA
BRANCH  13  15
HETATM   15  N4  UNL     1      18.947 -14.597  23.224  1.00  0.00    -0.367 N 
ATOM     16  H4  UNL     1      18.073 -14.569  23.748  1.00  0.00     0.161 HD
BRANCH  15  17
HETATM   17  C6  UNL     1      20.169 -14.609  23.974  1.00  0.00     0.121 C 
BRANCH  17  18
HETATM   18  C7  UNL     1      19.935 -14.580  25.453  1.00  0.00     0.015 C 
HETATM   19  C8  UNL     1      21.047 -13.739  26.095  1.00  0.00     0.006 C 
ENDBRANCH  17  18
ENDBRANCH  15  17
ENDBRANCH  13  15
ENDBRANCH  11  13
ENDBRANCH   9  11
ENDBRANCH   7   9
ENDBRANCH   5   7
TORSDOF 7
ENDMDL
