MODEL 1
REMARK VINA RESULT: -6.322019163      0.000      0.000
REMARK  2 active torsions:
REMARK  status: ('A' for Active; 'I' for Inactive)
REMARK       I    between atoms: C1_4  and  N3_6 
REMARK       I    between atoms: C2_8  and  N4_9 
REMARK       I    between atoms: C2_8  and  N7_18 
REMARK    1  A    between atoms: N4_9  and  N5_11 
REMARK    2  A    between atoms: C3_13  and  N6_14 
ROOT
HETATM    1  N1  UNL     1      43.428  25.078  48.795  1.00  0.00    -0.373 N 
ATOM      2  H11 UNL     1      42.697  24.544  49.264  1.00  0.00     0.158 HD
ATOM      3  H12 UNL     1      43.197  26.029  48.508  1.00  0.00     0.158 HD
HETATM    4  C1  UNL     1      44.574  24.528  48.601  1.00  0.00     0.200 C 
HETATM    5  N2  UNL     1      45.608  25.282  47.939  1.00  0.00    -0.063 NA
HETATM    6  N3  UNL     1      44.892  23.222  48.996  1.00  0.00    -0.163 N 
ATOM      7  H3  UNL     1      45.115  22.553  48.259  1.00  0.00     0.187 HD
HETATM    8  C2  UNL     1      44.927  22.794  50.213  1.00  0.00     0.697 C 
HETATM    9  N4  UNL     1      45.271  21.439  50.407  1.00  0.00    -0.131 N 
ATOM     10  H4  UNL     1      46.185  21.194  50.787  1.00  0.00     0.205 HD
HETATM   11  N7  UNL     1      44.638  23.635  51.313  1.00  0.00    -0.216 N 
HETATM   12  C7  UNL     1      43.375  23.539  52.031  1.00  0.00     0.141 C 
HETATM   13  C8  UNL     1      43.575  23.861  53.493  1.00  0.00     0.020 C 
HETATM   14  C9  UNL     1      43.999  25.314  53.625  1.00  0.00     0.003 C 
HETATM   15  C10 UNL     1      44.719  25.764  52.387  1.00  0.00     0.020 C 
HETATM   16  C11 UNL     1      45.573  24.643  51.796  1.00  0.00     0.141 C 
ENDROOT
BRANCH   9  17
HETATM   17  N5  UNL     1      44.367  20.447  50.082  1.00  0.00    -0.282 N 
HETATM   18  C3  UNL     1      44.160  19.490  50.918  1.00  0.00     0.195 C 
ATOM     19  H5  UNL     1      43.869  20.472  49.192  1.00  0.00     0.188 HD
BRANCH  18  20
HETATM   20  N6  UNL     1      44.802  19.375  52.167  1.00  0.00    -0.376 N 
HETATM   21  C4  UNL     1      45.197  18.293  53.035  1.00  0.00     0.125 C 
HETATM   22  C5  UNL     1      46.337  19.202  53.511  1.00  0.00     0.040 C 
HETATM   23  C6  UNL     1      45.351  20.290  53.136  1.00  0.00     0.125 C 
ENDBRANCH  18  20
ENDBRANCH   9  17
TORSDOF 2
ENDMDL
MODEL 2
REMARK VINA RESULT: -6.096577572      2.391      3.471
REMARK  2 active torsions:
REMARK  status: ('A' for Active; 'I' for Inactive)
REMARK       I    between atoms: C1_4  and  N3_6 
REMARK       I    between atoms: C2_8  and  N4_9 
REMARK       I    between atoms: C2_8  and  N7_18 
REMARK    1  A    between atoms: N4_9  and  N5_11 
REMARK    2  A    between atoms: C3_13  and  N6_14 
ROOT
HETATM    1  N1  UNL     1      44.722  26.229  52.723  1.00  0.00    -0.373 N 
ATOM      2  H11 UNL     1      44.678  26.228  51.704  1.00  0.00     0.158 HD
ATOM      3  H12 UNL     1      44.888  27.126  53.180  1.00  0.00     0.158 HD
HETATM    4  C1  UNL     1      44.567  25.121  53.356  1.00  0.00     0.200 C 
HETATM    5  N2  UNL     1      44.629  25.123  54.795  1.00  0.00    -0.063 NA
HETATM    6  N3  UNL     1      44.338  23.888  52.730  1.00  0.00    -0.163 N 
ATOM      7  H3  UNL     1      45.048  23.166  52.848  1.00  0.00     0.187 HD
HETATM    8  C2  UNL     1      43.305  23.591  52.016  1.00  0.00     0.697 C 
HETATM    9  N4  UNL     1      43.257  22.291  51.467  1.00  0.00    -0.131 N 
ATOM     10  H4  UNL     1      42.613  21.599  51.849  1.00  0.00     0.205 HD
HETATM   11  N7  UNL     1      42.259  24.515  51.786  1.00  0.00    -0.216 N 
HETATM   12  C7  UNL     1      42.108  25.188  50.505  1.00  0.00     0.141 C 
HETATM   13  C8  UNL     1      40.647  25.432  50.207  1.00  0.00     0.020 C 
HETATM   14  C9  UNL     1      40.089  26.401  51.235  1.00  0.00     0.003 C 
HETATM   15  C10 UNL     1      40.850  26.293  52.524  1.00  0.00     0.020 C 
HETATM   16  C11 UNL     1      41.274  24.852  52.805  1.00  0.00     0.141 C 
ENDROOT
BRANCH   9  17
HETATM   17  N5  UNL     1      44.084  21.959  50.412  1.00  0.00    -0.282 N 
HETATM   18  C3  UNL     1      44.897  20.969  50.541  1.00  0.00     0.195 C 
ATOM     19  H5  UNL     1      44.052  22.491  49.543  1.00  0.00     0.188 HD
BRANCH  18  20
HETATM   20  N6  UNL     1      45.009  20.181  51.704  1.00  0.00    -0.376 N 
HETATM   21  C4  UNL     1      44.709  18.818  52.067  1.00  0.00     0.125 C 
HETATM   22  C5  UNL     1      45.858  18.921  53.077  1.00  0.00     0.040 C 
HETATM   23  C6  UNL     1      45.474  20.387  53.053  1.00  0.00     0.125 C 
ENDBRANCH  18  20
ENDBRANCH   9  17
TORSDOF 2
ENDMDL
MODEL 3
REMARK VINA RESULT: -6.042574889      1.874      2.484
REMARK  2 active torsions:
REMARK  status: ('A' for Active; 'I' for Inactive)
REMARK       I    between atoms: C1_4  and  N3_6 
REMARK       I    between atoms: C2_8  and  N4_9 
REMARK       I    between atoms: C2_8  and  N7_18 
REMARK    1  A    between atoms: N4_9  and  N5_11 
REMARK    2  A    between atoms: C3_13  and  N6_14 
ROOT
HETATM    1  N1  UNL     1      45.799  25.516  50.086  1.00  0.00    -0.373 N 
ATOM      2  H11 UNL     1      45.174  25.200  49.345  1.00  0.00     0.158 HD
ATOM      3  H12 UNL     1      46.239  26.428  49.965  1.00  0.00     0.158 HD
HETATM    4  C1  UNL     1      45.989  24.758  51.107  1.00  0.00     0.200 C 
HETATM    5  N2  UNL     1      46.872  25.204  52.154  1.00  0.00    -0.063 NA
HETATM    6  N3  UNL     1      45.385  23.505  51.274  1.00  0.00    -0.163 N 
ATOM      7  H3  UNL     1      45.998  22.691  51.306  1.00  0.00     0.187 HD
HETATM    8  C2  UNL     1      44.117  23.293  51.390  1.00  0.00     0.697 C 
HETATM    9  N4  UNL     1      43.702  21.954  51.551  1.00  0.00    -0.131 N 
ATOM     10  H4  UNL     1      43.367  21.629  52.458  1.00  0.00     0.205 HD
HETATM   11  N7  UNL     1      43.174  24.347  51.360  1.00  0.00    -0.216 N 
HETATM   12  C7  UNL     1      42.340  24.587  50.192  1.00  0.00     0.141 C 
HETATM   13  C8  UNL     1      40.989  25.119  50.609  1.00  0.00     0.020 C 
HETATM   14  C9  UNL     1      41.173  26.481  51.255  1.00  0.00     0.003 C 
HETATM   15  C10 UNL     1      42.533  26.586  51.881  1.00  0.00     0.020 C 
HETATM   16  C11 UNL     1      42.976  25.254  52.484  1.00  0.00     0.141 C 
ENDROOT
BRANCH   9  17
HETATM   17  N5  UNL     1      43.751  21.085  50.479  1.00  0.00    -0.282 N 
HETATM   18  C3  UNL     1      44.450  20.008  50.576  1.00  0.00     0.195 C 
ATOM     19  H5  UNL     1      43.240  21.293  49.621  1.00  0.00     0.188 HD
BRANCH  18  20
HETATM   20  N6  UNL     1      45.186  19.642  51.721  1.00  0.00    -0.376 N 
HETATM   21  C4  UNL     1      46.227  20.240  52.521  1.00  0.00     0.125 C 
HETATM   22  C5  UNL     1      45.653  19.453  53.705  1.00  0.00     0.040 C 
HETATM   23  C6  UNL     1      45.228  18.504  52.605  1.00  0.00     0.125 C 
ENDBRANCH  18  20
ENDBRANCH   9  17
TORSDOF 2
ENDMDL
MODEL 4
REMARK VINA RESULT: -5.861138308      2.291      4.005
REMARK  2 active torsions:
REMARK  status: ('A' for Active; 'I' for Inactive)
REMARK       I    between atoms: C1_4  and  N3_6 
REMARK       I    between atoms: C2_8  and  N4_9 
REMARK       I    between atoms: C2_8  and  N7_18 
REMARK    1  A    between atoms: N4_9  and  N5_11 
REMARK    2  A    between atoms: C3_13  and  N6_14 
ROOT
HETATM    1  N1  UNL     1      44.846  26.473  53.912  1.00  0.00    -0.373 N 
ATOM      2  H11 UNL     1      45.565  26.186  53.248  1.00  0.00     0.158 HD
ATOM      3  H12 UNL     1      44.633  27.469  53.965  1.00  0.00     0.158 HD
HETATM    4  C1  UNL     1      44.266  25.576  54.628  1.00  0.00     0.200 C 
HETATM    5  N2  UNL     1      43.251  25.980  55.567  1.00  0.00    -0.063 NA
HETATM    6  N3  UNL     1      44.558  24.208  54.556  1.00  0.00    -0.163 N 
ATOM      7  H3  UNL     1      44.946  23.769  55.391  1.00  0.00     0.187 HD
HETATM    8  C2  UNL     1      44.379  23.456  53.523  1.00  0.00     0.697 C 
HETATM    9  N4  UNL     1      44.737  22.097  53.648  1.00  0.00    -0.131 N 
ATOM     10  H4  UNL     1      44.013  21.382  53.714  1.00  0.00     0.205 HD
HETATM   11  N7  UNL     1      43.847  23.958  52.312  1.00  0.00    -0.216 N 
HETATM   12  C7  UNL     1      44.693  24.195  51.151  1.00  0.00     0.141 C 
HETATM   13  C8  UNL     1      43.923  23.936  49.878  1.00  0.00     0.020 C 
HETATM   14  C9  UNL     1      42.798  24.952  49.765  1.00  0.00     0.003 C 
HETATM   15  C10 UNL     1      42.366  25.407  51.128  1.00  0.00     0.020 C 
HETATM   16  C11 UNL     1      42.433  24.270  52.147  1.00  0.00     0.141 C 
ENDROOT
BRANCH   9  17
HETATM   17  N5  UNL     1      46.070  21.737  53.681  1.00  0.00    -0.282 N 
HETATM   18  C3  UNL     1      46.496  20.835  52.867  1.00  0.00     0.195 C 
ATOM     19  H5  UNL     1      46.708  22.179  54.342  1.00  0.00     0.188 HD
BRANCH  18  20
HETATM   20  N6  UNL     1      45.686  20.172  51.923  1.00  0.00    -0.376 N 
HETATM   21  C4  UNL     1      45.084  18.867  51.808  1.00  0.00     0.125 C 
HETATM   22  C5  UNL     1      43.976  19.541  50.990  1.00  0.00     0.040 C 
HETATM   23  C6  UNL     1      45.095  20.504  50.651  1.00  0.00     0.125 C 
ENDBRANCH  18  20
ENDBRANCH   9  17
TORSDOF 2
ENDMDL
MODEL 5
REMARK VINA RESULT: -5.847496140      2.242      3.362
REMARK  2 active torsions:
REMARK  status: ('A' for Active; 'I' for Inactive)
REMARK       I    between atoms: C1_4  and  N3_6 
REMARK       I    between atoms: C2_8  and  N4_9 
REMARK       I    between atoms: C2_8  and  N7_18 
REMARK    1  A    between atoms: N4_9  and  N5_11 
REMARK    2  A    between atoms: C3_13  and  N6_14 
ROOT
HETATM    1  N1  UNL     1      45.793  25.449  53.174  1.00  0.00    -0.373 N 
ATOM      2  H11 UNL     1      45.497  25.593  52.209  1.00  0.00     0.158 HD
ATOM      3  H12 UNL     1      46.196  26.250  53.661  1.00  0.00     0.158 HD
HETATM    4  C1  UNL     1      45.641  24.289  53.706  1.00  0.00     0.200 C 
HETATM    5  N2  UNL     1      46.058  24.085  55.070  1.00  0.00    -0.063 NA
HETATM    6  N3  UNL     1      45.087  23.188  53.039  1.00  0.00    -0.163 N 
ATOM      7  H3  UNL     1      45.691  22.380  52.890  1.00  0.00     0.187 HD
HETATM    8  C2  UNL     1      43.877  23.111  52.597  1.00  0.00     0.697 C 
HETATM    9  N4  UNL     1      43.506  21.913  51.949  1.00  0.00    -0.131 N 
ATOM     10  H4  UNL     1      42.884  21.253  52.414  1.00  0.00     0.205 HD
HETATM   11  N7  UNL     1      42.953  24.170  52.750  1.00  0.00    -0.216 N 
HETATM   12  C7  UNL     1      42.587  25.026  51.631  1.00  0.00     0.141 C 
HETATM   13  C8  UNL     1      41.149  25.473  51.757  1.00  0.00     0.020 C 
HETATM   14  C9  UNL     1      41.011  26.349  52.991  1.00  0.00     0.003 C 
HETATM   15  C10 UNL     1      42.044  25.978  54.014  1.00  0.00     0.020 C 
HETATM   16  C11 UNL     1      42.311  24.474  54.023  1.00  0.00     0.141 C 
ENDROOT
BRANCH   9  17
HETATM   17  N5  UNL     1      43.988  21.638  50.684  1.00  0.00    -0.282 N 
HETATM   18  C3  UNL     1      44.834  20.680  50.531  1.00  0.00     0.195 C 
ATOM     19  H5  UNL     1      43.678  22.186  49.882  1.00  0.00     0.188 HD
BRANCH  18  20
HETATM   20  N6  UNL     1      45.317  19.873  51.580  1.00  0.00    -0.376 N 
HETATM   21  C4  UNL     1      46.270  20.025  52.652  1.00  0.00     0.125 C 
HETATM   22  C5  UNL     1      45.415  19.028  53.442  1.00  0.00     0.040 C 
HETATM   23  C6  UNL     1      45.073  18.533  52.052  1.00  0.00     0.125 C 
ENDBRANCH  18  20
ENDBRANCH   9  17
TORSDOF 2
ENDMDL
