MODEL 1
REMARK VINA RESULT: -6.353751840      0.000      0.000
REMARK  1 active torsions:
REMARK  status: ('A' for Active; 'I' for Inactive)
REMARK       I    between atoms: N1_2  and  C2_4 
REMARK    1  A    between atoms: C2_4  and  C3_6 
ROOT
HETATM    1  C3  UNL     1      44.277  22.285  51.230  1.00  0.00     0.211 C 
HETATM    2  C4  UNL     1      45.369  22.813  50.295  1.00  0.00     0.074 C 
HETATM    3  C5  UNL     1      45.514  24.203  50.000  1.00  0.00     0.080 C 
HETATM    4  C6  UNL     1      45.003  24.493  48.591  1.00  0.00     0.025 C 
HETATM    5  C7  UNL     1      43.692  25.185  48.659  1.00  0.00     0.004 C 
HETATM    6  C8  UNL     1      42.744  24.903  49.682  1.00  0.00     0.036 C 
HETATM    7  C9  UNL     1      43.058  24.094  50.931  1.00  0.00     0.215 C 
HETATM    8  N2  UNL     1      43.095  22.714  50.563  1.00  0.00    -0.050 N 
ATOM      9  H21 UNL     1      42.253  22.180  50.777  1.00  0.00     0.279 HD
ATOM     10  H22 UNL     1      43.066  22.527  49.560  1.00  0.00     0.279 HD
HETATM   11  C10 UNL     1      44.171  24.668  51.718  1.00  0.00     0.054 C 
HETATM   12  C11 UNL     1      43.473  24.984  52.969  1.00  0.00     0.033 C 
HETATM   13  C12 UNL     1      43.244  23.469  53.296  1.00  0.00     0.010 C 
HETATM   14  C13 UNL     1      44.373  22.697  52.648  1.00  0.00     0.034 C 
HETATM   15  C14 UNL     1      45.228  23.907  52.462  1.00  0.00     0.040 C 
HETATM   16  N3  UNL     1      44.927  25.293  50.807  1.00  0.00    -0.406 N 
ATOM     17  H3  UNL     1      45.067  26.298  50.695  1.00  0.00     0.154 HD
ENDROOT
BRANCH   1  18
HETATM   18  C2  UNL     1      44.357  20.805  51.159  1.00  0.00     0.254 C 
HETATM   19  N1  UNL     1      44.917  20.058  52.229  1.00  0.00    -0.363 N 
HETATM   20  C1  UNL     1      44.974  18.622  52.115  1.00  0.00     0.149 C 
ATOM     21  H1  UNL     1      45.271  20.529  53.061  1.00  0.00     0.161 HD
HETATM   22  O1  UNL     1      43.912  20.227  50.120  1.00  0.00    -0.271 OA
ENDBRANCH   1  18
TORSDOF 1
ENDMDL
MODEL 2
REMARK VINA RESULT: -6.219103289      1.754      2.836
REMARK  1 active torsions:
REMARK  status: ('A' for Active; 'I' for Inactive)
REMARK       I    between atoms: N1_2  and  C2_4 
REMARK    1  A    between atoms: C2_4  and  C3_6 
ROOT
HETATM    1  C3  UNL     1      45.135  21.895  52.560  1.00  0.00     0.211 C 
HETATM    2  C4  UNL     1      44.014  22.162  51.551  1.00  0.00     0.074 C 
HETATM    3  C5  UNL     1      43.587  23.484  51.217  1.00  0.00     0.080 C 
HETATM    4  C6  UNL     1      42.245  23.781  51.881  1.00  0.00     0.025 C 
HETATM    5  C7  UNL     1      42.439  24.702  53.029  1.00  0.00     0.004 C 
HETATM    6  C8  UNL     1      43.606  24.656  53.842  1.00  0.00     0.036 C 
HETATM    7  C9  UNL     1      44.861  23.876  53.483  1.00  0.00     0.215 C 
HETATM    8  N2  UNL     1      44.608  22.493  53.739  1.00  0.00    -0.050 N 
ATOM      9  H21 UNL     1      44.983  22.134  54.617  1.00  0.00     0.279 HD
ATOM     10  H22 UNL     1      43.638  22.258  53.954  1.00  0.00     0.279 HD
HETATM   11  C10 UNL     1      45.433  24.282  52.181  1.00  0.00     0.054 C 
HETATM   12  C11 UNL     1      46.739  24.791  52.613  1.00  0.00     0.033 C 
HETATM   13  C12 UNL     1      47.221  23.364  53.045  1.00  0.00     0.010 C 
HETATM   14  C13 UNL     1      46.487  22.364  52.178  1.00  0.00     0.034 C 
HETATM   15  C14 UNL     1      46.081  23.386  51.168  1.00  0.00     0.040 C 
HETATM   16  N3  UNL     1      44.375  24.707  51.478  1.00  0.00    -0.406 N 
ATOM     17  H3  UNL     1      44.161  25.661  51.187  1.00  0.00     0.154 HD
ENDROOT
BRANCH   1  18
HETATM   18  C2  UNL     1      45.178  20.424  52.746  1.00  0.00     0.254 C 
HETATM   19  N1  UNL     1      45.812  19.856  53.882  1.00  0.00    -0.363 N 
HETATM   20  C1  UNL     1      45.829  18.421  54.020  1.00  0.00     0.149 C 
ATOM     21  H1  UNL     1      46.246  20.451  54.587  1.00  0.00     0.161 HD
HETATM   22  O1  UNL     1      44.633  19.690  51.865  1.00  0.00    -0.271 OA
ENDBRANCH   1  18
TORSDOF 1
ENDMDL
MODEL 3
REMARK VINA RESULT: -6.124680571      1.603      2.265
REMARK  1 active torsions:
REMARK  status: ('A' for Active; 'I' for Inactive)
REMARK       I    between atoms: N1_2  and  C2_4 
REMARK    1  A    between atoms: C2_4  and  C3_6 
ROOT
HETATM    1  C3  UNL     1      45.447  21.735  52.468  1.00  0.00     0.211 C 
HETATM    2  C4  UNL     1      45.196  21.985  50.978  1.00  0.00     0.074 C 
HETATM    3  C5  UNL     1      44.966  23.293  50.451  1.00  0.00     0.080 C 
HETATM    4  C6  UNL     1      43.487  23.466  50.116  1.00  0.00     0.025 C 
HETATM    5  C7  UNL     1      42.836  24.334  51.129  1.00  0.00     0.004 C 
HETATM    6  C8  UNL     1      43.227  24.318  52.498  1.00  0.00     0.036 C 
HETATM    7  C9  UNL     1      44.487  23.641  53.013  1.00  0.00     0.215 C 
HETATM    8  N2  UNL     1      44.246  22.232  53.048  1.00  0.00    -0.050 N 
ATOM      9  H21 UNL     1      44.012  21.851  53.965  1.00  0.00     0.279 HD
ATOM     10  H22 UNL     1      43.383  21.925  52.600  1.00  0.00     0.279 HD
HETATM   11  C10 UNL     1      45.715  24.153  52.367  1.00  0.00     0.054 C 
HETATM   12  C11 UNL     1      46.408  24.719  53.530  1.00  0.00     0.033 C 
HETATM   13  C12 UNL     1      46.627  23.305  54.166  1.00  0.00     0.010 C 
HETATM   14  C13 UNL     1      46.691  22.309  53.028  1.00  0.00     0.034 C 
HETATM   15  C14 UNL     1      46.929  23.356  51.992  1.00  0.00     0.040 C 
HETATM   16  N3  UNL     1      45.307  24.547  51.154  1.00  0.00    -0.406 N 
ATOM     17  H3  UNL     1      45.245  25.500  50.796  1.00  0.00     0.154 HD
ENDROOT
BRANCH   1  18
HETATM   18  C2  UNL     1      45.486  20.261  52.636  1.00  0.00     0.254 C 
HETATM   19  N1  UNL     1      45.746  19.684  53.907  1.00  0.00    -0.363 N 
HETATM   20  C1  UNL     1      45.775  18.247  54.022  1.00  0.00     0.149 C 
ATOM     21  H1  UNL     1      45.909  20.275  54.722  1.00  0.00     0.161 HD
HETATM   22  O1  UNL     1      45.280  19.533  51.616  1.00  0.00    -0.271 OA
ENDBRANCH   1  18
TORSDOF 1
ENDMDL
MODEL 4
REMARK VINA RESULT: -6.112605929      1.154      2.373
REMARK  1 active torsions:
REMARK  status: ('A' for Active; 'I' for Inactive)
REMARK       I    between atoms: N1_2  and  C2_4 
REMARK    1  A    between atoms: C2_4  and  C3_6 
ROOT
HETATM    1  C3  UNL     1      44.457  22.341  51.441  1.00  0.00     0.211 C 
HETATM    2  C4  UNL     1      43.329  22.778  50.502  1.00  0.00     0.074 C 
HETATM    3  C5  UNL     1      42.851  24.123  50.456  1.00  0.00     0.080 C 
HETATM    4  C6  UNL     1      41.497  24.219  51.155  1.00  0.00     0.025 C 
HETATM    5  C7  UNL     1      41.652  24.876  52.476  1.00  0.00     0.004 C 
HETATM    6  C8  UNL     1      42.818  24.700  53.273  1.00  0.00     0.036 C 
HETATM    7  C9  UNL     1      44.104  24.063  52.768  1.00  0.00     0.215 C 
HETATM    8  N2  UNL     1      43.904  22.649  52.716  1.00  0.00    -0.050 N 
ATOM      9  H21 UNL     1      44.291  22.123  53.500  1.00  0.00     0.279 HD
ATOM     10  H22 UNL     1      42.944  22.337  52.864  1.00  0.00     0.279 HD
HETATM   11  C10 UNL     1      44.662  24.763  51.590  1.00  0.00     0.054 C 
HETATM   12  C11 UNL     1      45.947  25.215  52.136  1.00  0.00     0.033 C 
HETATM   13  C12 UNL     1      46.483  23.748  52.255  1.00  0.00     0.010 C 
HETATM   14  C13 UNL     1      45.790  22.932  51.184  1.00  0.00     0.034 C 
HETATM   15  C14 UNL     1      45.347  24.132  50.415  1.00  0.00     0.040 C 
HETATM   16  N3  UNL     1      43.590  25.289  50.984  1.00  0.00    -0.406 N 
ATOM     17  H3  UNL     1      43.340  26.275  50.904  1.00  0.00     0.154 HD
ENDROOT
BRANCH   1  18
HETATM   18  C2  UNL     1      44.557  20.867  51.306  1.00  0.00     0.254 C 
HETATM   19  N1  UNL     1      45.067  20.075  52.368  1.00  0.00    -0.363 N 
HETATM   20  C1  UNL     1      45.145  18.646  52.190  1.00  0.00     0.149 C 
ATOM     21  H1  UNL     1      45.371  20.508  53.239  1.00  0.00     0.161 HD
HETATM   22  O1  UNL     1      44.175  20.336  50.218  1.00  0.00    -0.271 OA
ENDBRANCH   1  18
TORSDOF 1
ENDMDL
MODEL 5
REMARK VINA RESULT: -6.042202020      1.663      2.628
REMARK  1 active torsions:
REMARK  status: ('A' for Active; 'I' for Inactive)
REMARK       I    between atoms: N1_2  and  C2_4 
REMARK    1  A    between atoms: C2_4  and  C3_6 
ROOT
HETATM    1  C3  UNL     1      44.807  22.407  52.324  1.00  0.00     0.211 C 
HETATM    2  C4  UNL     1      43.731  22.509  51.238  1.00  0.00     0.074 C 
HETATM    3  C5  UNL     1      43.184  23.760  50.821  1.00  0.00     0.080 C 
HETATM    4  C6  UNL     1      41.778  23.930  51.390  1.00  0.00     0.025 C 
HETATM    5  C7  UNL     1      41.795  24.910  52.504  1.00  0.00     0.004 C 
HETATM    6  C8  UNL     1      42.906  25.026  53.387  1.00  0.00     0.036 C 
HETATM    7  C9  UNL     1      44.259  24.378  53.139  1.00  0.00     0.215 C 
HETATM    8  N2  UNL     1      44.143  22.986  53.442  1.00  0.00    -0.050 N 
ATOM      9  H21 UNL     1      44.498  22.706  54.356  1.00  0.00     0.279 HD
ATOM     10  H22 UNL     1      43.193  22.653  53.608  1.00  0.00     0.279 HD
HETATM   11  C10 UNL     1      44.865  24.796  51.856  1.00  0.00     0.054 C 
HETATM   12  C11 UNL     1      46.078  25.464  52.342  1.00  0.00     0.033 C 
HETATM   13  C12 UNL     1      46.684  24.118  52.866  1.00  0.00     0.010 C 
HETATM   14  C13 UNL     1      46.121  23.010  52.002  1.00  0.00     0.034 C 
HETATM   15  C14 UNL     1      45.671  23.940  50.925  1.00  0.00     0.040 C 
HETATM   16  N3  UNL     1      43.815  25.072  51.073  1.00  0.00    -0.406 N 
ATOM     17  H3  UNL     1      43.516  25.985  50.727  1.00  0.00     0.154 HD
ENDROOT
BRANCH   1  18
HETATM   18  C2  UNL     1      44.999  20.958  52.578  1.00  0.00     0.254 C 
HETATM   19  N1  UNL     1      44.732  20.003  51.562  1.00  0.00    -0.363 N 
HETATM   20  C1  UNL     1      44.933  18.606  51.855  1.00  0.00     0.149 C 
ATOM     21  H1  UNL     1      44.405  20.300  50.643  1.00  0.00     0.161 HD
HETATM   22  O1  UNL     1      45.407  20.597  53.725  1.00  0.00    -0.271 OA
ENDBRANCH   1  18
TORSDOF 1
ENDMDL
