MODEL 1
REMARK VINA RESULT: -6.289762339      0.000      0.000
REMARK  3 active torsions:
REMARK  status: ('A' for Active; 'I' for Inactive)
REMARK    1  A    between atoms: C2_4  and  N2_6 
REMARK    2  A    between atoms: C6_9  and  N3_10 
REMARK       I    between atoms: N3_10  and  C7_12 
REMARK       I    between atoms: C7_12  and  N5_16 
REMARK    3  A    between atoms: N5_16  and  C8_18 
ROOT
HETATM    1  N3  UNL     1      43.945  23.239  51.981  1.00  0.00    -0.221 N 
ATOM      2  H3  UNL     1      44.622  23.422  52.721  1.00  0.00     0.178 HD
HETATM    3  C7  UNL     1      44.200  22.260  51.003  1.00  0.00     0.668 C 
HETATM    4  N4  UNL     1      44.724  22.590  49.892  1.00  0.00    -0.235 N 
ATOM      5  H41 UNL     1      44.908  21.880  49.183  1.00  0.00     0.174 HD
ATOM      6  H42 UNL     1      44.960  23.567  49.713  1.00  0.00     0.174 HD
HETATM    7  N5  UNL     1      43.874  20.912  51.249  1.00  0.00    -0.221 N 
ATOM      8  H5  UNL     1      42.915  20.582  51.142  1.00  0.00     0.178 HD
ENDROOT
BRANCH   1   9
HETATM    9  C6  UNL     1      42.712  23.975  51.917  1.00  0.00     0.118 C 
HETATM   10  C5  UNL     1      42.783  25.213  51.083  1.00  0.00     0.047 C 
HETATM   11  C4  UNL     1      41.612  26.036  51.590  1.00  0.00     0.126 C 
HETATM   12  N2  UNL     1      41.263  25.467  52.878  1.00  0.00    -0.369 N 
HETATM   13  C12 UNL     1      42.297  24.535  53.262  1.00  0.00     0.149 C 
BRANCH  12  14
HETATM   14  C2  UNL     1      40.111  25.753  53.655  1.00  0.00     0.070 C 
HETATM   15  N1  UNL     1      39.295  26.683  53.336  1.00  0.00    -0.385 N 
HETATM   16  C1  UNL     1      38.130  26.977  54.118  1.00  0.00     0.147 C 
ATOM     17  H1  UNL     1      39.479  27.234  52.498  1.00  0.00     0.160 HD
HETATM   18  C3  UNL     1      39.854  24.937  54.882  1.00  0.00     0.088 C 
ENDBRANCH  12  14
ENDBRANCH   1   9
BRANCH   7  19
HETATM   19  C8  UNL     1      44.910  20.011  51.653  1.00  0.00     0.126 C 
HETATM   20  C9  UNL     1      45.407  20.324  53.072  1.00  0.00     0.055 C 
HETATM   21  C10 UNL     1      46.031  18.966  53.423  1.00  0.00     0.234 C 
HETATM   22  N6  UNL     1      44.960  18.072  53.034  1.00  0.00    -0.073 N 
HETATM   23  C11 UNL     1      44.468  18.583  51.789  1.00  0.00     0.257 C 
ATOM     24  H62 UNL     1      45.240  17.092  52.993  1.00  0.00     0.277 HD
ATOM     25  H61 UNL     1      44.239  17.961  53.747  1.00  0.00     0.277 HD
ENDBRANCH   7  19
TORSDOF 3
ENDMDL
MODEL 2
REMARK VINA RESULT: -6.209289075      0.976      1.166
REMARK  3 active torsions:
REMARK  status: ('A' for Active; 'I' for Inactive)
REMARK    1  A    between atoms: C2_4  and  N2_6 
REMARK    2  A    between atoms: C6_9  and  N3_10 
REMARK       I    between atoms: N3_10  and  C7_12 
REMARK       I    between atoms: C7_12  and  N5_16 
REMARK    3  A    between atoms: N5_16  and  C8_18 
ROOT
HETATM    1  N3  UNL     1      44.496  23.323  52.000  1.00  0.00    -0.221 N 
ATOM      2  H3  UNL     1      45.280  23.424  52.645  1.00  0.00     0.178 HD
HETATM    3  C7  UNL     1      44.481  22.290  51.045  1.00  0.00     0.668 C 
HETATM    4  N4  UNL     1      44.905  22.507  49.865  1.00  0.00    -0.235 N 
ATOM      5  H41 UNL     1      44.894  21.758  49.173  1.00  0.00     0.174 HD
ATOM      6  H42 UNL     1      45.256  23.431  49.614  1.00  0.00     0.174 HD
HETATM    7  N5  UNL     1      43.996  21.014  51.391  1.00  0.00    -0.221 N 
ATOM      8  H5  UNL     1      42.993  20.829  51.414  1.00  0.00     0.178 HD
ENDROOT
BRANCH   1   9
HETATM    9  C6  UNL     1      43.385  24.234  52.050  1.00  0.00     0.118 C 
HETATM   10  C5  UNL     1      43.771  25.675  51.956  1.00  0.00     0.047 C 
HETATM   11  C4  UNL     1      42.570  26.391  52.546  1.00  0.00     0.126 C 
HETATM   12  N2  UNL     1      41.841  25.384  53.293  1.00  0.00    -0.369 N 
HETATM   13  C12 UNL     1      42.660  24.197  53.380  1.00  0.00     0.149 C 
BRANCH  12  14
HETATM   14  C2  UNL     1      40.545  25.507  53.856  1.00  0.00     0.070 C 
HETATM   15  N1  UNL     1      40.152  24.761  54.815  1.00  0.00    -0.385 N 
HETATM   16  C1  UNL     1      38.843  24.880  55.388  1.00  0.00     0.147 C 
ATOM     17  H1  UNL     1      40.791  24.057  55.186  1.00  0.00     0.160 HD
HETATM   18  C3  UNL     1      39.619  26.544  53.303  1.00  0.00     0.088 C 
ENDBRANCH  12  14
ENDBRANCH   1   9
BRANCH   7  19
HETATM   19  C8  UNL     1      44.932  19.979  51.709  1.00  0.00     0.126 C 
HETATM   20  C9  UNL     1      45.478  20.134  53.136  1.00  0.00     0.055 C 
HETATM   21  C10 UNL     1      45.954  18.694  53.378  1.00  0.00     0.234 C 
HETATM   22  N6  UNL     1      44.787  17.952  52.949  1.00  0.00    -0.073 N 
HETATM   23  C11 UNL     1      44.338  18.602  51.753  1.00  0.00     0.257 C 
ATOM     24  H62 UNL     1      44.958  16.952  52.833  1.00  0.00     0.277 HD
ATOM     25  H61 UNL     1      44.067  17.869  53.666  1.00  0.00     0.277 HD
ENDBRANCH   7  19
TORSDOF 3
ENDMDL
MODEL 3
REMARK VINA RESULT: -6.207082475      4.112      5.427
REMARK  3 active torsions:
REMARK  status: ('A' for Active; 'I' for Inactive)
REMARK    1  A    between atoms: C2_4  and  N2_6 
REMARK    2  A    between atoms: C6_9  and  N3_10 
REMARK       I    between atoms: N3_10  and  C7_12 
REMARK       I    between atoms: C7_12  and  N5_16 
REMARK    3  A    between atoms: N5_16  and  C8_18 
ROOT
HETATM    1  N3  UNL     1      45.200  22.889  52.099  1.00  0.00    -0.221 N 
ATOM      2  H3  UNL     1      44.228  22.968  52.396  1.00  0.00     0.178 HD
HETATM    3  C7  UNL     1      46.078  22.002  52.749  1.00  0.00     0.668 C 
HETATM    4  N4  UNL     1      46.819  22.418  53.696  1.00  0.00    -0.235 N 
ATOM      5  H41 UNL     1      47.456  21.775  54.167  1.00  0.00     0.174 HD
ATOM      6  H42 UNL     1      46.774  23.396  53.982  1.00  0.00     0.174 HD
HETATM    7  N5  UNL     1      46.141  20.652  52.354  1.00  0.00    -0.221 N 
ATOM      8  H5  UNL     1      46.680  20.376  51.533  1.00  0.00     0.178 HD
ENDROOT
BRANCH   1   9
HETATM    9  C6  UNL     1      45.701  23.681  51.009  1.00  0.00     0.118 C 
HETATM   10  C5  UNL     1      45.801  25.141  51.310  1.00  0.00     0.047 C 
HETATM   11  C4  UNL     1      45.821  25.775  49.931  1.00  0.00     0.126 C 
HETATM   12  N2  UNL     1      45.312  24.762  49.026  1.00  0.00    -0.369 N 
HETATM   13  C12 UNL     1      44.771  23.677  49.812  1.00  0.00     0.149 C 
BRANCH  12  14
HETATM   14  C2  UNL     1      45.327  24.796  47.608  1.00  0.00     0.070 C 
HETATM   15  N1  UNL     1      45.483  23.738  46.910  1.00  0.00    -0.385 N 
HETATM   16  C1  UNL     1      45.500  23.766  45.476  1.00  0.00     0.147 C 
ATOM     17  H1  UNL     1      45.601  22.845  47.387  1.00  0.00     0.160 HD
HETATM   18  C3  UNL     1      45.153  26.113  46.921  1.00  0.00     0.088 C 
ENDBRANCH  12  14
ENDBRANCH   1   9
BRANCH   7  19
HETATM   19  C8  UNL     1      45.436  19.671  53.122  1.00  0.00     0.126 C 
HETATM   20  C9  UNL     1      44.822  18.588  52.223  1.00  0.00     0.055 C 
HETATM   21  C10 UNL     1      44.655  17.468  53.260  1.00  0.00     0.234 C 
HETATM   22  N6  UNL     1      45.967  17.474  53.873  1.00  0.00    -0.073 N 
HETATM   23  C11 UNL     1      46.308  18.857  54.033  1.00  0.00     0.257 C 
ATOM     24  H62 UNL     1      46.018  16.937  54.739  1.00  0.00     0.277 HD
ATOM     25  H61 UNL     1      46.664  16.937  53.357  1.00  0.00     0.277 HD
ENDBRANCH   7  19
TORSDOF 3
ENDMDL
MODEL 4
REMARK VINA RESULT: -6.172877504      0.887      1.104
REMARK  3 active torsions:
REMARK  status: ('A' for Active; 'I' for Inactive)
REMARK    1  A    between atoms: C2_4  and  N2_6 
REMARK    2  A    between atoms: C6_9  and  N3_10 
REMARK       I    between atoms: N3_10  and  C7_12 
REMARK       I    between atoms: C7_12  and  N5_16 
REMARK    3  A    between atoms: N5_16  and  C8_18 
ROOT
HETATM    1  N3  UNL     1      43.932  22.883  51.788  1.00  0.00    -0.221 N 
ATOM      2  H3  UNL     1      44.540  23.122  52.570  1.00  0.00     0.178 HD
HETATM    3  C7  UNL     1      44.288  21.860  50.889  1.00  0.00     0.668 C 
HETATM    4  N4  UNL     1      44.899  22.144  49.810  1.00  0.00    -0.235 N 
ATOM      5  H41 UNL     1      45.157  21.402  49.158  1.00  0.00     0.174 HD
ATOM      6  H42 UNL     1      45.129  23.115  49.598  1.00  0.00     0.174 HD
HETATM    7  N5  UNL     1      43.971  20.520  51.182  1.00  0.00    -0.221 N 
ATOM      8  H5  UNL     1      43.030  20.162  51.013  1.00  0.00     0.178 HD
ENDROOT
BRANCH   1   9
HETATM    9  C6  UNL     1      42.694  23.585  51.580  1.00  0.00     0.118 C 
HETATM   10  C5  UNL     1      42.659  24.405  50.331  1.00  0.00     0.047 C 
HETATM   11  C4  UNL     1      41.549  25.403  50.608  1.00  0.00     0.126 C 
HETATM   12  N2  UNL     1      41.355  25.385  52.044  1.00  0.00    -0.369 N 
HETATM   13  C12 UNL     1      42.434  24.632  52.643  1.00  0.00     0.149 C 
BRANCH  12  14
HETATM   14  C2  UNL     1      40.299  25.990  52.773  1.00  0.00     0.070 C 
HETATM   15  N1  UNL     1      40.077  25.708  53.999  1.00  0.00    -0.385 N 
HETATM   16  C1  UNL     1      39.010  26.315  54.741  1.00  0.00     0.147 C 
ATOM     17  H1  UNL     1      40.678  25.029  54.466  1.00  0.00     0.160 HD
HETATM   18  C3  UNL     1      39.425  26.984  52.076  1.00  0.00     0.088 C 
ENDBRANCH  12  14
ENDBRANCH   1   9
BRANCH   7  19
HETATM   19  C8  UNL     1      44.986  19.667  51.719  1.00  0.00     0.126 C 
HETATM   20  C9  UNL     1      45.446  20.144  53.105  1.00  0.00     0.055 C 
HETATM   21  C10 UNL     1      46.047  18.834  53.633  1.00  0.00     0.234 C 
HETATM   22  N6  UNL     1      44.980  17.906  53.322  1.00  0.00    -0.073 N 
HETATM   23  C11 UNL     1      44.527  18.269  52.011  1.00  0.00     0.257 C 
ATOM     24  H62 UNL     1      45.251  16.926  53.406  1.00  0.00     0.277 HD
ATOM     25  H61 UNL     1      44.237  17.886  54.021  1.00  0.00     0.277 HD
ENDBRANCH   7  19
TORSDOF 3
ENDMDL
MODEL 5
REMARK VINA RESULT: -6.119646011      1.398      2.177
REMARK  3 active torsions:
REMARK  status: ('A' for Active; 'I' for Inactive)
REMARK    1  A    between atoms: C2_4  and  N2_6 
REMARK    2  A    between atoms: C6_9  and  N3_10 
REMARK       I    between atoms: N3_10  and  C7_12 
REMARK       I    between atoms: C7_12  and  N5_16 
REMARK    3  A    between atoms: N5_16  and  C8_18 
ROOT
HETATM    1  N3  UNL     1      44.944  22.107  50.831  1.00  0.00    -0.221 N 
ATOM      2  H3  UNL     1      45.784  22.482  51.271  1.00  0.00     0.178 HD
HETATM    3  C7  UNL     1      44.831  20.732  50.557  1.00  0.00     0.668 C 
HETATM    4  N4  UNL     1      45.149  20.282  49.411  1.00  0.00    -0.235 N 
ATOM      5  H41 UNL     1      45.066  19.284  49.212  1.00  0.00     0.174 HD
ATOM      6  H42 UNL     1      45.486  20.921  48.691  1.00  0.00     0.174 HD
HETATM    7  N5  UNL     1      44.365  19.849  51.550  1.00  0.00    -0.221 N 
ATOM      8  H5  UNL     1      43.366  19.761  51.738  1.00  0.00     0.178 HD
ENDROOT
BRANCH   1   9
HETATM    9  C6  UNL     1      43.853  22.974  50.478  1.00  0.00     0.118 C 
HETATM   10  C5  UNL     1      44.187  23.978  49.422  1.00  0.00     0.047 C 
HETATM   11  C4  UNL     1      43.124  25.044  49.615  1.00  0.00     0.126 C 
HETATM   12  N2  UNL     1      42.584  24.825  50.943  1.00  0.00    -0.369 N 
HETATM   13  C12 UNL     1      43.422  23.865  51.625  1.00  0.00     0.149 C 
BRANCH  12  14
HETATM   14  C2  UNL     1      41.432  25.428  51.509  1.00  0.00     0.070 C 
HETATM   15  N1  UNL     1      41.281  25.540  52.773  1.00  0.00    -0.385 N 
HETATM   16  C1  UNL     1      40.119  26.148  53.352  1.00  0.00     0.147 C 
ATOM     17  H1  UNL     1      42.011  25.185  53.390  1.00  0.00     0.160 HD
HETATM   18  C3  UNL     1      40.369  25.945  50.592  1.00  0.00     0.088 C 
ENDBRANCH  12  14
ENDBRANCH   1   9
BRANCH   7  19
HETATM   19  C8  UNL     1      45.313  19.077  52.293  1.00  0.00     0.126 C 
HETATM   20  C9  UNL     1      45.714  19.782  53.598  1.00  0.00     0.055 C 
HETATM   21  C10 UNL     1      46.232  18.571  54.387  1.00  0.00     0.234 C 
HETATM   22  N6  UNL     1      45.147  17.634  54.180  1.00  0.00    -0.073 N 
HETATM   23  C11 UNL     1      44.783  17.768  52.800  1.00  0.00     0.257 C 
ATOM     24  H62 UNL     1      45.374  16.678  54.453  1.00  0.00     0.277 HD
ATOM     25  H61 UNL     1      44.366  17.762  54.824  1.00  0.00     0.277 HD
ENDBRANCH   7  19
TORSDOF 3
ENDMDL
