MODEL 1
REMARK VINA RESULT: -6.200552980      0.000      0.000
REMARK  7 active torsions:
REMARK  status: ('A' for Active; 'I' for Inactive)
REMARK    1  A    between atoms: C2_2  and  N1_3 
REMARK    2  A    between atoms: C2_2  and  C3_7 
REMARK    3  A    between atoms: C3_7  and  N3_11 
REMARK    4  A    between atoms: N3_11  and  N4_13 
REMARK    5  A    between atoms: N4_13  and  C4_15 
REMARK    6  A    between atoms: C4_15  and  N5_17 
REMARK    7  A    between atoms: N5_17  and  C5_19 
ROOT
HETATM    1  N3  UNL     1      30.378  13.526  16.738  1.00  0.00    -0.285 N 
ATOM      2  H3  UNL     1      31.022  13.503  17.528  1.00  0.00     0.188 HD
ENDROOT
BRANCH   1   3
HETATM    3  C3  UNL     1      30.043  14.779  16.190  1.00  0.00     0.120 C 
HETATM    4  N2  UNL     1      30.438  15.048  14.993  1.00  0.00    -0.386 N 
ATOM      5  H22 UNL     1      30.195  15.956  14.596  1.00  0.00     0.157 HD
ATOM      6  H21 UNL     1      30.978  14.357  14.472  1.00  0.00     0.157 HD
BRANCH   3   7
HETATM    7  C2  UNL     1      29.261  15.780  16.944  1.00  0.00     0.247 C 
HETATM    8  C1  UNL     1      28.444  15.087  18.010  1.00  0.00     0.048 C 
BRANCH   7   9
HETATM    9  N1  UNL     1      28.430  16.534  16.028  1.00  0.00    -0.069 N 
ATOM     10  H13 UNL     1      27.614  16.922  16.502  1.00  0.00     0.275 HD
ATOM     11  H12 UNL     1      28.883  17.405  15.748  1.00  0.00     0.275 HD
ATOM     12  H11 UNL     1      28.157  15.981  15.216  1.00  0.00     0.275 HD
ENDBRANCH   7   9
ENDBRANCH   3   7
ENDBRANCH   1   3
BRANCH   1  13
HETATM   13  N4  UNL     1      29.878  12.310  16.262  1.00  0.00    -0.275 N 
ATOM     14  H4  UNL     1      29.576  12.257  15.289  1.00  0.00     0.189 HD
BRANCH  13  15
HETATM   15  C4  UNL     1      29.771  11.148  17.067  1.00  0.00     0.186 C 
HETATM   16  S1  UNL     1      31.008  10.839  18.083  1.00  0.00    -0.040 SA
BRANCH  15  17
HETATM   17  N5  UNL     1      28.646  10.301  16.981  1.00  0.00    -0.361 N 
ATOM     18  H5  UNL     1      28.770   9.429  16.467  1.00  0.00     0.162 HD
BRANCH  17  19
HETATM   19  C5  UNL     1      27.357  10.537  17.538  1.00  0.00     0.083 C 
HETATM   20  C6  UNL     1      27.382  11.588  18.587  1.00  0.00     0.025 C 
HETATM   21  C7  UNL     1      26.687  11.306  19.859  1.00  0.00     0.002 C 
HETATM   22  C8  UNL     1      25.526  10.387  19.841  1.00  0.00     0.000 C 
HETATM   23  C9  UNL     1      25.284   9.776  18.489  1.00  0.00     0.002 C 
HETATM   24  C10 UNL     1      26.651   9.273  17.997  1.00  0.00     0.025 C 
ENDBRANCH  17  19
ENDBRANCH  15  17
ENDBRANCH  13  15
ENDBRANCH   1  13
TORSDOF 7
ENDMDL
MODEL 2
REMARK VINA RESULT: -6.166661912      0.346      1.291
REMARK  7 active torsions:
REMARK  status: ('A' for Active; 'I' for Inactive)
REMARK    1  A    between atoms: C2_2  and  N1_3 
REMARK    2  A    between atoms: C2_2  and  C3_7 
REMARK    3  A    between atoms: C3_7  and  N3_11 
REMARK    4  A    between atoms: N3_11  and  N4_13 
REMARK    5  A    between atoms: N4_13  and  C4_15 
REMARK    6  A    between atoms: C4_15  and  N5_17 
REMARK    7  A    between atoms: N5_17  and  C5_19 
ROOT
HETATM    1  N3  UNL     1      30.318  13.507  16.799  1.00  0.00    -0.285 N 
ATOM      2  H3  UNL     1      30.793  13.468  17.701  1.00  0.00     0.188 HD
ENDROOT
BRANCH   1   3
HETATM    3  C3  UNL     1      30.020  14.774  16.261  1.00  0.00     0.120 C 
HETATM    4  N2  UNL     1      30.450  15.053  15.078  1.00  0.00    -0.386 N 
ATOM      5  H22 UNL     1      30.234  15.971  14.688  1.00  0.00     0.157 HD
ATOM      6  H21 UNL     1      30.992  14.360  14.561  1.00  0.00     0.157 HD
BRANCH   3   7
HETATM    7  C2  UNL     1      29.236  15.778  17.009  1.00  0.00     0.247 C 
HETATM    8  C1  UNL     1      28.387  15.086  18.049  1.00  0.00     0.048 C 
BRANCH   7   9
HETATM    9  N1  UNL     1      28.436  16.554  16.083  1.00  0.00    -0.069 N 
ATOM     10  H13 UNL     1      27.985  15.955  15.392  1.00  0.00     0.275 HD
ATOM     11  H12 UNL     1      27.603  16.930  16.539  1.00  0.00     0.275 HD
ATOM     12  H11 UNL     1      28.978  17.293  15.636  1.00  0.00     0.275 HD
ENDBRANCH   7   9
ENDBRANCH   3   7
ENDBRANCH   1   3
BRANCH   1  13
HETATM   13  N4  UNL     1      30.002  12.300  16.169  1.00  0.00    -0.275 N 
ATOM     14  H4  UNL     1      29.799  12.313  15.169  1.00  0.00     0.189 HD
BRANCH  13  15
HETATM   15  C4  UNL     1      29.950  11.059  16.853  1.00  0.00     0.186 C 
HETATM   16  S1  UNL     1      31.349  10.506  17.481  1.00  0.00    -0.040 SA
BRANCH  15  17
HETATM   17  N5  UNL     1      28.742  10.342  16.973  1.00  0.00    -0.361 N 
ATOM     18  H5  UNL     1      28.425   9.841  16.144  1.00  0.00     0.162 HD
BRANCH  17  19
HETATM   19  C5  UNL     1      27.921  10.243  18.133  1.00  0.00     0.083 C 
HETATM   20  C6  UNL     1      26.840   9.236  17.972  1.00  0.00     0.025 C 
HETATM   21  C7  UNL     1      25.471   9.629  18.361  1.00  0.00     0.002 C 
HETATM   22  C8  UNL     1      25.304  10.645  19.425  1.00  0.00     0.000 C 
HETATM   23  C9  UNL     1      26.611  11.222  19.895  1.00  0.00     0.002 C 
HETATM   24  C10 UNL     1      27.400  11.582  18.626  1.00  0.00     0.025 C 
ENDBRANCH  17  19
ENDBRANCH  15  17
ENDBRANCH  13  15
ENDBRANCH   1  13
TORSDOF 7
ENDMDL
MODEL 3
REMARK VINA RESULT: -5.922728763      1.265      1.547
REMARK  7 active torsions:
REMARK  status: ('A' for Active; 'I' for Inactive)
REMARK    1  A    between atoms: C2_2  and  N1_3 
REMARK    2  A    between atoms: C2_2  and  C3_7 
REMARK    3  A    between atoms: C3_7  and  N3_11 
REMARK    4  A    between atoms: N3_11  and  N4_13 
REMARK    5  A    between atoms: N4_13  and  C4_15 
REMARK    6  A    between atoms: C4_15  and  N5_17 
REMARK    7  A    between atoms: N5_17  and  C5_19 
ROOT
HETATM    1  N3  UNL     1      30.408  13.466  16.765  1.00  0.00    -0.285 N 
ATOM      2  H3  UNL     1      31.007  13.417  17.589  1.00  0.00     0.188 HD
ENDROOT
BRANCH   1   3
HETATM    3  C3  UNL     1      30.035  14.738  16.290  1.00  0.00     0.120 C 
HETATM    4  N2  UNL     1      30.422  15.089  15.111  1.00  0.00    -0.386 N 
ATOM      5  H22 UNL     1      30.152  16.010  14.767  1.00  0.00     0.157 HD
ATOM      6  H21 UNL     1      30.985  14.447  14.553  1.00  0.00     0.157 HD
BRANCH   3   7
HETATM    7  C2  UNL     1      29.221  15.668  17.098  1.00  0.00     0.247 C 
HETATM    8  C1  UNL     1      28.410  14.887  18.106  1.00  0.00     0.048 C 
BRANCH   7   9
HETATM    9  N1  UNL     1      28.381  16.461  16.224  1.00  0.00    -0.069 N 
ATOM     10  H13 UNL     1      28.060  15.916  15.424  1.00  0.00     0.275 HD
ATOM     11  H12 UNL     1      27.478  16.659  16.657  1.00  0.00     0.275 HD
ATOM     12  H11 UNL     1      28.844  17.319  15.925  1.00  0.00     0.275 HD
ENDBRANCH   7   9
ENDBRANCH   3   7
ENDBRANCH   1   3
BRANCH   1  13
HETATM   13  N4  UNL     1      30.007  12.265  16.172  1.00  0.00    -0.275 N 
ATOM     14  H4  UNL     1      29.623  12.295  15.227  1.00  0.00     0.189 HD
BRANCH  13  15
HETATM   15  C4  UNL     1      30.107  11.009  16.822  1.00  0.00     0.186 C 
HETATM   16  S1  UNL     1      31.541  10.240  16.718  1.00  0.00    -0.040 SA
BRANCH  15  17
HETATM   17  N5  UNL     1      29.011  10.455  17.515  1.00  0.00    -0.361 N 
ATOM     18  H5  UNL     1      28.625   9.589  17.141  1.00  0.00     0.162 HD
BRANCH  17  19
HETATM   19  C5  UNL     1      28.389  10.980  18.683  1.00  0.00     0.083 C 
HETATM   20  C6  UNL     1      29.378  11.519  19.653  1.00  0.00     0.025 C 
HETATM   21  C7  UNL     1      29.236  11.126  21.069  1.00  0.00     0.002 C 
HETATM   22  C8  UNL     1      27.884  10.805  21.581  1.00  0.00     0.000 C 
HETATM   23  C9  UNL     1      26.830  10.829  20.508  1.00  0.00     0.002 C 
HETATM   24  C10 UNL     1      27.402  10.023  19.330  1.00  0.00     0.025 C 
ENDBRANCH  17  19
ENDBRANCH  15  17
ENDBRANCH  13  15
ENDBRANCH   1  13
TORSDOF 7
ENDMDL
MODEL 4
REMARK VINA RESULT: -5.840744071      1.514      2.161
REMARK  7 active torsions:
REMARK  status: ('A' for Active; 'I' for Inactive)
REMARK    1  A    between atoms: C2_2  and  N1_3 
REMARK    2  A    between atoms: C2_2  and  C3_7 
REMARK    3  A    between atoms: C3_7  and  N3_11 
REMARK    4  A    between atoms: N3_11  and  N4_13 
REMARK    5  A    between atoms: N4_13  and  C4_15 
REMARK    6  A    between atoms: C4_15  and  N5_17 
REMARK    7  A    between atoms: N5_17  and  C5_19 
ROOT
HETATM    1  N3  UNL     1      30.351  13.509  16.803  1.00  0.00    -0.285 N 
ATOM      2  H3  UNL     1      30.848  13.483  17.693  1.00  0.00     0.188 HD
ENDROOT
BRANCH   1   3
HETATM    3  C3  UNL     1      30.026  14.767  16.260  1.00  0.00     0.120 C 
HETATM    4  N2  UNL     1      30.443  15.047  15.073  1.00  0.00    -0.386 N 
ATOM      5  H22 UNL     1      30.208  15.959  14.680  1.00  0.00     0.157 HD
ATOM      6  H21 UNL     1      30.994  14.362  14.557  1.00  0.00     0.157 HD
BRANCH   3   7
HETATM    7  C2  UNL     1      29.228  15.760  17.008  1.00  0.00     0.247 C 
HETATM    8  C1  UNL     1      28.389  15.057  18.049  1.00  0.00     0.048 C 
BRANCH   7   9
HETATM    9  N1  UNL     1      28.417  16.525  16.083  1.00  0.00    -0.069 N 
ATOM     10  H13 UNL     1      27.463  16.630  16.428  1.00  0.00     0.275 HD
ATOM     11  H12 UNL     1      28.694  17.507  16.072  1.00  0.00     0.275 HD
ATOM     12  H11 UNL     1      28.429  16.126  15.144  1.00  0.00     0.275 HD
ENDBRANCH   7   9
ENDBRANCH   3   7
ENDBRANCH   1   3
BRANCH   1  13
HETATM   13  N4  UNL     1      30.031  12.292  16.193  1.00  0.00    -0.275 N 
ATOM     14  H4  UNL     1      30.004  12.252  15.174  1.00  0.00     0.189 HD
BRANCH  13  15
HETATM   15  C4  UNL     1      29.741  11.112  16.923  1.00  0.00     0.186 C 
HETATM   16  S1  UNL     1      30.622   9.788  16.562  1.00  0.00    -0.040 SA
BRANCH  15  17
HETATM   17  N5  UNL     1      28.732  11.091  17.908  1.00  0.00    -0.361 N 
ATOM     18  H5  UNL     1      27.792  11.343  17.604  1.00  0.00     0.162 HD
BRANCH  17  19
HETATM   19  C5  UNL     1      28.890  10.755  19.283  1.00  0.00     0.083 C 
HETATM   20  C6  UNL     1      27.838   9.819  19.757  1.00  0.00     0.025 C 
HETATM   21  C7  UNL     1      27.160  10.135  21.030  1.00  0.00     0.002 C 
HETATM   22  C8  UNL     1      27.904  10.900  22.056  1.00  0.00     0.000 C 
HETATM   23  C9  UNL     1      29.260  11.347  21.584  1.00  0.00     0.002 C 
HETATM   24  C10 UNL     1      29.046  11.963  20.192  1.00  0.00     0.025 C 
ENDBRANCH  17  19
ENDBRANCH  15  17
ENDBRANCH  13  15
ENDBRANCH   1  13
TORSDOF 7
ENDMDL
MODEL 5
REMARK VINA RESULT: -5.839597105      1.008      1.852
REMARK  7 active torsions:
REMARK  status: ('A' for Active; 'I' for Inactive)
REMARK    1  A    between atoms: C2_2  and  N1_3 
REMARK    2  A    between atoms: C2_2  and  C3_7 
REMARK    3  A    between atoms: C3_7  and  N3_11 
REMARK    4  A    between atoms: N3_11  and  N4_13 
REMARK    5  A    between atoms: N4_13  and  C4_15 
REMARK    6  A    between atoms: C4_15  and  N5_17 
REMARK    7  A    between atoms: N5_17  and  C5_19 
ROOT
HETATM    1  N3  UNL     1      30.374  13.481  16.757  1.00  0.00    -0.285 N 
ATOM      2  H3  UNL     1      31.116  13.433  17.454  1.00  0.00     0.188 HD
ENDROOT
BRANCH   1   3
HETATM    3  C3  UNL     1      30.026  14.746  16.244  1.00  0.00     0.120 C 
HETATM    4  N2  UNL     1      30.416  15.051  15.054  1.00  0.00    -0.386 N 
ATOM      5  H22 UNL     1      30.165  15.967  14.682  1.00  0.00     0.157 HD
ATOM      6  H21 UNL     1      30.962  14.380  14.514  1.00  0.00     0.157 HD
BRANCH   3   7
HETATM    7  C2  UNL     1      29.237  15.718  17.026  1.00  0.00     0.247 C 
HETATM    8  C1  UNL     1      28.418  14.988  18.065  1.00  0.00     0.048 C 
BRANCH   7   9
HETATM    9  N1  UNL     1      28.407  16.499  16.131  1.00  0.00    -0.069 N 
ATOM     10  H13 UNL     1      27.438  16.180  16.153  1.00  0.00     0.275 HD
ATOM     11  H12 UNL     1      28.272  17.447  16.484  1.00  0.00     0.275 HD
ATOM     12  H11 UNL     1      28.773  16.506  15.180  1.00  0.00     0.275 HD
ENDBRANCH   7   9
ENDBRANCH   3   7
ENDBRANCH   1   3
BRANCH   1  13
HETATM   13  N4  UNL     1      29.760  12.288  16.366  1.00  0.00    -0.275 N 
ATOM     14  H4  UNL     1      29.429  12.204  15.405  1.00  0.00     0.189 HD
BRANCH  13  15
HETATM   15  C4  UNL     1      29.575  11.189  17.243  1.00  0.00     0.186 C 
HETATM   16  S1  UNL     1      30.104  11.371  18.774  1.00  0.00    -0.040 SA
BRANCH  15  17
HETATM   17  N5  UNL     1      28.969   9.995  16.800  1.00  0.00    -0.361 N 
ATOM     18  H5  UNL     1      29.450   9.487  16.058  1.00  0.00     0.162 HD
BRANCH  17  19
HETATM   19  C5  UNL     1      27.755   9.425  17.281  1.00  0.00     0.083 C 
HETATM   20  C6  UNL     1      27.237   8.363  16.380  1.00  0.00     0.025 C 
HETATM   21  C7  UNL     1      25.806   8.407  16.018  1.00  0.00     0.002 C 
HETATM   22  C8  UNL     1      24.854   9.014  16.976  1.00  0.00     0.000 C 
HETATM   23  C9  UNL     1      25.532   9.612  18.178  1.00  0.00     0.002 C 
HETATM   24  C10 UNL     1      26.697  10.456  17.634  1.00  0.00     0.025 C 
ENDBRANCH  17  19
ENDBRANCH  15  17
ENDBRANCH  13  15
ENDBRANCH   1  13
TORSDOF 7
ENDMDL
