MODEL 1
REMARK VINA RESULT: -5.817503792      0.000      0.000
REMARK  1 active torsions:
REMARK  status: ('A' for Active; 'I' for Inactive)
REMARK    1  A    between atoms: C2_2  and  C4_4 
ROOT
HETATM    1  C4  UNL     1      38.845  -2.908  29.942  1.00  0.00     0.035 C 
HETATM    2  C5  UNL     1      38.788  -3.362  31.343  1.00  0.00     0.061 C 
HETATM    3  N1  UNL     1      40.040  -3.756  31.825  1.00  0.00    -0.396 N 
ATOM      4  H1  UNL     1      40.405  -4.675  31.570  1.00  0.00     0.159 HD
HETATM    5  C6  UNL     1      40.804  -2.923  32.647  1.00  0.00     0.098 C 
HETATM    6  C7  UNL     1      42.272  -2.801  32.209  1.00  0.00     0.027 C 
HETATM    7  C8  UNL     1      42.574  -3.541  30.973  1.00  0.00     0.016 C 
HETATM    8  C9  UNL     1      42.462  -2.847  29.674  1.00  0.00     0.078 C 
HETATM    9  C10 UNL     1      41.115  -3.093  29.081  1.00  0.00     0.023 C 
HETATM   10  C11 UNL     1      40.037  -2.124  29.520  1.00  0.00     0.038 C 
HETATM   11  C12 UNL     1      40.455  -0.953  30.269  1.00  0.00     0.184 C 
HETATM   12  N2  UNL     1      40.762  -0.858  31.572  1.00  0.00    -0.399 N 
ATOM     13  H2  UNL     1      41.496  -0.174  31.758  1.00  0.00     0.155 HD
HETATM   14  C13 UNL     1      40.314  -1.467  32.690  1.00  0.00     0.141 C 
HETATM   15  N3  UNL     1      41.660  -0.523  29.547  1.00  0.00    -0.340 N 
ATOM     16  H3  UNL     1      41.710   0.368  29.054  1.00  0.00     0.164 HD
HETATM   17  C14 UNL     1      42.748  -1.428  29.582  1.00  0.00     0.223 C 
HETATM   18  O1  UNL     1      43.928  -0.987  29.532  1.00  0.00    -0.273 OA
ENDROOT
BRANCH   1  19
HETATM   19  C2  UNL     1      37.532  -2.281  29.482  1.00  0.00    -0.013 C 
HETATM   20  C1  UNL     1      36.848  -3.168  28.457  1.00  0.00     0.010 C 
HETATM   21  C3  UNL     1      36.601  -1.929  30.580  1.00  0.00     0.010 C 
ENDBRANCH   1  19
TORSDOF 1
ENDMDL
MODEL 2
REMARK VINA RESULT: -5.729588927      2.199      4.117
REMARK  1 active torsions:
REMARK  status: ('A' for Active; 'I' for Inactive)
REMARK    1  A    between atoms: C2_2  and  C4_4 
ROOT
HETATM    1  C4  UNL     1      43.055  -2.694  28.695  1.00  0.00     0.035 C 
HETATM    2  C5  UNL     1      42.630  -4.090  28.904  1.00  0.00     0.061 C 
HETATM    3  N1  UNL     1      42.302  -4.350  30.238  1.00  0.00    -0.396 N 
ATOM      4  H1  UNL     1      43.050  -4.504  30.914  1.00  0.00     0.159 HD
HETATM    5  C6  UNL     1      40.973  -4.405  30.668  1.00  0.00     0.098 C 
HETATM    6  C7  UNL     1      40.702  -3.592  31.944  1.00  0.00     0.027 C 
HETATM    7  C8  UNL     1      41.885  -2.866  32.433  1.00  0.00     0.016 C 
HETATM    8  C9  UNL     1      42.116  -1.479  31.981  1.00  0.00     0.078 C 
HETATM    9  C10 UNL     1      43.028  -1.473  30.802  1.00  0.00     0.023 C 
HETATM   10  C11 UNL     1      42.342  -1.635  29.461  1.00  0.00     0.038 C 
HETATM   11  C12 UNL     1      40.893  -1.552  29.437  1.00  0.00     0.184 C 
HETATM   12  N2  UNL     1      39.996  -2.495  29.762  1.00  0.00    -0.399 N 
ATOM     13  H2  UNL     1      39.150  -2.110  30.183  1.00  0.00     0.155 HD
HETATM   14  C13 UNL     1      39.964  -3.840  29.655  1.00  0.00     0.141 C 
HETATM   15  N3  UNL     1      40.621  -0.422  30.335  1.00  0.00    -0.340 N 
ATOM     16  H3  UNL     1      40.197   0.445  30.005  1.00  0.00     0.164 HD
HETATM   17  C14 UNL     1      40.988  -0.615  31.688  1.00  0.00     0.223 C 
HETATM   18  O1  UNL     1      40.335  -0.038  32.599  1.00  0.00    -0.273 OA
ENDROOT
BRANCH   1  19
HETATM   19  C2  UNL     1      43.208  -2.351  27.216  1.00  0.00    -0.013 C 
HETATM   20  C1  UNL     1      43.881  -1.000  27.049  1.00  0.00     0.010 C 
HETATM   21  C3  UNL     1      43.899  -3.387  26.412  1.00  0.00     0.010 C 
ENDBRANCH   1  19
TORSDOF 1
ENDMDL
MODEL 3
REMARK VINA RESULT: -5.677349486      2.383      4.387
REMARK  1 active torsions:
REMARK  status: ('A' for Active; 'I' for Inactive)
REMARK    1  A    between atoms: C2_2  and  C4_4 
ROOT
HETATM    1  C4  UNL     1      43.160  -2.515  28.554  1.00  0.00     0.035 C 
HETATM    2  C5  UNL     1      43.501  -3.899  28.931  1.00  0.00     0.061 C 
HETATM    3  N1  UNL     1      43.250  -4.159  30.282  1.00  0.00    -0.396 N 
ATOM      4  H1  UNL     1      43.914  -3.831  30.984  1.00  0.00     0.159 HD
HETATM    5  C6  UNL     1      42.110  -4.855  30.694  1.00  0.00     0.098 C 
HETATM    6  C7  UNL     1      41.358  -4.180  31.852  1.00  0.00     0.027 C 
HETATM    7  C8  UNL     1      41.955  -2.899  32.264  1.00  0.00     0.016 C 
HETATM    8  C9  UNL     1      41.472  -1.649  31.645  1.00  0.00     0.078 C 
HETATM    9  C10 UNL     1      42.342  -1.285  30.489  1.00  0.00     0.023 C 
HETATM   10  C11 UNL     1      41.946  -1.913  29.169  1.00  0.00     0.038 C 
HETATM   11  C12 UNL     1      40.669  -2.601  29.112  1.00  0.00     0.184 C 
HETATM   12  N2  UNL     1      40.363  -3.836  29.539  1.00  0.00    -0.399 N 
ATOM     13  H2  UNL     1      39.410  -3.908  29.894  1.00  0.00     0.155 HD
HETATM   14  C13 UNL     1      41.038  -5.003  29.602  1.00  0.00     0.141 C 
HETATM   15  N3  UNL     1      39.783  -1.695  29.855  1.00  0.00    -0.340 N 
ATOM     16  H3  UNL     1      39.000  -1.215  29.411  1.00  0.00     0.164 HD
HETATM   17  C14 UNL     1      40.088  -1.533  31.227  1.00  0.00     0.223 C 
HETATM   18  O1  UNL     1      39.161  -1.295  32.047  1.00  0.00    -0.273 OA
ENDROOT
BRANCH   1  19
HETATM   19  C2  UNL     1      43.232  -2.292  27.046  1.00  0.00    -0.013 C 
HETATM   20  C1  UNL     1      43.884  -0.957  26.736  1.00  0.00     0.010 C 
HETATM   21  C3  UNL     1      43.887  -3.387  26.292  1.00  0.00     0.010 C 
ENDBRANCH   1  19
TORSDOF 1
ENDMDL
MODEL 4
REMARK VINA RESULT: -5.442474060      6.475      8.497
REMARK  1 active torsions:
REMARK  status: ('A' for Active; 'I' for Inactive)
REMARK    1  A    between atoms: C2_2  and  C4_4 
ROOT
HETATM    1  C4  UNL     1      42.940   3.125  37.280  1.00  0.00     0.035 C 
HETATM    2  C5  UNL     1      42.141   1.998  37.796  1.00  0.00     0.061 C 
HETATM    3  N1  UNL     1      41.904   1.025  36.821  1.00  0.00    -0.396 N 
ATOM      4  H1  UNL     1      41.178   1.187  36.123  1.00  0.00     0.159 HD
HETATM    5  C6  UNL     1      42.639  -0.163  36.778  1.00  0.00     0.098 C 
HETATM    6  C7  UNL     1      43.169  -0.512  35.379  1.00  0.00     0.027 C 
HETATM    7  C8  UNL     1      42.849   0.506  34.365  1.00  0.00     0.016 C 
HETATM    8  C9  UNL     1      43.813   1.595  34.110  1.00  0.00     0.078 C 
HETATM    9  C10 UNL     1      43.454   2.792  34.924  1.00  0.00     0.023 C 
HETATM   10  C11 UNL     1      44.035   2.811  36.322  1.00  0.00     0.038 C 
HETATM   11  C12 UNL     1      45.036   1.810  36.645  1.00  0.00     0.184 C 
HETATM   12  N2  UNL     1      44.855   0.522  36.975  1.00  0.00    -0.399 N 
ATOM     13  H2  UNL     1      45.605  -0.083  36.639  1.00  0.00     0.155 HD
HETATM   14  C13 UNL     1      43.902  -0.149  37.654  1.00  0.00     0.141 C 
HETATM   15  N3  UNL     1      45.875   1.795  35.439  1.00  0.00    -0.340 N 
ATOM     16  H3  UNL     1      46.853   2.083  35.453  1.00  0.00     0.164 HD
HETATM   17  C14 UNL     1      45.235   1.354  34.256  1.00  0.00     0.223 C 
HETATM   18  O1  UNL     1      45.908   0.768  33.366  1.00  0.00    -0.273 OA
ENDROOT
BRANCH   1  19
HETATM   19  C2  UNL     1      43.379   4.079  38.388  1.00  0.00    -0.013 C 
HETATM   20  C1  UNL     1      43.470   5.500  37.862  1.00  0.00     0.010 C 
HETATM   21  C3  UNL     1      42.548   4.023  39.614  1.00  0.00     0.010 C 
ENDBRANCH   1  19
TORSDOF 1
ENDMDL
MODEL 5
REMARK VINA RESULT: -5.424185811      1.167      1.492
REMARK  1 active torsions:
REMARK  status: ('A' for Active; 'I' for Inactive)
REMARK    1  A    between atoms: C2_2  and  C4_4 
ROOT
HETATM    1  C4  UNL     1      39.039  -3.192  30.427  1.00  0.00     0.035 C 
HETATM    2  C5  UNL     1      38.545  -2.489  31.626  1.00  0.00     0.061 C 
HETATM    3  N1  UNL     1      39.583  -2.098  32.476  1.00  0.00    -0.396 N 
ATOM      4  H1  UNL     1      40.010  -2.791  33.091  1.00  0.00     0.159 HD
HETATM    5  C6  UNL     1      40.050  -0.780  32.506  1.00  0.00     0.098 C 
HETATM    6  C7  UNL     1      41.580  -0.665  32.440  1.00  0.00     0.027 C 
HETATM    7  C8  UNL     1      42.256  -1.965  32.302  1.00  0.00     0.016 C 
HETATM    8  C9  UNL     1      42.557  -2.479  30.950  1.00  0.00     0.078 C 
HETATM    9  C10 UNL     1      41.465  -3.388  30.498  1.00  0.00     0.023 C 
HETATM   10  C11 UNL     1      40.303  -2.701  29.812  1.00  0.00     0.038 C 
HETATM   11  C12 UNL     1      40.463  -1.299  29.469  1.00  0.00     0.184 C 
HETATM   12  N2  UNL     1      40.345  -0.224  30.263  1.00  0.00    -0.399 N 
ATOM     13  H2  UNL     1      40.982   0.530  30.008  1.00  0.00     0.155 HD
HETATM   14  C13 UNL     1      39.569   0.079  31.325  1.00  0.00     0.141 C 
HETATM   15  N3  UNL     1      41.833  -1.252  28.942  1.00  0.00    -0.340 N 
ATOM     16  H3  UNL     1      42.034  -1.018  27.971  1.00  0.00     0.164 HD
HETATM   17  C14 UNL     1      42.855  -1.555  29.873  1.00  0.00     0.223 C 
HETATM   18  O1  UNL     1      43.991  -1.021  29.747  1.00  0.00    -0.273 OA
ENDROOT
BRANCH   1  19
HETATM   19  C2  UNL     1      37.936  -3.430  29.400  1.00  0.00    -0.013 C 
HETATM   20  C1  UNL     1      37.353  -4.823  29.558  1.00  0.00     0.010 C 
HETATM   21  C3  UNL     1      36.864  -2.407  29.398  1.00  0.00     0.010 C 
ENDBRANCH   1  19
TORSDOF 1
ENDMDL
