MODEL 1
REMARK VINA RESULT: -5.067072587      0.000      0.000
REMARK  5 active torsions:
REMARK  status: ('A' for Active; 'I' for Inactive)
REMARK    1  A    between atoms: C2_2  and  N1_5 
REMARK    2  A    between atoms: N1_5  and  S1_7 
REMARK    3  A    between atoms: S1_7  and  N2_9 
REMARK    4  A    between atoms: S1_7  and  N5_16 
REMARK       I    between atoms: N2_9  and  C5_11 
REMARK    5  A    between atoms: N5_16  and  C6_18 
ROOT
HETATM    1  S1  UNL     1      41.906  -2.263  29.378  1.00  0.00     0.198 S 
HETATM    2  O1  UNL     1      41.046  -3.135  28.531  1.00  0.00    -0.206 OA
ENDROOT
BRANCH   1   3
HETATM    3  N1  UNL     1      42.092  -2.995  30.752  1.00  0.00    -0.311 N 
ATOM      4  H1  UNL     1      42.329  -2.431  31.568  1.00  0.00     0.173 HD
BRANCH   3   5
HETATM    5  C2  UNL     1      41.949  -4.393  30.926  1.00  0.00     0.029 C 
HETATM    6  C1  UNL     1      42.754  -5.181  29.917  1.00  0.00     0.038 C 
HETATM    7  C3  UNL     1      40.502  -4.844  30.942  1.00  0.00     0.038 C 
HETATM    8  C4  UNL     1      42.512  -4.734  32.303  1.00  0.00     0.038 C 
ENDBRANCH   3   5
ENDBRANCH   1   3
BRANCH   1   9
HETATM    9  N2  UNL     1      43.460  -2.123  28.636  1.00  0.00    -0.259 N 
HETATM   10  C5  UNL     1      43.838  -1.002  27.853  1.00  0.00     0.195 C 
HETATM   11  N3  UNL     1      44.010  -1.166  26.595  1.00  0.00    -0.373 N 
HETATM   12  N4  UNL     1      44.039   0.302  28.386  1.00  0.00    -0.063 NA
ATOM     13  H32 UNL     1      43.865  -2.101  26.214  1.00  0.00     0.158 HD
ATOM     14  H31 UNL     1      44.282  -0.360  26.032  1.00  0.00     0.158 HD
ATOM     15  H2  UNL     1      44.133  -2.878  28.766  1.00  0.00     0.181 HD
ENDBRANCH   1   9
BRANCH   1  16
HETATM   16  N5  UNL     1      41.167  -0.778  29.680  1.00  0.00    -0.311 N 
ATOM     17  H5  UNL     1      41.524   0.088  29.275  1.00  0.00     0.173 HD
BRANCH  16  18
HETATM   18  C6  UNL     1      40.027  -0.787  30.520  1.00  0.00     0.029 C 
HETATM   19  C7  UNL     1      39.386   0.606  30.407  1.00  0.00     0.038 C 
HETATM   20  C8  UNL     1      40.275  -1.042  31.960  1.00  0.00     0.038 C 
HETATM   21  C9  UNL     1      38.953  -1.751  29.996  1.00  0.00     0.038 C 
ENDBRANCH  16  18
ENDBRANCH   1  16
TORSDOF 5
ENDMDL
MODEL 2
REMARK VINA RESULT: -4.926020044      1.508      4.003
REMARK  5 active torsions:
REMARK  status: ('A' for Active; 'I' for Inactive)
REMARK    1  A    between atoms: C2_2  and  N1_5 
REMARK    2  A    between atoms: N1_5  and  S1_7 
REMARK    3  A    between atoms: S1_7  and  N2_9 
REMARK    4  A    between atoms: S1_7  and  N5_16 
REMARK       I    between atoms: N2_9  and  C5_11 
REMARK    5  A    between atoms: N5_16  and  C6_18 
ROOT
HETATM    1  S1  UNL     1      41.796  -1.441  30.531  1.00  0.00     0.198 S 
HETATM    2  O1  UNL     1      41.879  -0.338  31.527  1.00  0.00    -0.206 OA
ENDROOT
BRANCH   1   3
HETATM    3  N1  UNL     1      40.280  -1.814  30.384  1.00  0.00    -0.311 N 
ATOM      4  H1  UNL     1      40.042  -2.661  29.868  1.00  0.00     0.173 HD
BRANCH   3   5
HETATM    5  C2  UNL     1      39.222  -1.044  30.925  1.00  0.00     0.029 C 
HETATM    6  C1  UNL     1      39.282   0.402  30.484  1.00  0.00     0.038 C 
HETATM    7  C3  UNL     1      39.123  -1.150  32.434  1.00  0.00     0.038 C 
HETATM    8  C4  UNL     1      37.920  -1.619  30.375  1.00  0.00     0.038 C 
ENDBRANCH   3   5
ENDBRANCH   1   3
BRANCH   1   9
HETATM    9  N2  UNL     1      42.350  -0.855  29.002  1.00  0.00    -0.259 N 
HETATM   10  C5  UNL     1      43.619  -1.192  28.466  1.00  0.00     0.195 C 
HETATM   11  N3  UNL     1      44.504  -0.272  28.369  1.00  0.00    -0.373 N 
HETATM   12  N4  UNL     1      43.969  -2.499  28.027  1.00  0.00    -0.063 NA
ATOM     13  H32 UNL     1      44.252   0.664  28.684  1.00  0.00     0.158 HD
ATOM     14  H31 UNL     1      45.417  -0.514  27.983  1.00  0.00     0.158 HD
ATOM     15  H2  UNL     1      41.738  -0.242  28.464  1.00  0.00     0.181 HD
ENDBRANCH   1   9
BRANCH   1  16
HETATM   16  N5  UNL     1      42.616  -2.814  31.063  1.00  0.00    -0.311 N 
ATOM     17  H5  UNL     1      43.535  -2.750  31.503  1.00  0.00     0.173 HD
BRANCH  16  18
HETATM   18  C6  UNL     1      41.973  -4.061  30.874  1.00  0.00     0.029 C 
HETATM   19  C7  UNL     1      43.068  -5.137  30.944  1.00  0.00     0.038 C 
HETATM   20  C8  UNL     1      41.259  -4.242  29.585  1.00  0.00     0.038 C 
HETATM   21  C9  UNL     1      41.032  -4.389  32.042  1.00  0.00     0.038 C 
ENDBRANCH  16  18
ENDBRANCH   1  16
TORSDOF 5
ENDMDL
MODEL 3
REMARK VINA RESULT: -4.873024751      1.361      3.855
REMARK  5 active torsions:
REMARK  status: ('A' for Active; 'I' for Inactive)
REMARK    1  A    between atoms: C2_2  and  N1_5 
REMARK    2  A    between atoms: N1_5  and  S1_7 
REMARK    3  A    between atoms: S1_7  and  N2_9 
REMARK    4  A    between atoms: S1_7  and  N5_16 
REMARK       I    between atoms: N2_9  and  C5_11 
REMARK    5  A    between atoms: N5_16  and  C6_18 
ROOT
HETATM    1  S1  UNL     1      42.039  -1.446  29.508  1.00  0.00     0.198 S 
HETATM    2  O1  UNL     1      43.099  -1.341  30.548  1.00  0.00    -0.206 OA
ENDROOT
BRANCH   1   3
HETATM    3  N1  UNL     1      40.926  -0.405  29.878  1.00  0.00    -0.311 N 
ATOM      4  H1  UNL     1      40.891   0.467  29.351  1.00  0.00     0.173 HD
BRANCH   3   5
HETATM    5  C2  UNL     1      39.968  -0.605  30.902  1.00  0.00     0.029 C 
HETATM    6  C1  UNL     1      40.606  -0.722  32.269  1.00  0.00     0.038 C 
HETATM    7  C3  UNL     1      39.045  -1.776  30.629  1.00  0.00     0.038 C 
HETATM    8  C4  UNL     1      39.080   0.635  30.935  1.00  0.00     0.038 C 
ENDBRANCH   3   5
ENDBRANCH   1   3
BRANCH   1   9
HETATM    9  N2  UNL     1      42.707  -0.989  27.982  1.00  0.00    -0.259 N 
HETATM   10  C5  UNL     1      43.526  -1.855  27.212  1.00  0.00     0.195 C 
HETATM   11  N3  UNL     1      44.763  -1.560  27.072  1.00  0.00    -0.373 N 
HETATM   12  N4  UNL     1      43.050  -3.040  26.584  1.00  0.00    -0.063 NA
ATOM     13  H32 UNL     1      45.104  -0.711  27.522  1.00  0.00     0.158 HD
ATOM     14  H31 UNL     1      45.352  -2.183  26.518  1.00  0.00     0.158 HD
ATOM     15  H2  UNL     1      42.505  -0.058  27.619  1.00  0.00     0.181 HD
ENDBRANCH   1   9
BRANCH   1  16
HETATM   16  N5  UNL     1      41.333  -2.977  29.503  1.00  0.00    -0.311 N 
ATOM     17  H5  UNL     1      40.477  -3.167  28.982  1.00  0.00     0.173 HD
BRANCH  16  18
HETATM   18  C6  UNL     1      41.981  -3.986  30.255  1.00  0.00     0.029 C 
HETATM   19  C7  UNL     1      41.271  -5.308  29.922  1.00  0.00     0.038 C 
HETATM   20  C8  UNL     1      41.950  -3.828  31.730  1.00  0.00     0.038 C 
HETATM   21  C9  UNL     1      43.428  -4.193  29.783  1.00  0.00     0.038 C 
ENDBRANCH  16  18
ENDBRANCH   1  16
TORSDOF 5
ENDMDL
MODEL 4
REMARK VINA RESULT: -4.846192784      0.919      1.213
REMARK  5 active torsions:
REMARK  status: ('A' for Active; 'I' for Inactive)
REMARK    1  A    between atoms: C2_2  and  N1_5 
REMARK    2  A    between atoms: N1_5  and  S1_7 
REMARK    3  A    between atoms: S1_7  and  N2_9 
REMARK    4  A    between atoms: S1_7  and  N5_16 
REMARK       I    between atoms: N2_9  and  C5_11 
REMARK    5  A    between atoms: N5_16  and  C6_18 
ROOT
HETATM    1  S1  UNL     1      41.758  -2.139  29.241  1.00  0.00     0.198 S 
HETATM    2  O1  UNL     1      41.787  -3.059  28.071  1.00  0.00    -0.206 OA
ENDROOT
BRANCH   1   3
HETATM    3  N1  UNL     1      42.579  -2.827  30.387  1.00  0.00    -0.311 N 
ATOM      4  H1  UNL     1      43.349  -2.307  30.805  1.00  0.00     0.173 HD
BRANCH   3   5
HETATM    5  C2  UNL     1      42.312  -4.131  30.874  1.00  0.00     0.029 C 
HETATM    6  C1  UNL     1      43.379  -5.123  30.468  1.00  0.00     0.038 C 
HETATM    7  C3  UNL     1      40.931  -4.632  30.503  1.00  0.00     0.038 C 
HETATM    8  C4  UNL     1      42.338  -4.054  32.399  1.00  0.00     0.038 C 
ENDBRANCH   3   5
ENDBRANCH   1   3
BRANCH   1   9
HETATM    9  N2  UNL     1      42.566  -0.672  28.818  1.00  0.00    -0.259 N 
HETATM   10  C5  UNL     1      43.729  -0.643  28.005  1.00  0.00     0.195 C 
HETATM   11  N3  UNL     1      44.839  -0.298  28.540  1.00  0.00    -0.373 N 
HETATM   12  N4  UNL     1      43.734  -0.978  26.622  1.00  0.00    -0.063 NA
ATOM     13  H32 UNL     1      44.834  -0.058  29.531  1.00  0.00     0.158 HD
ATOM     14  H31 UNL     1      45.675  -0.277  27.956  1.00  0.00     0.158 HD
ATOM     15  H2  UNL     1      42.191   0.210  29.166  1.00  0.00     0.181 HD
ENDBRANCH   1   9
BRANCH   1  16
HETATM   16  N5  UNL     1      40.186  -1.906  29.801  1.00  0.00    -0.311 N 
ATOM     17  H5  UNL     1      39.389  -2.368  29.362  1.00  0.00     0.173 HD
BRANCH  16  18
HETATM   18  C6  UNL     1      40.020  -1.039  30.908  1.00  0.00     0.029 C 
HETATM   19  C7  UNL     1      39.426   0.268  30.360  1.00  0.00     0.038 C 
HETATM   20  C8  UNL     1      41.252  -0.684  31.655  1.00  0.00     0.038 C 
HETATM   21  C9  UNL     1      38.956  -1.570  31.880  1.00  0.00     0.038 C 
ENDBRANCH  16  18
ENDBRANCH   1  16
TORSDOF 5
ENDMDL
MODEL 5
REMARK VINA RESULT: -4.829253545      1.045      1.758
REMARK  5 active torsions:
REMARK  status: ('A' for Active; 'I' for Inactive)
REMARK    1  A    between atoms: C2_2  and  N1_5 
REMARK    2  A    between atoms: N1_5  and  S1_7 
REMARK    3  A    between atoms: S1_7  and  N2_9 
REMARK    4  A    between atoms: S1_7  and  N5_16 
REMARK       I    between atoms: N2_9  and  C5_11 
REMARK    5  A    between atoms: N5_16  and  C6_18 
ROOT
HETATM    1  S1  UNL     1      41.638  -1.884  29.861  1.00  0.00     0.198 S 
HETATM    2  O1  UNL     1      40.428  -2.457  29.210  1.00  0.00    -0.206 OA
ENDROOT
BRANCH   1   3
HETATM    3  N1  UNL     1      42.618  -3.076  30.139  1.00  0.00    -0.311 N 
ATOM      4  H1  UNL     1      43.544  -3.044  29.713  1.00  0.00     0.173 HD
BRANCH   3   5
HETATM    5  C2  UNL     1      42.293  -4.193  30.946  1.00  0.00     0.029 C 
HETATM    6  C1  UNL     1      40.972  -4.817  30.556  1.00  0.00     0.038 C 
HETATM    7  C3  UNL     1      42.334  -3.884  32.430  1.00  0.00     0.038 C 
HETATM    8  C4  UNL     1      43.368  -5.250  30.705  1.00  0.00     0.038 C 
ENDBRANCH   3   5
ENDBRANCH   1   3
BRANCH   1   9
HETATM    9  N2  UNL     1      42.411  -0.807  28.753  1.00  0.00    -0.259 N 
HETATM   10  C5  UNL     1      43.693  -1.063  28.202  1.00  0.00     0.195 C 
HETATM   11  N3  UNL     1      44.668  -0.312  28.551  1.00  0.00    -0.373 N 
HETATM   12  N4  UNL     1      43.960  -2.113  27.280  1.00  0.00    -0.063 NA
ATOM     13  H32 UNL     1      44.476   0.440  29.213  1.00  0.00     0.158 HD
ATOM     14  H31 UNL     1      45.590  -0.496  28.155  1.00  0.00     0.158 HD
ATOM     15  H2  UNL     1      41.925   0.048  28.484  1.00  0.00     0.181 HD
ENDBRANCH   1   9
BRANCH   1  16
HETATM   16  N5  UNL     1      41.260  -1.171  31.341  1.00  0.00    -0.311 N 
ATOM     17  H5  UNL     1      41.968  -1.030  32.061  1.00  0.00     0.173 HD
BRANCH  16  18
HETATM   18  C6  UNL     1      39.914  -0.777  31.540  1.00  0.00     0.029 C 
HETATM   19  C7  UNL     1      39.865  -0.041  32.888  1.00  0.00     0.038 C 
HETATM   20  C8  UNL     1      38.912  -1.870  31.597  1.00  0.00     0.038 C 
HETATM   21  C9  UNL     1      39.481   0.274  30.508  1.00  0.00     0.038 C 
ENDBRANCH  16  18
ENDBRANCH   1  16
TORSDOF 5
ENDMDL
