MODEL 1
REMARK VINA RESULT: -4.825618707      0.000      0.000
REMARK  8 active torsions:
REMARK  status: ('A' for Active; 'I' for Inactive)
REMARK    1  A    between atoms: C2_2  and  N1_4 
REMARK    2  A    between atoms: N1_4  and  C4_6 
REMARK    3  A    between atoms: C4_6  and  N2_8 
REMARK    4  A    between atoms: N2_8  and  N3_10 
REMARK    5  A    between atoms: N3_10  and  C5_12 
REMARK    6  A    between atoms: C5_12  and  N4_14 
REMARK    7  A    between atoms: N4_14  and  C6_16 
REMARK    8  A    between atoms: C6_16  and  C7_17 
ROOT
HETATM    1  N3  UNL     1      41.932  -5.225  29.050  1.00  0.00    -0.274 N 
ATOM      2  H3  UNL     1      42.752  -5.826  29.137  1.00  0.00     0.189 HD
ENDROOT
BRANCH   1   3
HETATM    3  N2  UNL     1      41.943  -4.246  28.054  1.00  0.00    -0.274 N 
ATOM      4  H2  UNL     1      41.324  -4.361  27.251  1.00  0.00     0.189 HD
BRANCH   3   5
HETATM    5  C4  UNL     1      42.779  -3.096  28.108  1.00  0.00     0.191 C 
HETATM    6  S1  UNL     1      42.375  -1.817  29.048  1.00  0.00    -0.039 SA
BRANCH   5   7
HETATM    7  N1  UNL     1      43.971  -3.015  27.358  1.00  0.00    -0.337 N 
ATOM      8  H1  UNL     1      44.863  -3.299  27.764  1.00  0.00     0.168 HD
BRANCH   7   9
HETATM    9  C2  UNL     1      43.903  -2.532  26.028  1.00  0.00    -0.002 C 
HETATM   10  C1  UNL     1      43.743  -3.393  25.042  1.00  0.00     0.037 C 
HETATM   11  C3  UNL     1      44.010  -1.078  25.739  1.00  0.00     0.067 C 
ENDBRANCH   7   9
ENDBRANCH   5   7
ENDBRANCH   3   5
ENDBRANCH   1   3
BRANCH   1  12
HETATM   12  C5  UNL     1      40.864  -5.435  29.939  1.00  0.00     0.186 C 
HETATM   13  S2  UNL     1      41.081  -6.426  31.198  1.00  0.00    -0.040 SA
BRANCH  12  14
HETATM   14  N4  UNL     1      39.632  -4.810  29.746  1.00  0.00    -0.366 N 
ATOM     15  H4  UNL     1      38.974  -5.289  29.131  1.00  0.00     0.161 HD
BRANCH  14  16
HETATM   16  C6  UNL     1      39.182  -3.563  30.317  1.00  0.00     0.126 C 
BRANCH  16  17
HETATM   17  C7  UNL     1      38.453  -2.706  29.337  1.00  0.00     0.003 A 
HETATM   18  C8  UNL     1      37.281  -3.142  28.580  1.00  0.00     0.007 A 
HETATM   19  C9  UNL     1      37.041  -2.252  29.720  1.00  0.00     0.007 A 
ENDBRANCH  16  17
ENDBRANCH  14  16
ENDBRANCH  12  14
ENDBRANCH   1  12
TORSDOF 8
ENDMDL
MODEL 2
REMARK VINA RESULT: -4.689410054      1.886      2.297
REMARK  8 active torsions:
REMARK  status: ('A' for Active; 'I' for Inactive)
REMARK    1  A    between atoms: C2_2  and  N1_4 
REMARK    2  A    between atoms: N1_4  and  C4_6 
REMARK    3  A    between atoms: C4_6  and  N2_8 
REMARK    4  A    between atoms: N2_8  and  N3_10 
REMARK    5  A    between atoms: N3_10  and  C5_12 
REMARK    6  A    between atoms: C5_12  and  N4_14 
REMARK    7  A    between atoms: N4_14  and  C6_16 
REMARK    8  A    between atoms: C6_16  and  C7_17 
ROOT
HETATM    1  N3  UNL     1      40.612  -3.403  29.383  1.00  0.00    -0.274 N 
ATOM      2  H3  UNL     1      40.889  -3.918  30.219  1.00  0.00     0.189 HD
ENDROOT
BRANCH   1   3
HETATM    3  N2  UNL     1      41.489  -3.398  28.297  1.00  0.00    -0.274 N 
ATOM      4  H2  UNL     1      41.196  -3.853  27.432  1.00  0.00     0.189 HD
BRANCH   3   5
HETATM    5  C4  UNL     1      42.774  -2.788  28.342  1.00  0.00     0.191 C 
HETATM    6  S1  UNL     1      43.076  -1.558  29.379  1.00  0.00    -0.039 SA
BRANCH   5   7
HETATM    7  N1  UNL     1      43.823  -3.215  27.499  1.00  0.00    -0.337 N 
ATOM      8  H1  UNL     1      44.552  -3.838  27.848  1.00  0.00     0.168 HD
BRANCH   7   9
HETATM    9  C2  UNL     1      43.841  -2.760  26.157  1.00  0.00    -0.002 C 
HETATM   10  C1  UNL     1      43.656  -3.632  25.185  1.00  0.00     0.037 C 
HETATM   11  C3  UNL     1      44.064  -1.326  25.841  1.00  0.00     0.067 C 
ENDBRANCH   7   9
ENDBRANCH   5   7
ENDBRANCH   3   5
ENDBRANCH   1   3
BRANCH   1  12
HETATM   12  C5  UNL     1      39.371  -2.742  29.398  1.00  0.00     0.186 C 
HETATM   13  S2  UNL     1      39.225  -1.378  30.255  1.00  0.00    -0.040 SA
BRANCH  12  14
HETATM   14  N4  UNL     1      38.277  -3.248  28.697  1.00  0.00    -0.366 N 
ATOM     15  H4  UNL     1      38.462  -3.584  27.751  1.00  0.00     0.161 HD
BRANCH  14  16
HETATM   16  C6  UNL     1      36.913  -3.351  29.156  1.00  0.00     0.126 C 
BRANCH  16  17
HETATM   17  C7  UNL     1      35.982  -2.450  28.414  1.00  0.00     0.003 A 
HETATM   18  C8  UNL     1      34.684  -2.868  27.887  1.00  0.00     0.007 A 
HETATM   19  C9  UNL     1      34.674  -2.065  29.114  1.00  0.00     0.007 A 
ENDBRANCH  16  17
ENDBRANCH  14  16
ENDBRANCH  12  14
ENDBRANCH   1  12
TORSDOF 8
ENDMDL
MODEL 3
REMARK VINA RESULT: -4.676144184      2.675      5.895
REMARK  8 active torsions:
REMARK  status: ('A' for Active; 'I' for Inactive)
REMARK    1  A    between atoms: C2_2  and  N1_4 
REMARK    2  A    between atoms: N1_4  and  C4_6 
REMARK    3  A    between atoms: C4_6  and  N2_8 
REMARK    4  A    between atoms: N2_8  and  N3_10 
REMARK    5  A    between atoms: N3_10  and  C5_12 
REMARK    6  A    between atoms: C5_12  and  N4_14 
REMARK    7  A    between atoms: N4_14  and  C6_16 
REMARK    8  A    between atoms: C6_16  and  C7_17 
ROOT
HETATM    1  N3  UNL     1      40.917  -2.861  29.108  1.00  0.00    -0.274 N 
ATOM      2  H3  UNL     1      39.980  -3.253  29.199  1.00  0.00     0.189 HD
ENDROOT
BRANCH   1   3
HETATM    3  N2  UNL     1      41.056  -1.474  29.193  1.00  0.00    -0.274 N 
ATOM      4  H2  UNL     1      41.405  -0.969  28.378  1.00  0.00     0.189 HD
BRANCH   3   5
HETATM    5  C4  UNL     1      40.732  -0.733  30.364  1.00  0.00     0.191 C 
HETATM    6  S1  UNL     1      41.498  -1.036  31.779  1.00  0.00    -0.039 SA
BRANCH   5   7
HETATM    7  N1  UNL     1      39.745   0.275  30.349  1.00  0.00    -0.337 N 
ATOM      8  H1  UNL     1      39.848   1.097  29.752  1.00  0.00     0.168 HD
BRANCH   7   9
HETATM    9  C2  UNL     1      38.608   0.123  31.181  1.00  0.00    -0.002 C 
HETATM   10  C1  UNL     1      38.285   1.101  32.005  1.00  0.00     0.037 C 
HETATM   11  C3  UNL     1      37.787  -1.114  31.131  1.00  0.00     0.067 C 
ENDBRANCH   7   9
ENDBRANCH   5   7
ENDBRANCH   3   5
ENDBRANCH   1   3
BRANCH   1  12
HETATM   12  C5  UNL     1      41.987  -3.750  28.907  1.00  0.00     0.186 C 
HETATM   13  S2  UNL     1      42.670  -4.451  30.194  1.00  0.00    -0.040 SA
BRANCH  12  14
HETATM   14  N4  UNL     1      42.463  -4.026  27.626  1.00  0.00    -0.366 N 
ATOM     15  H4  UNL     1      41.931  -4.704  27.081  1.00  0.00     0.161 HD
BRANCH  14  16
HETATM   16  C6  UNL     1      43.625  -3.461  26.982  1.00  0.00     0.126 C 
BRANCH  16  17
HETATM   17  C7  UNL     1      43.490  -1.997  26.724  1.00  0.00     0.003 A 
HETATM   18  C8  UNL     1      44.194  -0.963  27.481  1.00  0.00     0.007 A 
HETATM   19  C9  UNL     1      44.710  -1.273  26.144  1.00  0.00     0.007 A 
ENDBRANCH  16  17
ENDBRANCH  14  16
ENDBRANCH  12  14
ENDBRANCH   1  12
TORSDOF 8
ENDMDL
MODEL 4
REMARK VINA RESULT: -4.664315569      1.584      2.120
REMARK  8 active torsions:
REMARK  status: ('A' for Active; 'I' for Inactive)
REMARK    1  A    between atoms: C2_2  and  N1_4 
REMARK    2  A    between atoms: N1_4  and  C4_6 
REMARK    3  A    between atoms: C4_6  and  N2_8 
REMARK    4  A    between atoms: N2_8  and  N3_10 
REMARK    5  A    between atoms: N3_10  and  C5_12 
REMARK    6  A    between atoms: C5_12  and  N4_14 
REMARK    7  A    between atoms: N4_14  and  C6_16 
REMARK    8  A    between atoms: C6_16  and  C7_17 
ROOT
HETATM    1  N3  UNL     1      42.002  -5.034  28.873  1.00  0.00    -0.274 N 
ATOM      2  H3  UNL     1      42.568  -5.881  28.923  1.00  0.00     0.189 HD
ENDROOT
BRANCH   1   3
HETATM    3  N2  UNL     1      42.088  -4.258  27.715  1.00  0.00    -0.274 N 
ATOM      4  H2  UNL     1      41.321  -4.297  27.044  1.00  0.00     0.189 HD
BRANCH   3   5
HETATM    5  C4  UNL     1      43.199  -3.415  27.429  1.00  0.00     0.191 C 
HETATM    6  S1  UNL     1      43.786  -3.299  25.905  1.00  0.00    -0.039 SA
BRANCH   5   7
HETATM    7  N1  UNL     1      43.831  -2.661  28.441  1.00  0.00    -0.337 N 
ATOM      8  H1  UNL     1      44.617  -3.047  28.965  1.00  0.00     0.168 HD
BRANCH   7   9
HETATM    9  C2  UNL     1      43.351  -1.356  28.713  1.00  0.00    -0.002 C 
HETATM   10  C1  UNL     1      44.008  -0.319  28.230  1.00  0.00     0.037 C 
HETATM   11  C3  UNL     1      42.126  -1.149  29.529  1.00  0.00     0.067 C 
ENDBRANCH   7   9
ENDBRANCH   5   7
ENDBRANCH   3   5
ENDBRANCH   1   3
BRANCH   1  12
HETATM   12  C5  UNL     1      41.184  -4.722  29.973  1.00  0.00     0.186 C 
HETATM   13  S2  UNL     1      41.839  -4.710  31.451  1.00  0.00    -0.040 SA
BRANCH  12  14
HETATM   14  N4  UNL     1      39.830  -4.434  29.806  1.00  0.00    -0.366 N 
ATOM     15  H4  UNL     1      39.304  -5.068  29.204  1.00  0.00     0.161 HD
BRANCH  14  16
HETATM   16  C6  UNL     1      39.088  -3.341  30.387  1.00  0.00     0.126 C 
BRANCH  16  17
HETATM   17  C7  UNL     1      38.287  -2.584  29.381  1.00  0.00     0.003 A 
HETATM   18  C8  UNL     1      37.262  -3.185  28.529  1.00  0.00     0.007 A 
HETATM   19  C9  UNL     1      36.794  -2.396  29.673  1.00  0.00     0.007 A 
ENDBRANCH  16  17
ENDBRANCH  14  16
ENDBRANCH  12  14
ENDBRANCH   1  12
TORSDOF 8
ENDMDL
MODEL 5
REMARK VINA RESULT: -4.615391494      2.726      4.739
REMARK  8 active torsions:
REMARK  status: ('A' for Active; 'I' for Inactive)
REMARK    1  A    between atoms: C2_2  and  N1_4 
REMARK    2  A    between atoms: N1_4  and  C4_6 
REMARK    3  A    between atoms: C4_6  and  N2_8 
REMARK    4  A    between atoms: N2_8  and  N3_10 
REMARK    5  A    between atoms: N3_10  and  C5_12 
REMARK    6  A    between atoms: C5_12  and  N4_14 
REMARK    7  A    between atoms: N4_14  and  C6_16 
REMARK    8  A    between atoms: C6_16  and  C7_17 
ROOT
HETATM    1  N3  UNL     1      41.704  -5.002  28.710  1.00  0.00    -0.274 N 
ATOM      2  H3  UNL     1      41.588  -5.736  28.012  1.00  0.00     0.189 HD
ENDROOT
BRANCH   1   3
HETATM    3  N2  UNL     1      41.667  -3.675  28.276  1.00  0.00    -0.274 N 
ATOM      4  H2  UNL     1      40.806  -3.324  27.856  1.00  0.00     0.189 HD
BRANCH   3   5
HETATM    5  C4  UNL     1      42.775  -2.791  28.393  1.00  0.00     0.191 C 
HETATM    6  S1  UNL     1      42.732  -1.535  29.442  1.00  0.00    -0.039 SA
BRANCH   5   7
HETATM    7  N1  UNL     1      43.939  -2.960  27.611  1.00  0.00    -0.337 N 
ATOM      8  H1  UNL     1      44.798  -3.322  28.027  1.00  0.00     0.168 HD
BRANCH   7   9
HETATM    9  C2  UNL     1      43.888  -2.617  26.238  1.00  0.00    -0.002 C 
HETATM   10  C1  UNL     1      44.081  -1.360  25.886  1.00  0.00     0.037 C 
HETATM   11  C3  UNL     1      43.622  -3.649  25.203  1.00  0.00     0.067 C 
ENDBRANCH   7   9
ENDBRANCH   5   7
ENDBRANCH   3   5
ENDBRANCH   1   3
BRANCH   1  12
HETATM   12  C5  UNL     1      41.893  -5.390  30.048  1.00  0.00     0.186 C 
HETATM   13  S2  UNL     1      40.778  -4.976  31.144  1.00  0.00    -0.040 SA
BRANCH  12  14
HETATM   14  N4  UNL     1      43.021  -6.112  30.437  1.00  0.00    -0.366 N 
ATOM     15  H4  UNL     1      43.365  -6.806  29.772  1.00  0.00     0.161 HD
BRANCH  14  16
HETATM   16  C6  UNL     1      43.757  -5.991  31.672  1.00  0.00     0.126 C 
BRANCH  16  17
HETATM   17  C7  UNL     1      44.920  -6.924  31.748  1.00  0.00     0.003 A 
HETATM   18  C8  UNL     1      46.127  -6.667  32.532  1.00  0.00     0.007 A 
HETATM   19  C9  UNL     1      45.167  -7.626  33.087  1.00  0.00     0.007 A 
ENDBRANCH  16  17
ENDBRANCH  14  16
ENDBRANCH  12  14
ENDBRANCH   1  12
TORSDOF 8
ENDMDL
