MODEL 1
REMARK VINA RESULT: -5.848023090      0.000      0.000
REMARK  5 active torsions:
REMARK  status: ('A' for Active; 'I' for Inactive)
REMARK       I    between atoms: N1_2  and  C2_4 
REMARK    1  A    between atoms: C2_4  and  C3_6 
REMARK    2  A    between atoms: C3_6  and  N2_7 
REMARK    3  A    between atoms: N2_7  and  C4_9 
REMARK    4  A    between atoms: C6_14  and  C12_24 
REMARK    5  A    between atoms: C10_18  and  N4_19 
ROOT
HETATM    1  C3  UNL     1      41.677  -2.331  29.867  1.00  0.00     0.121 C 
HETATM    2  C6  UNL     1      40.726  -3.559  29.983  1.00  0.00     0.029 C 
HETATM    3  C7  UNL     1      40.522  -3.641  31.472  1.00  0.00     0.013 C 
HETATM    4  C8  UNL     1      41.890  -3.350  32.001  1.00  0.00    -0.004 C 
HETATM    5  C9  UNL     1      42.593  -4.661  32.357  1.00  0.00     0.044 C 
HETATM    6  C10 UNL     1      42.948  -5.282  31.055  1.00  0.00     0.129 C 
HETATM    7  C11 UNL     1      41.784  -5.884  30.291  1.00  0.00     0.044 C 
HETATM    8  C12 UNL     1      41.687  -4.612  29.502  1.00  0.00     0.002 C 
HETATM    9  C13 UNL     1      43.009  -4.166  30.088  1.00  0.00     0.033 C 
HETATM   10  C14 UNL     1      42.682  -2.862  30.821  1.00  0.00     0.035 C 
ENDROOT
BRANCH   1  11
HETATM   11  C2  UNL     1      40.984  -1.084  30.173  1.00  0.00     0.246 C 
HETATM   12  N1  UNL     1      39.729  -0.618  29.830  1.00  0.00    -0.363 N 
HETATM   13  C1  UNL     1      39.278   0.710  30.279  1.00  0.00     0.149 C 
ATOM     14  H1  UNL     1      39.112  -1.198  29.262  1.00  0.00     0.162 HD
HETATM   15  O1  UNL     1      41.682  -0.271  30.906  1.00  0.00    -0.271 OA
ENDBRANCH   1  11
BRANCH   1  16
HETATM   16  N2  UNL     1      42.141  -2.284  28.474  1.00  0.00    -0.362 N 
ATOM     17  H2  UNL     1      41.649  -2.857  27.788  1.00  0.00     0.162 HD
BRANCH  16  18
HETATM   18  C4  UNL     1      43.217  -1.502  28.024  1.00  0.00     0.067 C 
HETATM   19  C5  UNL     1      44.123  -1.827  26.894  1.00  0.00     0.088 C 
HETATM   20  N3  UNL     1      43.513  -0.388  28.600  1.00  0.00    -0.389 N 
ATOM     21  H32 UNL     1      42.890  -0.165  29.377  1.00  0.00     0.157 HD
ATOM     22  H31 UNL     1      44.295   0.180  28.274  1.00  0.00     0.157 HD
ENDBRANCH  16  18
ENDBRANCH   1  16
BRANCH   6  23
HETATM   23  N4  UNL     1      44.164  -6.077  31.027  1.00  0.00    -0.070 N 
ATOM     24  H43 UNL     1      44.893  -5.572  30.523  1.00  0.00     0.275 HD
ATOM     25  H42 UNL     1      44.574  -6.111  31.960  1.00  0.00     0.275 HD
ATOM     26  H41 UNL     1      44.080  -7.023  30.653  1.00  0.00     0.275 HD
ENDBRANCH   6  23
TORSDOF 5
ENDMDL
MODEL 2
REMARK VINA RESULT: -5.835430817      8.320     10.021
REMARK  5 active torsions:
REMARK  status: ('A' for Active; 'I' for Inactive)
REMARK       I    between atoms: N1_2  and  C2_4 
REMARK    1  A    between atoms: C2_4  and  C3_6 
REMARK    2  A    between atoms: C3_6  and  N2_7 
REMARK    3  A    between atoms: N2_7  and  C4_9 
REMARK    4  A    between atoms: C6_14  and  C12_24 
REMARK    5  A    between atoms: C10_18  and  N4_19 
ROOT
HETATM    1  C3  UNL     1      44.624   2.204  36.875  1.00  0.00     0.121 C 
HETATM    2  C6  UNL     1      45.104   3.425  37.713  1.00  0.00     0.029 C 
HETATM    3  C7  UNL     1      44.581   3.075  39.080  1.00  0.00     0.013 C 
HETATM    4  C8  UNL     1      43.232   2.508  38.773  1.00  0.00    -0.004 C 
HETATM    5  C9  UNL     1      42.162   3.578  39.000  1.00  0.00     0.044 C 
HETATM    6  C10 UNL     1      42.307   4.524  37.864  1.00  0.00     0.129 C 
HETATM    7  C11 UNL     1      43.516   5.437  37.939  1.00  0.00     0.044 C 
HETATM    8  C12 UNL     1      44.254   4.477  37.053  1.00  0.00     0.002 C 
HETATM    9  C13 UNL     1      42.955   3.751  36.784  1.00  0.00     0.033 C 
HETATM   10  C14 UNL     1      43.202   2.325  37.283  1.00  0.00     0.035 C 
ENDROOT
BRANCH   1  11
HETATM   11  C2  UNL     1      45.370   0.996  37.212  1.00  0.00     0.246 C 
HETATM   12  N1  UNL     1      44.959  -0.290  37.507  1.00  0.00    -0.363 N 
HETATM   13  C1  UNL     1      45.947  -1.336  37.823  1.00  0.00     0.149 C 
ATOM     14  H1  UNL     1      43.964  -0.516  37.505  1.00  0.00     0.162 HD
HETATM   15  O1  UNL     1      46.657   1.171  37.231  1.00  0.00    -0.271 OA
ENDBRANCH   1  11
BRANCH   1  16
HETATM   16  N2  UNL     1      44.873   2.534  35.465  1.00  0.00    -0.362 N 
ATOM     17  H2  UNL     1      45.128   3.495  35.238  1.00  0.00     0.162 HD
BRANCH  16  18
HETATM   18  C4  UNL     1      44.782   1.613  34.409  1.00  0.00     0.067 C 
HETATM   19  C5  UNL     1      43.581   0.821  34.039  1.00  0.00     0.088 C 
HETATM   20  N3  UNL     1      45.795   1.373  33.650  1.00  0.00    -0.389 N 
ATOM     21  H32 UNL     1      46.620   1.917  33.904  1.00  0.00     0.157 HD
ATOM     22  H31 UNL     1      45.729   0.703  32.883  1.00  0.00     0.157 HD
ENDBRANCH  16  18
ENDBRANCH   1  16
BRANCH   6  23
HETATM   23  N4  UNL     1      41.091   5.170  37.400  1.00  0.00    -0.070 N 
ATOM     24  H43 UNL     1      40.293   4.554  37.556  1.00  0.00     0.275 HD
ATOM     25  H42 UNL     1      40.853   5.942  38.023  1.00  0.00     0.275 HD
ATOM     26  H41 UNL     1      41.090   5.496  36.433  1.00  0.00     0.275 HD
ENDBRANCH   6  23
TORSDOF 5
ENDMDL
MODEL 3
REMARK VINA RESULT: -5.684210589      1.801      4.394
REMARK  5 active torsions:
REMARK  status: ('A' for Active; 'I' for Inactive)
REMARK       I    between atoms: N1_2  and  C2_4 
REMARK    1  A    between atoms: C2_4  and  C3_6 
REMARK    2  A    between atoms: C3_6  and  N2_7 
REMARK    3  A    between atoms: N2_7  and  C4_9 
REMARK    4  A    between atoms: C6_14  and  C12_24 
REMARK    5  A    between atoms: C10_18  and  N4_19 
ROOT
HETATM    1  C3  UNL     1      42.227  -3.526  29.927  1.00  0.00     0.121 C 
HETATM    2  C6  UNL     1      42.234  -2.894  31.350  1.00  0.00     0.029 C 
HETATM    3  C7  UNL     1      40.903  -3.346  31.887  1.00  0.00     0.013 C 
HETATM    4  C8  UNL     1      40.008  -3.191  30.700  1.00  0.00    -0.004 C 
HETATM    5  C9  UNL     1      39.233  -1.877  30.811  1.00  0.00     0.044 C 
HETATM    6  C10 UNL     1      40.226  -0.810  30.524  1.00  0.00     0.129 C 
HETATM    7  C11 UNL     1      41.223  -0.544  31.635  1.00  0.00     0.044 C 
HETATM    8  C12 UNL     1      42.195  -1.448  30.935  1.00  0.00     0.002 C 
HETATM    9  C13 UNL     1      41.286  -1.461  29.726  1.00  0.00     0.033 C 
HETATM   10  C14 UNL     1      40.922  -2.936  29.536  1.00  0.00     0.035 C 
ENDROOT
BRANCH   1  11
HETATM   11  C2  UNL     1      42.373  -4.977  29.984  1.00  0.00     0.246 C 
HETATM   12  N1  UNL     1      43.147  -5.796  30.783  1.00  0.00    -0.363 N 
HETATM   13  C1  UNL     1      43.103  -7.258  30.617  1.00  0.00     0.149 C 
ATOM     14  H1  UNL     1      43.753  -5.384  31.492  1.00  0.00     0.162 HD
HETATM   15  O1  UNL     1      41.631  -5.605  29.122  1.00  0.00    -0.271 OA
ENDBRANCH   1  11
BRANCH   1  16
HETATM   16  N2  UNL     1      43.378  -2.963  29.207  1.00  0.00    -0.362 N 
ATOM     17  H2  UNL     1      44.190  -2.680  29.754  1.00  0.00     0.162 HD
BRANCH  16  18
HETATM   18  C4  UNL     1      43.432  -2.790  27.815  1.00  0.00     0.067 C 
HETATM   19  C5  UNL     1      43.849  -1.556  27.103  1.00  0.00     0.088 C 
HETATM   20  N3  UNL     1      43.097  -3.742  27.015  1.00  0.00    -0.389 N 
ATOM     21  H32 UNL     1      42.811  -4.591  27.505  1.00  0.00     0.157 HD
ATOM     22  H31 UNL     1      43.136  -3.617  26.004  1.00  0.00     0.157 HD
ENDBRANCH  16  18
ENDBRANCH   1  16
BRANCH   6  23
HETATM   23  N4  UNL     1      39.723   0.384  29.866  1.00  0.00    -0.070 N 
ATOM     24  H43 UNL     1      40.082   1.214  30.340  1.00  0.00     0.275 HD
ATOM     25  H42 UNL     1      40.166   0.486  28.953  1.00  0.00     0.275 HD
ATOM     26  H41 UNL     1      38.710   0.456  29.768  1.00  0.00     0.275 HD
ENDBRANCH   6  23
TORSDOF 5
ENDMDL
MODEL 4
REMARK VINA RESULT: -5.530353759      2.091      3.745
REMARK  5 active torsions:
REMARK  status: ('A' for Active; 'I' for Inactive)
REMARK       I    between atoms: N1_2  and  C2_4 
REMARK    1  A    between atoms: C2_4  and  C3_6 
REMARK    2  A    between atoms: C3_6  and  N2_7 
REMARK    3  A    between atoms: N2_7  and  C4_9 
REMARK    4  A    between atoms: C6_14  and  C12_24 
REMARK    5  A    between atoms: C10_18  and  N4_19 
ROOT
HETATM    1  C3  UNL     1      40.268  -2.356  30.425  1.00  0.00     0.121 C 
HETATM    2  C6  UNL     1      41.543  -2.925  31.114  1.00  0.00     0.029 C 
HETATM    3  C7  UNL     1      42.486  -1.757  31.014  1.00  0.00     0.013 C 
HETATM    4  C8  UNL     1      42.208  -1.236  29.640  1.00  0.00    -0.004 C 
HETATM    5  C9  UNL     1      43.272  -1.754  28.670  1.00  0.00     0.044 C 
HETATM    6  C10 UNL     1      42.953  -3.191  28.470  1.00  0.00     0.129 C 
HETATM    7  C11 UNL     1      43.296  -4.095  29.638  1.00  0.00     0.044 C 
HETATM    8  C12 UNL     1      41.873  -3.985  30.098  1.00  0.00     0.002 C 
HETATM    9  C13 UNL     1      41.516  -3.326  28.784  1.00  0.00     0.033 C 
HETATM   10  C14 UNL     1      40.970  -1.951  29.181  1.00  0.00     0.035 C 
ENDROOT
BRANCH   1  11
HETATM   11  C2  UNL     1      39.620  -1.340  31.249  1.00  0.00     0.246 C 
HETATM   12  N1  UNL     1      39.205  -0.053  30.970  1.00  0.00    -0.363 N 
HETATM   13  C1  UNL     1      38.572   0.770  32.014  1.00  0.00     0.149 C 
ATOM     14  H1  UNL     1      39.337   0.330  30.034  1.00  0.00     0.162 HD
HETATM   15  O1  UNL     1      39.393  -1.731  32.467  1.00  0.00    -0.271 OA
ENDBRANCH   1  11
BRANCH   1  16
HETATM   16  N2  UNL     1      39.341  -3.483  30.250  1.00  0.00    -0.362 N 
ATOM     17  H2  UNL     1      39.716  -4.427  30.342  1.00  0.00     0.162 HD
BRANCH  16  18
HETATM   18  C4  UNL     1      37.974  -3.345  29.964  1.00  0.00     0.067 C 
HETATM   19  C5  UNL     1      37.388  -2.978  28.650  1.00  0.00     0.088 C 
HETATM   20  N3  UNL     1      37.084  -3.532  30.876  1.00  0.00    -0.389 N 
ATOM     21  H32 UNL     1      37.487  -3.785  31.779  1.00  0.00     0.157 HD
ATOM     22  H31 UNL     1      36.090  -3.432  30.669  1.00  0.00     0.157 HD
ENDBRANCH  16  18
ENDBRANCH   1  16
BRANCH   6  23
HETATM   23  N4  UNL     1      43.266  -3.748  27.164  1.00  0.00    -0.070 N 
ATOM     24  H43 UNL     1      42.755  -3.239  26.443  1.00  0.00     0.275 HD
ATOM     25  H42 UNL     1      44.227  -3.513  26.912  1.00  0.00     0.275 HD
ATOM     26  H41 UNL     1      43.116  -4.751  27.050  1.00  0.00     0.275 HD
ENDBRANCH   6  23
TORSDOF 5
ENDMDL
MODEL 5
REMARK VINA RESULT: -5.459874116      2.170      4.416
REMARK  5 active torsions:
REMARK  status: ('A' for Active; 'I' for Inactive)
REMARK       I    between atoms: N1_2  and  C2_4 
REMARK    1  A    between atoms: C2_4  and  C3_6 
REMARK    2  A    between atoms: C3_6  and  N2_7 
REMARK    3  A    between atoms: N2_7  and  C4_9 
REMARK    4  A    between atoms: C6_14  and  C12_24 
REMARK    5  A    between atoms: C10_18  and  N4_19 
ROOT
HETATM    1  C3  UNL     1      40.837  -2.031  30.356  1.00  0.00     0.121 C 
HETATM    2  C6  UNL     1      39.630  -1.204  29.824  1.00  0.00     0.029 C 
HETATM    3  C7  UNL     1      39.799   0.090  30.572  1.00  0.00     0.013 C 
HETATM    4  C8  UNL     1      40.203  -0.375  31.934  1.00  0.00    -0.004 C 
HETATM    5  C9  UNL     1      38.985  -0.369  32.860  1.00  0.00     0.044 C 
HETATM    6  C10 UNL     1      38.158  -1.525  32.429  1.00  0.00     0.129 C 
HETATM    7  C11 UNL     1      37.412  -1.329  31.123  1.00  0.00     0.044 C 
HETATM    8  C12 UNL     1      38.528  -2.041  30.417  1.00  0.00     0.002 C 
HETATM    9  C13 UNL     1      39.093  -2.452  31.759  1.00  0.00     0.033 C 
HETATM   10  C14 UNL     1      40.496  -1.841  31.788  1.00  0.00     0.035 C 
ENDROOT
BRANCH   1  11
HETATM   11  C2  UNL     1      42.105  -1.520  29.844  1.00  0.00     0.246 C 
HETATM   12  N1  UNL     1      42.512  -1.170  28.571  1.00  0.00    -0.363 N 
HETATM   13  C1  UNL     1      43.880  -0.679  28.334  1.00  0.00     0.149 C 
ATOM     14  H1  UNL     1      41.860  -1.252  27.791  1.00  0.00     0.162 HD
HETATM   15  O1  UNL     1      43.009  -1.366  30.764  1.00  0.00    -0.271 OA
ENDBRANCH   1  11
BRANCH   1  16
HETATM   16  N2  UNL     1      40.654  -3.408  29.874  1.00  0.00    -0.362 N 
ATOM     17  H2  UNL     1      39.730  -3.676  29.538  1.00  0.00     0.162 HD
BRANCH  16  18
HETATM   18  C4  UNL     1      41.669  -4.377  29.847  1.00  0.00     0.067 C 
HETATM   19  C5  UNL     1      42.410  -4.900  31.022  1.00  0.00     0.088 C 
HETATM   20  N3  UNL     1      42.052  -4.905  28.736  1.00  0.00    -0.389 N 
ATOM     21  H32 UNL     1      41.542  -4.545  27.929  1.00  0.00     0.157 HD
ATOM     22  H31 UNL     1      42.789  -5.609  28.716  1.00  0.00     0.157 HD
ENDBRANCH  16  18
ENDBRANCH   1  16
BRANCH   6  23
HETATM   23  N4  UNL     1      37.393  -2.197  33.466  1.00  0.00    -0.070 N 
ATOM     24  H43 UNL     1      36.564  -1.647  33.692  1.00  0.00     0.275 HD
ATOM     25  H42 UNL     1      36.959  -3.037  33.082  1.00  0.00     0.275 HD
ATOM     26  H41 UNL     1      37.896  -2.429  34.322  1.00  0.00     0.275 HD
ENDBRANCH   6  23
TORSDOF 5
ENDMDL
