MODEL 1
REMARK VINA RESULT: -5.348041575      0.000      0.000
REMARK  5 active torsions:
REMARK  status: ('A' for Active; 'I' for Inactive)
REMARK    1  A    between atoms: C2_2  and  N1_4 
REMARK    2  A    between atoms: N1_4  and  C4_6 
REMARK    3  A    between atoms: C4_6  and  N2_8 
REMARK    4  A    between atoms: N2_8  and  N3_10 
REMARK       I    between atoms: N3_10  and  C5_12 
REMARK       I    between atoms: C5_12  and  N4_14 
REMARK    5  A    between atoms: N4_14  and  C6_16 
ROOT
HETATM    1  N3  UNL     1      41.796  -0.734  29.388  1.00  0.00    -0.249 N 
ATOM      2  H3  UNL     1      41.601  -0.101  28.612  1.00  0.00     0.192 HD
HETATM    3  C5  UNL     1      40.918  -0.831  30.509  1.00  0.00     0.335 C 
HETATM    4  O1  UNL     1      41.226  -1.635  31.430  1.00  0.00    -0.246 OA
HETATM    5  N4  UNL     1      39.737  -0.036  30.569  1.00  0.00    -0.337 N 
ATOM      6  H4  UNL     1      39.497   0.611  29.818  1.00  0.00     0.164 HD
ENDROOT
BRANCH   1   7
HETATM    7  N2  UNL     1      42.942  -1.548  29.400  1.00  0.00    -0.272 N 
ATOM      8  H2  UNL     1      43.774  -1.222  29.889  1.00  0.00     0.189 HD
BRANCH   7   9
HETATM    9  C4  UNL     1      42.976  -2.803  28.756  1.00  0.00     0.186 C 
HETATM   10  S1  UNL     1      43.200  -4.136  29.648  1.00  0.00    -0.040 SA
BRANCH   9  11
HETATM   11  N1  UNL     1      42.827  -2.892  27.360  1.00  0.00    -0.362 N 
ATOM     12  H1  UNL     1      41.886  -2.931  26.970  1.00  0.00     0.162 HD
BRANCH  11  13
HETATM   13  C2  UNL     1      43.958  -2.931  26.455  1.00  0.00     0.076 C 
HETATM   14  C1  UNL     1      44.384  -1.534  26.098  1.00  0.00     0.032 C 
HETATM   15  C3  UNL     1      43.645  -3.659  25.182  1.00  0.00     0.032 C 
ENDBRANCH  11  13
ENDBRANCH   9  11
ENDBRANCH   7   9
ENDBRANCH   1   7
BRANCH   5  16
HETATM   16  C6  UNL     1      38.895  -0.179  31.731  1.00  0.00     0.086 C 
HETATM   17  C7  UNL     1      37.698  -1.031  31.356  1.00  0.00     0.025 C 
HETATM   18  C8  UNL     1      36.731  -0.676  32.469  1.00  0.00     0.002 C 
HETATM   19  C9  UNL     1      36.825   0.856  32.449  1.00  0.00     0.002 C 
HETATM   20  C10 UNL     1      38.310   1.132  32.201  1.00  0.00     0.025 C 
ENDBRANCH   5  16
TORSDOF 5
ENDMDL
MODEL 2
REMARK VINA RESULT: -5.285517656      3.268      6.736
REMARK  5 active torsions:
REMARK  status: ('A' for Active; 'I' for Inactive)
REMARK    1  A    between atoms: C2_2  and  N1_4 
REMARK    2  A    between atoms: N1_4  and  C4_6 
REMARK    3  A    between atoms: C4_6  and  N2_8 
REMARK    4  A    between atoms: N2_8  and  N3_10 
REMARK       I    between atoms: N3_10  and  C5_12 
REMARK       I    between atoms: C5_12  and  N4_14 
REMARK    5  A    between atoms: N4_14  and  C6_16 
ROOT
HETATM    1  N3  UNL     1      41.115  -4.740  29.573  1.00  0.00    -0.249 N 
ATOM      2  H3  UNL     1      40.266  -4.895  29.028  1.00  0.00     0.192 HD
HETATM    3  C5  UNL     1      42.297  -4.211  28.974  1.00  0.00     0.335 C 
HETATM    4  O1  UNL     1      43.307  -4.047  29.711  1.00  0.00    -0.246 OA
HETATM    5  N4  UNL     1      42.319  -3.885  27.587  1.00  0.00    -0.337 N 
ATOM      6  H4  UNL     1      41.496  -4.020  27.000  1.00  0.00     0.164 HD
ENDROOT
BRANCH   1   7
HETATM    7  N2  UNL     1      41.170  -5.038  30.945  1.00  0.00    -0.272 N 
ATOM      8  H2  UNL     1      41.452  -5.974  31.236  1.00  0.00     0.189 HD
BRANCH   7   9
HETATM    9  C4  UNL     1      40.847  -4.084  31.933  1.00  0.00     0.186 C 
HETATM   10  S1  UNL     1      39.387  -4.143  32.632  1.00  0.00    -0.040 SA
BRANCH   9  11
HETATM   11  N1  UNL     1      41.776  -3.093  32.297  1.00  0.00    -0.362 N 
ATOM     12  H1  UNL     1      42.707  -3.381  32.594  1.00  0.00     0.162 HD
BRANCH  11  13
HETATM   13  C2  UNL     1      41.462  -1.679  32.266  1.00  0.00     0.076 C 
HETATM   14  C1  UNL     1      41.402  -1.192  30.844  1.00  0.00     0.032 C 
HETATM   15  C3  UNL     1      42.478  -0.852  32.996  1.00  0.00     0.032 C 
ENDBRANCH  11  13
ENDBRANCH   9  11
ENDBRANCH   7   9
ENDBRANCH   1   7
BRANCH   5  16
HETATM   16  C6  UNL     1      43.547  -3.357  27.045  1.00  0.00     0.086 C 
HETATM   17  C7  UNL     1      43.511  -1.846  27.152  1.00  0.00     0.025 C 
HETATM   18  C8  UNL     1      44.573  -1.459  26.141  1.00  0.00     0.002 C 
HETATM   19  C9  UNL     1      44.147  -2.316  24.942  1.00  0.00     0.002 C 
HETATM   20  C10 UNL     1      43.709  -3.641  25.570  1.00  0.00     0.025 C 
ENDBRANCH   5  16
TORSDOF 5
ENDMDL
MODEL 3
REMARK VINA RESULT: -5.269791539      1.272      1.570
REMARK  5 active torsions:
REMARK  status: ('A' for Active; 'I' for Inactive)
REMARK    1  A    between atoms: C2_2  and  N1_4 
REMARK    2  A    between atoms: N1_4  and  C4_6 
REMARK    3  A    between atoms: C4_6  and  N2_8 
REMARK    4  A    between atoms: N2_8  and  N3_10 
REMARK       I    between atoms: N3_10  and  C5_12 
REMARK       I    between atoms: C5_12  and  N4_14 
REMARK    5  A    between atoms: N4_14  and  C6_16 
ROOT
HETATM    1  N3  UNL     1      41.145  -1.658  29.410  1.00  0.00    -0.249 N 
ATOM      2  H3  UNL     1      41.837  -0.947  29.173  1.00  0.00     0.192 HD
HETATM    3  C5  UNL     1      40.178  -1.443  30.436  1.00  0.00     0.335 C 
HETATM    4  O1  UNL     1      39.355  -2.369  30.673  1.00  0.00    -0.246 OA
HETATM    5  N4  UNL     1      40.158  -0.217  31.161  1.00  0.00    -0.337 N 
ATOM      6  H4  UNL     1      40.827   0.526  30.961  1.00  0.00     0.164 HD
ENDROOT
BRANCH   1   7
HETATM    7  N2  UNL     1      41.104  -2.893  28.739  1.00  0.00    -0.272 N 
ATOM      8  H2  UNL     1      40.203  -3.256  28.428  1.00  0.00     0.189 HD
BRANCH   7   9
HETATM    9  C4  UNL     1      42.269  -3.645  28.482  1.00  0.00     0.186 C 
HETATM   10  S1  UNL     1      43.161  -4.159  29.732  1.00  0.00    -0.040 SA
BRANCH   9  11
HETATM   11  N1  UNL     1      42.654  -3.934  27.161  1.00  0.00    -0.362 N 
ATOM     12  H1  UNL     1      42.122  -4.629  26.638  1.00  0.00     0.162 HD
BRANCH  11  13
HETATM   13  C2  UNL     1      43.775  -3.285  26.514  1.00  0.00     0.076 C 
HETATM   14  C1  UNL     1      43.755  -1.808  26.800  1.00  0.00     0.032 C 
HETATM   15  C3  UNL     1      43.759  -3.467  25.025  1.00  0.00     0.032 C 
ENDBRANCH  11  13
ENDBRANCH   9  11
ENDBRANCH   7   9
ENDBRANCH   1   7
BRANCH   5  16
HETATM   16  C6  UNL     1      39.156  -0.065  32.189  1.00  0.00     0.086 C 
HETATM   17  C7  UNL     1      38.264   1.105  31.822  1.00  0.00     0.025 C 
HETATM   18  C8  UNL     1      37.636   1.420  33.166  1.00  0.00     0.002 C 
HETATM   19  C9  UNL     1      38.881   1.447  34.062  1.00  0.00     0.002 C 
HETATM   20  C10 UNL     1      39.741   0.296  33.534  1.00  0.00     0.025 C 
ENDBRANCH   5  16
TORSDOF 5
ENDMDL
MODEL 4
REMARK VINA RESULT: -5.252585476      4.784      6.816
REMARK  5 active torsions:
REMARK  status: ('A' for Active; 'I' for Inactive)
REMARK    1  A    between atoms: C2_2  and  N1_4 
REMARK    2  A    between atoms: N1_4  and  C4_6 
REMARK    3  A    between atoms: C4_6  and  N2_8 
REMARK    4  A    between atoms: N2_8  and  N3_10 
REMARK       I    between atoms: N3_10  and  C5_12 
REMARK       I    between atoms: C5_12  and  N4_14 
REMARK    5  A    between atoms: N4_14  and  C6_16 
ROOT
HETATM    1  N3  UNL     1      41.708  -5.560  29.551  1.00  0.00    -0.249 N 
ATOM      2  H3  UNL     1      40.960  -5.840  28.917  1.00  0.00     0.192 HD
HETATM    3  C5  UNL     1      42.685  -4.592  29.170  1.00  0.00     0.335 C 
HETATM    4  O1  UNL     1      43.580  -4.297  30.008  1.00  0.00    -0.246 OA
HETATM    5  N4  UNL     1      42.637  -3.991  27.879  1.00  0.00    -0.337 N 
ATOM      6  H4  UNL     1      41.908  -4.236  27.209  1.00  0.00     0.164 HD
ENDROOT
BRANCH   1   7
HETATM    7  N2  UNL     1      41.820  -6.110  30.840  1.00  0.00    -0.272 N 
ATOM      8  H2  UNL     1      41.375  -5.631  31.622  1.00  0.00     0.189 HD
BRANCH   7   9
HETATM    9  C4  UNL     1      42.529  -7.305  31.085  1.00  0.00     0.186 C 
HETATM   10  S1  UNL     1      41.756  -8.546  31.782  1.00  0.00    -0.040 SA
BRANCH   9  11
HETATM   11  N1  UNL     1      43.887  -7.412  30.737  1.00  0.00    -0.362 N 
ATOM     12  H1  UNL     1      44.177  -7.128  29.801  1.00  0.00     0.162 HD
BRANCH  11  13
HETATM   13  C2  UNL     1      44.892  -7.909  31.655  1.00  0.00     0.076 C 
HETATM   14  C1  UNL     1      45.666  -6.763  32.246  1.00  0.00     0.032 C 
HETATM   15  C3  UNL     1      45.869  -8.831  30.988  1.00  0.00     0.032 C 
ENDBRANCH  11  13
ENDBRANCH   9  11
ENDBRANCH   7   9
ENDBRANCH   1   7
BRANCH   5  16
HETATM   16  C6  UNL     1      43.656  -3.023  27.556  1.00  0.00     0.086 C 
HETATM   17  C7  UNL     1      43.139  -1.642  27.907  1.00  0.00     0.025 C 
HETATM   18  C8  UNL     1      44.065  -0.768  27.085  1.00  0.00     0.002 C 
HETATM   19  C9  UNL     1      43.985  -1.473  25.723  1.00  0.00     0.002 C 
HETATM   20  C10 UNL     1      43.963  -2.961  26.078  1.00  0.00     0.025 C 
ENDBRANCH   5  16
TORSDOF 5
ENDMDL
MODEL 5
REMARK VINA RESULT: -5.244480324      4.803      6.878
REMARK  5 active torsions:
REMARK  status: ('A' for Active; 'I' for Inactive)
REMARK    1  A    between atoms: C2_2  and  N1_4 
REMARK    2  A    between atoms: N1_4  and  C4_6 
REMARK    3  A    between atoms: C4_6  and  N2_8 
REMARK    4  A    between atoms: N2_8  and  N3_10 
REMARK       I    between atoms: N3_10  and  C5_12 
REMARK       I    between atoms: C5_12  and  N4_14 
REMARK    5  A    between atoms: N4_14  and  C6_16 
ROOT
HETATM    1  N3  UNL     1      41.159  -5.323  29.566  1.00  0.00    -0.249 N 
ATOM      2  H3  UNL     1      40.401  -5.554  28.924  1.00  0.00     0.192 HD
HETATM    3  C5  UNL     1      42.276  -4.540  29.147  1.00  0.00     0.335 C 
HETATM    4  O1  UNL     1      43.175  -4.295  29.996  1.00  0.00    -0.246 OA
HETATM    5  N4  UNL     1      42.358  -4.061  27.808  1.00  0.00    -0.337 N 
ATOM      6  H4  UNL     1      41.625  -4.263  27.128  1.00  0.00     0.164 HD
ENDROOT
BRANCH   1   7
HETATM    7  N2  UNL     1      41.149  -5.761  30.901  1.00  0.00    -0.272 N 
ATOM      8  H2  UNL     1      41.019  -5.076  31.645  1.00  0.00     0.189 HD
BRANCH   7   9
HETATM    9  C4  UNL     1      41.312  -7.120  31.245  1.00  0.00     0.186 C 
HETATM   10  S1  UNL     1      40.065  -8.133  31.047  1.00  0.00    -0.040 SA
BRANCH   9  11
HETATM   11  N1  UNL     1      42.536  -7.582  31.760  1.00  0.00    -0.362 N 
ATOM     12  H1  UNL     1      42.560  -7.943  32.714  1.00  0.00     0.162 HD
BRANCH  11  13
HETATM   13  C2  UNL     1      43.763  -7.566  30.991  1.00  0.00     0.076 C 
HETATM   14  C1  UNL     1      44.203  -8.972  30.687  1.00  0.00     0.032 C 
HETATM   15  C3  UNL     1      44.882  -6.879  31.716  1.00  0.00     0.032 C 
ENDBRANCH  11  13
ENDBRANCH   9  11
ENDBRANCH   7   9
ENDBRANCH   1   7
BRANCH   5  16
HETATM   16  C6  UNL     1      43.515  -3.278  27.448  1.00  0.00     0.086 C 
HETATM   17  C7  UNL     1      43.197  -1.814  27.678  1.00  0.00     0.025 C 
HETATM   18  C8  UNL     1      44.261  -1.150  26.825  1.00  0.00     0.002 C 
HETATM   19  C9  UNL     1      44.110  -1.940  25.518  1.00  0.00     0.002 C 
HETATM   20  C10 UNL     1      43.862  -3.378  25.981  1.00  0.00     0.025 C 
ENDBRANCH   5  16
TORSDOF 5
ENDMDL
