MODEL 1
REMARK VINA RESULT: -6.529075761      0.000      0.000
REMARK  5 active torsions:
REMARK  status: ('A' for Active; 'I' for Inactive)
REMARK       I    between atoms: N1_2  and  C2_4 
REMARK    1  A    between atoms: C2_4  and  C3_6 
REMARK    2  A    between atoms: C3_6  and  N2_7 
REMARK    3  A    between atoms: N2_7  and  C4_9 
REMARK    4  A    between atoms: C4_9  and  N3_11 
REMARK    5  A    between atoms: N3_11  and  N4_13 
REMARK       I    between atoms: N4_13  and  C5_15 
REMARK       I    between atoms: C5_15  and  N5_17 
ROOT
HETATM    1  N3  UNL     1       9.013   5.517  22.342  1.00  0.00    -0.272 N 
ATOM      2  H3  UNL     1       8.339   5.710  21.602  1.00  0.00     0.189 HD
ENDROOT
BRANCH   1   3
HETATM    3  C4  UNL     1       9.721   6.571  22.950  1.00  0.00     0.186 C 
HETATM    4  S1  UNL     1       8.971   7.893  23.469  1.00  0.00    -0.040 SA
BRANCH   3   5
HETATM    5  N2  UNL     1      11.134   6.443  23.098  1.00  0.00    -0.357 N 
ATOM      6  H2  UNL     1      11.589   5.530  23.059  1.00  0.00     0.162 HD
BRANCH   5   7
HETATM    7  C3  UNL     1      11.897   7.646  23.302  1.00  0.00     0.224 C 
BRANCH   7   8
HETATM    8  C2  UNL     1      12.428   8.164  22.056  1.00  0.00     0.234 C 
HETATM    9  N1  UNL     1      12.394   9.511  21.615  1.00  0.00    -0.364 N 
HETATM   10  C1  UNL     1      12.992   9.836  20.306  1.00  0.00     0.149 C 
ATOM     11  H1  UNL     1      11.965  10.238  22.189  1.00  0.00     0.161 HD
HETATM   12  O1  UNL     1      12.992   7.337  21.259  1.00  0.00    -0.272 OA
ENDBRANCH   7   8
ENDBRANCH   5   7
ENDBRANCH   3   5
ENDBRANCH   1   3
BRANCH   1  13
HETATM   13  N4  UNL     1       9.243   4.211  22.759  1.00  0.00    -0.249 N 
HETATM   14  C5  UNL     1       8.714   3.724  23.953  1.00  0.00     0.337 C 
HETATM   15  O2  UNL     1       7.998   4.415  24.760  1.00  0.00    -0.245 OA
HETATM   16  N5  UNL     1       8.974   2.351  24.325  1.00  0.00    -0.333 N 
HETATM   17  C6  UNL     1       9.757   1.446  23.506  1.00  0.00     0.127 C 
HETATM   18  C9  UNL     1       8.493   1.732  25.525  1.00  0.00     0.127 C 
HETATM   19  C7  UNL     1       9.243   0.087  23.944  1.00  0.00     0.022 C 
HETATM   20  C8  UNL     1       8.804   0.279  25.383  1.00  0.00     0.022 C 
ATOM     21  H4  UNL     1       9.811   3.596  22.177  1.00  0.00     0.192 HD
ENDBRANCH   1  13
TORSDOF 5
ENDMDL
MODEL 2
REMARK VINA RESULT: -6.521838124      2.653      4.329
REMARK  5 active torsions:
REMARK  status: ('A' for Active; 'I' for Inactive)
REMARK       I    between atoms: N1_2  and  C2_4 
REMARK    1  A    between atoms: C2_4  and  C3_6 
REMARK    2  A    between atoms: C3_6  and  N2_7 
REMARK    3  A    between atoms: N2_7  and  C4_9 
REMARK    4  A    between atoms: C4_9  and  N3_11 
REMARK    5  A    between atoms: N3_11  and  N4_13 
REMARK       I    between atoms: N4_13  and  C5_15 
REMARK       I    between atoms: C5_15  and  N5_17 
ROOT
HETATM    1  N3  UNL     1      10.446   5.216  23.532  1.00  0.00    -0.272 N 
ATOM      2  H3  UNL     1      11.458   5.338  23.567  1.00  0.00     0.189 HD
ENDROOT
BRANCH   1   3
HETATM    3  C4  UNL     1       9.635   6.189  22.921  1.00  0.00     0.186 C 
HETATM    4  S1  UNL     1      10.069   7.735  22.878  1.00  0.00    -0.040 SA
BRANCH   3   5
HETATM    5  N2  UNL     1       8.402   5.774  22.334  1.00  0.00    -0.357 N 
ATOM      6  H2  UNL     1       8.382   5.094  21.573  1.00  0.00     0.162 HD
BRANCH   5   7
HETATM    7  C3  UNL     1       7.188   6.347  22.851  1.00  0.00     0.224 C 
BRANCH   7   8
HETATM    8  C2  UNL     1       6.933   5.925  24.215  1.00  0.00     0.234 C 
HETATM    9  N1  UNL     1       6.780   6.763  25.348  1.00  0.00    -0.364 N 
HETATM   10  C1  UNL     1       6.524   6.134  26.658  1.00  0.00     0.149 C 
ATOM     11  H1  UNL     1       6.846   7.778  25.259  1.00  0.00     0.161 HD
HETATM   12  O1  UNL     1       6.829   4.669  24.440  1.00  0.00    -0.272 OA
ENDBRANCH   7   8
ENDBRANCH   5   7
ENDBRANCH   3   5
ENDBRANCH   1   3
BRANCH   1  13
HETATM   13  N4  UNL     1       9.857   4.087  24.088  1.00  0.00    -0.249 N 
HETATM   14  C5  UNL     1       9.891   2.853  23.439  1.00  0.00     0.337 C 
HETATM   15  O2  UNL     1      10.441   2.652  22.300  1.00  0.00    -0.245 OA
HETATM   16  N5  UNL     1       9.274   1.711  24.075  1.00  0.00    -0.333 N 
HETATM   17  C6  UNL     1       8.623   1.783  25.370  1.00  0.00     0.127 C 
HETATM   18  C9  UNL     1       9.237   0.393  23.513  1.00  0.00     0.127 C 
HETATM   19  C7  UNL     1       8.710   0.348  25.856  1.00  0.00     0.022 C 
HETATM   20  C8  UNL     1       8.714  -0.494  24.594  1.00  0.00     0.022 C 
ATOM     21  H4  UNL     1       9.389   4.163  24.991  1.00  0.00     0.192 HD
ENDBRANCH   1  13
TORSDOF 5
ENDMDL
MODEL 3
REMARK VINA RESULT: -6.493253402      2.816      4.304
REMARK  5 active torsions:
REMARK  status: ('A' for Active; 'I' for Inactive)
REMARK       I    between atoms: N1_2  and  C2_4 
REMARK    1  A    between atoms: C2_4  and  C3_6 
REMARK    2  A    between atoms: C3_6  and  N2_7 
REMARK    3  A    between atoms: N2_7  and  C4_9 
REMARK    4  A    between atoms: C4_9  and  N3_11 
REMARK    5  A    between atoms: N3_11  and  N4_13 
REMARK       I    between atoms: N4_13  and  C5_15 
REMARK       I    between atoms: C5_15  and  N5_17 
ROOT
HETATM    1  N3  UNL     1       8.978   5.523  22.347  1.00  0.00    -0.272 N 
ATOM      2  H3  UNL     1       8.481   5.690  21.473  1.00  0.00     0.189 HD
ENDROOT
BRANCH   1   3
HETATM    3  C4  UNL     1       9.400   6.606  23.141  1.00  0.00     0.186 C 
HETATM    4  S1  UNL     1      10.933   7.082  23.161  1.00  0.00    -0.040 SA
BRANCH   3   5
HETATM    5  N2  UNL     1       8.428   7.281  23.940  1.00  0.00    -0.357 N 
ATOM      6  H2  UNL     1       8.516   7.322  24.955  1.00  0.00     0.162 HD
BRANCH   5   7
HETATM    7  C3  UNL     1       7.321   7.902  23.263  1.00  0.00     0.224 C 
BRANCH   7   8
HETATM    8  C2  UNL     1       6.067   7.236  23.561  1.00  0.00     0.234 C 
HETATM    9  N1  UNL     1       5.831   6.295  24.594  1.00  0.00    -0.364 N 
HETATM   10  C1  UNL     1       4.476   5.729  24.732  1.00  0.00     0.149 C 
ATOM     11  H1  UNL     1       6.581   6.016  25.227  1.00  0.00     0.161 HD
HETATM   12  O1  UNL     1       5.055   7.516  22.828  1.00  0.00    -0.272 OA
ENDBRANCH   7   8
ENDBRANCH   5   7
ENDBRANCH   3   5
ENDBRANCH   1   3
BRANCH   1  13
HETATM   13  N4  UNL     1       9.244   4.225  22.766  1.00  0.00    -0.249 N 
HETATM   14  C5  UNL     1       8.702   3.713  23.943  1.00  0.00     0.337 C 
HETATM   15  O2  UNL     1       7.939   4.373  24.733  1.00  0.00    -0.245 OA
HETATM   16  N5  UNL     1       9.003   2.349  24.317  1.00  0.00    -0.333 N 
HETATM   17  C6  UNL     1       9.841   1.477  23.517  1.00  0.00     0.127 C 
HETATM   18  C9  UNL     1       8.512   1.707  25.501  1.00  0.00     0.127 C 
HETATM   19  C7  UNL     1       9.367   0.098  23.936  1.00  0.00     0.022 C 
HETATM   20  C8  UNL     1       8.882   0.268  25.364  1.00  0.00     0.022 C 
ATOM     21  H4  UNL     1       9.851   3.634  22.197  1.00  0.00     0.192 HD
ENDBRANCH   1  13
TORSDOF 5
ENDMDL
MODEL 4
REMARK VINA RESULT: -6.415467910      2.678      3.980
REMARK  5 active torsions:
REMARK  status: ('A' for Active; 'I' for Inactive)
REMARK       I    between atoms: N1_2  and  C2_4 
REMARK    1  A    between atoms: C2_4  and  C3_6 
REMARK    2  A    between atoms: C3_6  and  N2_7 
REMARK    3  A    between atoms: N2_7  and  C4_9 
REMARK    4  A    between atoms: C4_9  and  N3_11 
REMARK    5  A    between atoms: N3_11  and  N4_13 
REMARK       I    between atoms: N4_13  and  C5_15 
REMARK       I    between atoms: C5_15  and  N5_17 
ROOT
HETATM    1  N3  UNL     1       8.922   5.688  22.197  1.00  0.00    -0.272 N 
ATOM      2  H3  UNL     1       8.288   5.776  21.403  1.00  0.00     0.189 HD
ENDROOT
BRANCH   1   3
HETATM    3  C4  UNL     1       9.464   6.838  22.802  1.00  0.00     0.186 C 
HETATM    4  S1  UNL     1      10.970   6.859  23.359  1.00  0.00    -0.040 SA
BRANCH   3   5
HETATM    5  N2  UNL     1       8.640   7.997  22.915  1.00  0.00    -0.357 N 
ATOM      6  H2  UNL     1       8.743   8.782  22.271  1.00  0.00     0.162 HD
BRANCH   5   7
HETATM    7  C3  UNL     1       7.660   8.022  23.967  1.00  0.00     0.224 C 
BRANCH   7   8
HETATM    8  C2  UNL     1       6.313   7.876  23.451  1.00  0.00     0.234 C 
HETATM    9  N1  UNL     1       5.274   8.839  23.505  1.00  0.00    -0.364 N 
HETATM   10  C1  UNL     1       3.965   8.494  22.918  1.00  0.00     0.149 C 
ATOM     11  H1  UNL     1       5.428   9.749  23.940  1.00  0.00     0.161 HD
HETATM   12  O1  UNL     1       6.010   6.770  22.881  1.00  0.00    -0.272 OA
ENDBRANCH   7   8
ENDBRANCH   5   7
ENDBRANCH   3   5
ENDBRANCH   1   3
BRANCH   1  13
HETATM   13  N4  UNL     1       9.258   4.434  22.690  1.00  0.00    -0.249 N 
HETATM   14  C5  UNL     1       8.654   3.914  23.834  1.00  0.00     0.337 C 
HETATM   15  O2  UNL     1       7.767   4.529  24.523  1.00  0.00    -0.245 OA
HETATM   16  N5  UNL     1       9.034   2.596  24.289  1.00  0.00    -0.333 N 
HETATM   17  C6  UNL     1      10.015   1.776  23.604  1.00  0.00     0.127 C 
HETATM   18  C9  UNL     1       8.492   1.952  25.449  1.00  0.00     0.127 C 
HETATM   19  C7  UNL     1       9.624   0.375  24.035  1.00  0.00     0.022 C 
HETATM   20  C8  UNL     1       8.995   0.548  25.405  1.00  0.00     0.022 C 
ATOM     21  H4  UNL     1       9.964   3.880  22.203  1.00  0.00     0.192 HD
ENDBRANCH   1  13
TORSDOF 5
ENDMDL
MODEL 5
REMARK VINA RESULT: -6.359927753      1.498      7.572
REMARK  5 active torsions:
REMARK  status: ('A' for Active; 'I' for Inactive)
REMARK       I    between atoms: N1_2  and  C2_4 
REMARK    1  A    between atoms: C2_4  and  C3_6 
REMARK    2  A    between atoms: C3_6  and  N2_7 
REMARK    3  A    between atoms: N2_7  and  C4_9 
REMARK    4  A    between atoms: C4_9  and  N3_11 
REMARK    5  A    between atoms: N3_11  and  N4_13 
REMARK       I    between atoms: N4_13  and  C5_15 
REMARK       I    between atoms: C5_15  and  N5_17 
ROOT
HETATM    1  N3  UNL     1      10.579   5.561  23.427  1.00  0.00    -0.272 N 
ATOM      2  H3  UNL     1      11.230   5.065  24.035  1.00  0.00     0.189 HD
ENDROOT
BRANCH   1   3
HETATM    3  C4  UNL     1       9.360   4.962  23.055  1.00  0.00     0.186 C 
HETATM    4  S1  UNL     1       7.993   5.803  23.013  1.00  0.00    -0.040 SA
BRANCH   3   5
HETATM    5  N2  UNL     1       9.362   3.577  22.712  1.00  0.00    -0.357 N 
ATOM      6  H2  UNL     1       8.842   3.233  21.904  1.00  0.00     0.162 HD
BRANCH   5   7
HETATM    7  C3  UNL     1      10.123   2.683  23.543  1.00  0.00     0.224 C 
BRANCH   7   8
HETATM    8  C2  UNL     1       9.272   1.728  24.226  1.00  0.00     0.234 C 
HETATM    9  N1  UNL     1       9.395   0.316  24.205  1.00  0.00    -0.364 N 
HETATM   10  C1  UNL     1       8.421  -0.485  24.971  1.00  0.00     0.149 C 
ATOM     11  H1  UNL     1      10.140  -0.136  23.674  1.00  0.00     0.161 HD
HETATM   12  O1  UNL     1       8.303   2.186  24.926  1.00  0.00    -0.272 OA
ENDBRANCH   7   8
ENDBRANCH   5   7
ENDBRANCH   3   5
ENDBRANCH   1   3
BRANCH   1  13
HETATM   13  N4  UNL     1      10.886   6.832  22.958  1.00  0.00    -0.249 N 
HETATM   14  C5  UNL     1      12.189   7.186  22.611  1.00  0.00     0.337 C 
HETATM   15  O2  UNL     1      13.197   6.401  22.699  1.00  0.00    -0.245 OA
HETATM   16  N5  UNL     1      12.443   8.520  22.115  1.00  0.00    -0.333 N 
HETATM   17  C6  UNL     1      11.400   9.514  21.950  1.00  0.00     0.127 C 
HETATM   18  C9  UNL     1      13.735   9.008  21.729  1.00  0.00     0.127 C 
HETATM   19  C7  UNL     1      11.988  10.428  20.892  1.00  0.00     0.022 C 
HETATM   20  C8  UNL     1      13.490  10.329  21.079  1.00  0.00     0.022 C 
ATOM     21  H4  UNL     1      10.140   7.522  22.867  1.00  0.00     0.192 HD
ENDBRANCH   1  13
TORSDOF 5
ENDMDL
