MODEL 1
REMARK VINA RESULT: -6.387160995      0.000      0.000
REMARK  5 active torsions:
REMARK  status: ('A' for Active; 'I' for Inactive)
REMARK    1  A    between atoms: N1_1  and  N2_4 
REMARK    2  A    between atoms: N2_4  and  N3_6 
REMARK    3  A    between atoms: C1_8  and  C2_9 
REMARK    4  A    between atoms: C9_16  and  O1_17 
REMARK    5  A    between atoms: C11_20  and  O2_21 
ROOT
HETATM    1  C2  UNL     1       9.594   3.833  25.749  1.00  0.00     0.065 C 
HETATM    2  C3  UNL     1       9.606   4.885  26.835  1.00  0.00     0.006 C 
HETATM    3  C4  UNL     1       8.988   4.592  28.102  1.00  0.00     0.006 C 
HETATM    4  C5  UNL     1       7.550   4.595  28.349  1.00  0.00     0.004 C 
HETATM    5  C6  UNL     1       6.768   5.837  27.991  1.00  0.00     0.027 C 
HETATM    6  C7  UNL     1       6.665   5.775  26.481  1.00  0.00    -0.021 C 
HETATM    7  C8  UNL     1       7.680   5.894  25.668  1.00  0.00    -0.051 C 
HETATM    8  C9  UNL     1       7.386   5.804  24.206  1.00  0.00     0.150 C 
HETATM    9  C10 UNL     1       8.210   4.576  23.752  1.00  0.00     0.075 C 
HETATM   10  C11 UNL     1       9.544   4.543  24.415  1.00  0.00     0.070 C 
HETATM   11  C12 UNL     1       9.941   5.972  24.812  1.00  0.00     0.048 C 
HETATM   12  C13 UNL     1       9.104   6.099  26.070  1.00  0.00     0.024 C 
ENDROOT
BRANCH   1  13
HETATM   13  C1  UNL     1       8.578   2.799  25.928  1.00  0.00     0.089 C 
HETATM   14  N3  UNL     1       8.938   1.560  26.000  1.00  0.00    -0.301 N 
ATOM     15  H3  UNL     1       9.935   1.358  25.926  1.00  0.00     0.187 HD
BRANCH  14  16
HETATM   16  N2  UNL     1       8.088   0.489  26.169  1.00  0.00    -0.250 N 
ATOM     17  H2  UNL     1       7.089   0.579  25.984  1.00  0.00     0.207 HD
BRANCH  16  18
HETATM   18  N1  UNL     1       8.588  -0.626  26.566  1.00  0.00    -0.331 N 
ATOM     19  H12 UNL     1       9.568  -0.675  26.845  1.00  0.00     0.178 HD
ATOM     20  H11 UNL     1       7.981  -1.445  26.591  1.00  0.00     0.178 HD
ENDBRANCH  16  18
ENDBRANCH  14  16
ENDBRANCH   1  13
BRANCH  10  21
HETATM   21  O2  UNL     1      10.514   4.061  23.517  1.00  0.00    -0.389 OA
ATOM     22  H2  UNL     1      10.676   4.666  22.802  1.00  0.00     0.210 HD
ENDBRANCH  10  21
BRANCH   8  23
HETATM   23  O1  UNL     1       6.055   5.482  24.061  1.00  0.00    -0.391 OA
ATOM     24  H1  UNL     1       5.769   5.797  23.211  1.00  0.00     0.210 HD
ENDBRANCH   8  23
TORSDOF 5
ENDMDL
MODEL 2
REMARK VINA RESULT: -5.942474518      3.370      4.403
REMARK  5 active torsions:
REMARK  status: ('A' for Active; 'I' for Inactive)
REMARK    1  A    between atoms: N1_1  and  N2_4 
REMARK    2  A    between atoms: N2_4  and  N3_6 
REMARK    3  A    between atoms: C1_8  and  C2_9 
REMARK    4  A    between atoms: C9_16  and  O1_17 
REMARK    5  A    between atoms: C11_20  and  O2_21 
ROOT
HETATM    1  C2  UNL     1       8.731   6.715  23.886  1.00  0.00     0.065 C 
HETATM    2  C3  UNL     1       7.993   7.013  25.172  1.00  0.00     0.006 C 
HETATM    3  C4  UNL     1       8.707   7.617  26.267  1.00  0.00     0.006 C 
HETATM    4  C5  UNL     1       9.624   6.909  27.155  1.00  0.00     0.004 C 
HETATM    5  C6  UNL     1       9.121   5.671  27.859  1.00  0.00     0.027 C 
HETATM    6  C7  UNL     1       9.113   4.616  26.773  1.00  0.00    -0.021 C 
HETATM    7  C8  UNL     1       8.321   4.634  25.735  1.00  0.00    -0.051 C 
HETATM    8  C9  UNL     1       8.459   3.507  24.764  1.00  0.00     0.150 C 
HETATM    9  C10 UNL     1       8.860   4.216  23.449  1.00  0.00     0.075 C 
HETATM   10  C11 UNL     1       8.104   5.487  23.266  1.00  0.00     0.070 C 
HETATM   11  C12 UNL     1       6.778   5.396  24.034  1.00  0.00     0.048 C 
HETATM   12  C13 UNL     1       7.303   5.683  25.428  1.00  0.00     0.024 C 
ENDROOT
BRANCH   1  13
HETATM   13  C1  UNL     1      10.182   6.654  24.030  1.00  0.00     0.089 C 
HETATM   14  N3  UNL     1      10.928   6.708  22.975  1.00  0.00    -0.301 N 
ATOM     15  H3  UNL     1      10.458   6.792  22.074  1.00  0.00     0.187 HD
BRANCH  14  16
HETATM   16  N2  UNL     1      12.305   6.662  22.967  1.00  0.00    -0.250 N 
ATOM     17  H2  UNL     1      12.819   6.208  23.723  1.00  0.00     0.207 HD
BRANCH  16  18
HETATM   18  N1  UNL     1      12.924   7.206  21.981  1.00  0.00    -0.331 N 
ATOM     19  H12 UNL     1      12.923   8.220  21.876  1.00  0.00     0.178 HD
ATOM     20  H11 UNL     1      13.408   6.598  21.321  1.00  0.00     0.178 HD
ENDBRANCH  16  18
ENDBRANCH  14  16
ENDBRANCH   1  13
BRANCH  10  21
HETATM   21  O2  UNL     1       7.800   5.672  21.905  1.00  0.00    -0.389 OA
ATOM     22  H2  UNL     1       7.110   5.090  21.607  1.00  0.00     0.210 HD
ENDBRANCH  10  21
BRANCH   8  23
HETATM   23  O1  UNL     1       9.529   2.736  25.158  1.00  0.00    -0.391 OA
ATOM     24  H1  UNL     1      10.238   2.882  24.542  1.00  0.00     0.210 HD
ENDBRANCH   8  23
TORSDOF 5
ENDMDL
MODEL 3
REMARK VINA RESULT: -5.914038454      1.092      1.263
REMARK  5 active torsions:
REMARK  status: ('A' for Active; 'I' for Inactive)
REMARK    1  A    between atoms: N1_1  and  N2_4 
REMARK    2  A    between atoms: N2_4  and  N3_6 
REMARK    3  A    between atoms: C1_8  and  C2_9 
REMARK    4  A    between atoms: C9_16  and  O1_17 
REMARK    5  A    between atoms: C11_20  and  O2_21 
ROOT
HETATM    1  C2  UNL     1       9.712   4.786  25.381  1.00  0.00     0.065 C 
HETATM    2  C3  UNL     1       9.423   5.945  26.308  1.00  0.00     0.006 C 
HETATM    3  C4  UNL     1       8.523   5.751  27.415  1.00  0.00     0.006 C 
HETATM    4  C5  UNL     1       7.068   5.695  27.306  1.00  0.00     0.004 C 
HETATM    5  C6  UNL     1       6.359   6.843  26.628  1.00  0.00     0.027 C 
HETATM    6  C7  UNL     1       6.633   6.617  25.156  1.00  0.00    -0.021 C 
HETATM    7  C8  UNL     1       7.812   6.710  24.603  1.00  0.00    -0.051 C 
HETATM    8  C9  UNL     1       7.889   6.449  23.134  1.00  0.00     0.150 C 
HETATM    9  C10 UNL     1       8.838   5.231  23.038  1.00  0.00     0.075 C 
HETATM   10  C11 UNL     1       9.969   5.348  24.001  1.00  0.00     0.070 C 
HETATM   11  C12 UNL     1      10.210   6.831  24.313  1.00  0.00     0.048 C 
HETATM   12  C13 UNL     1       9.087   7.040  25.309  1.00  0.00     0.024 C 
ENDROOT
BRANCH   1  13
HETATM   13  C1  UNL     1       8.717   3.718  25.430  1.00  0.00     0.089 C 
HETATM   14  N3  UNL     1       9.044   2.566  25.916  1.00  0.00    -0.301 N 
ATOM     15  H3  UNL     1      10.002   2.454  26.249  1.00  0.00     0.187 HD
BRANCH  14  16
HETATM   16  N2  UNL     1       8.208   1.477  26.023  1.00  0.00    -0.250 N 
ATOM     17  H2  UNL     1       7.197   1.580  25.921  1.00  0.00     0.207 HD
BRANCH  16  18
HETATM   18  N1  UNL     1       8.734   0.327  26.254  1.00  0.00    -0.331 N 
ATOM     19  H12 UNL     1       8.420  -0.226  27.051  1.00  0.00     0.178 HD
ATOM     20  H11 UNL     1       9.463  -0.004  25.622  1.00  0.00     0.178 HD
ENDBRANCH  16  18
ENDBRANCH  14  16
ENDBRANCH   1  13
BRANCH  10  21
HETATM   21  O2  UNL     1      11.145   4.832  23.425  1.00  0.00    -0.389 OA
ATOM     22  H2  UNL     1      11.006   3.983  23.022  1.00  0.00     0.210 HD
ENDBRANCH  10  21
BRANCH   8  23
HETATM   23  O1  UNL     1       6.646   6.036  22.711  1.00  0.00    -0.391 OA
ATOM     24  H1  UNL     1       6.458   5.201  23.125  1.00  0.00     0.210 HD
ENDBRANCH   8  23
TORSDOF 5
ENDMDL
MODEL 4
REMARK VINA RESULT: -5.894879422      2.419      2.947
REMARK  5 active torsions:
REMARK  status: ('A' for Active; 'I' for Inactive)
REMARK    1  A    between atoms: N1_1  and  N2_4 
REMARK    2  A    between atoms: N2_4  and  N3_6 
REMARK    3  A    between atoms: C1_8  and  C2_9 
REMARK    4  A    between atoms: C9_16  and  O1_17 
REMARK    5  A    between atoms: C11_20  and  O2_21 
ROOT
HETATM    1  C2  UNL     1      10.270   6.338  24.180  1.00  0.00     0.065 C 
HETATM    2  C3  UNL     1       9.834   6.841  25.538  1.00  0.00     0.006 C 
HETATM    3  C4  UNL     1       9.554   5.889  26.582  1.00  0.00     0.006 C 
HETATM    4  C5  UNL     1       8.338   5.088  26.675  1.00  0.00     0.004 C 
HETATM    5  C6  UNL     1       7.008   5.806  26.651  1.00  0.00     0.027 C 
HETATM    6  C7  UNL     1       6.831   6.187  25.196  1.00  0.00    -0.021 C 
HETATM    7  C8  UNL     1       7.577   7.054  24.566  1.00  0.00    -0.051 C 
HETATM    8  C9  UNL     1       7.253   7.301  23.128  1.00  0.00     0.150 C 
HETATM    9  C10 UNL     1       8.546   6.876  22.394  1.00  0.00     0.075 C 
HETATM   10  C11 UNL     1       9.761   7.310  23.140  1.00  0.00     0.070 C 
HETATM   11  C12 UNL     1       9.410   8.529  24.003  1.00  0.00     0.048 C 
HETATM   12  C13 UNL     1       8.728   7.807  25.149  1.00  0.00     0.024 C 
ENDROOT
BRANCH   1  13
HETATM   13  C1  UNL     1       9.937   4.939  23.925  1.00  0.00     0.089 C 
HETATM   14  N3  UNL     1      10.843   4.145  23.457  1.00  0.00    -0.301 N 
ATOM     15  H3  UNL     1      11.767   4.541  23.285  1.00  0.00     0.187 HD
BRANCH  14  16
HETATM   16  N2  UNL     1      10.665   2.809  23.173  1.00  0.00    -0.250 N 
ATOM     17  H2  UNL     1      11.161   2.090  23.702  1.00  0.00     0.207 HD
BRANCH  16  18
HETATM   18  N1  UNL     1       9.860   2.492  22.224  1.00  0.00    -0.331 N 
ATOM     19  H12 UNL     1       8.994   3.015  22.094  1.00  0.00     0.178 HD
ATOM     20  H11 UNL     1      10.114   1.713  21.616  1.00  0.00     0.178 HD
ENDBRANCH  16  18
ENDBRANCH  14  16
ENDBRANCH   1  13
BRANCH  10  21
HETATM   21  O2  UNL     1      10.766   7.699  22.235  1.00  0.00    -0.389 OA
ATOM     22  H2  UNL     1      11.519   8.079  22.673  1.00  0.00     0.210 HD
ENDBRANCH  10  21
BRANCH   8  23
HETATM   23  O1  UNL     1       6.262   6.419  22.759  1.00  0.00    -0.391 OA
ATOM     24  H1  UNL     1       5.586   6.443  23.427  1.00  0.00     0.210 HD
ENDBRANCH   8  23
TORSDOF 5
ENDMDL
MODEL 5
REMARK VINA RESULT: -5.885182348      3.163      4.489
REMARK  5 active torsions:
REMARK  status: ('A' for Active; 'I' for Inactive)
REMARK    1  A    between atoms: N1_1  and  N2_4 
REMARK    2  A    between atoms: N2_4  and  N3_6 
REMARK    3  A    between atoms: C1_8  and  C2_9 
REMARK    4  A    between atoms: C9_16  and  O1_17 
REMARK    5  A    between atoms: C11_20  and  O2_21 
ROOT
HETATM    1  C2  UNL     1       7.487   5.435  25.902  1.00  0.00     0.065 C 
HETATM    2  C3  UNL     1       8.462   6.590  25.943  1.00  0.00     0.006 C 
HETATM    3  C4  UNL     1       8.133   7.810  25.253  1.00  0.00     0.006 C 
HETATM    4  C5  UNL     1       8.226   8.004  23.810  1.00  0.00     0.004 C 
HETATM    5  C6  UNL     1       9.543   7.702  23.134  1.00  0.00     0.027 C 
HETATM    6  C7  UNL     1       9.588   6.189  23.091  1.00  0.00    -0.021 C 
HETATM    7  C8  UNL     1       9.685   5.425  24.145  1.00  0.00    -0.051 C 
HETATM    8  C9  UNL     1       9.712   3.950  23.907  1.00  0.00     0.150 C 
HETATM    9  C10 UNL     1       8.460   3.444  24.660  1.00  0.00     0.075 C 
HETATM   10  C11 UNL     1       8.286   4.152  25.959  1.00  0.00     0.070 C 
HETATM   11  C12 UNL     1       9.652   4.660  26.440  1.00  0.00     0.048 C 
HETATM   12  C13 UNL     1       9.758   5.892  25.562  1.00  0.00     0.024 C 
ENDROOT
BRANCH   1  13
HETATM   13  C1  UNL     1       6.522   5.505  24.809  1.00  0.00     0.089 C 
HETATM   14  N3  UNL     1       5.291   5.804  25.066  1.00  0.00    -0.301 N 
ATOM     15  H3  UNL     1       5.047   5.980  26.041  1.00  0.00     0.187 HD
BRANCH  14  16
HETATM   16  N2  UNL     1       4.281   5.906  24.135  1.00  0.00    -0.250 N 
ATOM     17  H2  UNL     1       3.617   5.143  23.996  1.00  0.00     0.207 HD
BRANCH  16  18
HETATM   18  N1  UNL     1       4.198   6.987  23.445  1.00  0.00    -0.331 N 
ATOM     19  H12 UNL     1       5.042   7.413  23.061  1.00  0.00     0.178 HD
ATOM     20  H11 UNL     1       3.275   7.395  23.297  1.00  0.00     0.178 HD
ENDBRANCH  16  18
ENDBRANCH  14  16
ENDBRANCH   1  13
BRANCH  10  21
HETATM   21  O2  UNL     1       7.793   3.260  26.929  1.00  0.00    -0.389 OA
ATOM     22  H2  UNL     1       8.401   2.552  27.110  1.00  0.00     0.210 HD
ENDBRANCH  10  21
BRANCH   8  23
HETATM   23  O1  UNL     1       9.500   3.734  22.564  1.00  0.00    -0.391 OA
ATOM     24  H1  UNL     1      10.216   3.201  22.237  1.00  0.00     0.210 HD
ENDBRANCH   8  23
TORSDOF 5
ENDMDL
