MODEL 1
REMARK VINA RESULT: -5.138887779      0.000      0.000
REMARK  6 active torsions:
REMARK  status: ('A' for Active; 'I' for Inactive)
REMARK    1  A    between atoms: C2_2  and  N1_3 
REMARK    2  A    between atoms: N1_3  and  C3_5 
REMARK    3  A    between atoms: C3_5  and  N2_7 
REMARK    4  A    between atoms: N2_7  and  N3_9 
REMARK       I    between atoms: N3_9  and  C4_11 
REMARK       I    between atoms: C4_11  and  N6_19 
REMARK    5  A    between atoms: N4_12  and  C5_14 
REMARK    6  A    between atoms: C5_14  and  N5_16 
ROOT
HETATM    1  N3  UNL     1       7.787   3.885  24.963  1.00  0.00    -0.130 N 
ATOM      2  H3  UNL     1       6.882   3.458  24.762  1.00  0.00     0.205 HD
HETATM    3  C4  UNL     1       8.372   3.629  26.215  1.00  0.00     0.696 C 
HETATM    4  N4  UNL     1       8.876   2.480  26.493  1.00  0.00    -0.165 N 
ATOM      5  H4  UNL     1       9.288   2.356  27.419  1.00  0.00     0.186 HD
HETATM    6  N6  UNL     1       8.451   4.601  27.253  1.00  0.00    -0.225 N 
HETATM    7  C7  UNL     1       9.678   4.929  27.957  1.00  0.00     0.168 C 
HETATM    8  C8  UNL     1       7.264   5.333  27.666  1.00  0.00     0.168 C 
ENDROOT
BRANCH   1   9
HETATM    9  N2  UNL     1       8.368   4.687  23.975  1.00  0.00    -0.262 N 
ATOM     10  H2  UNL     1       9.191   4.348  23.476  1.00  0.00     0.190 HD
BRANCH   9  11
HETATM   11  C3  UNL     1       7.841   5.954  23.654  1.00  0.00     0.186 C 
HETATM   12  S1  UNL     1       8.538   6.847  22.488  1.00  0.00    -0.040 SA
BRANCH  11  13
HETATM   13  N1  UNL     1       6.714   6.463  24.330  1.00  0.00    -0.366 N 
ATOM     14  H1  UNL     1       6.838   6.848  25.267  1.00  0.00     0.161 HD
BRANCH  13  15
HETATM   15  C2  UNL     1       5.391   6.462  23.749  1.00  0.00     0.117 C 
HETATM   16  C1  UNL     1       4.412   5.698  24.617  1.00  0.00     0.026 C 
ENDBRANCH  13  15
ENDBRANCH  11  13
ENDBRANCH   9  11
ENDBRANCH   1   9
BRANCH   4  17
HETATM   17  C5  UNL     1       8.902   1.379  25.613  1.00  0.00     0.186 C 
HETATM   18  S2  UNL     1       9.709   1.331  24.213  1.00  0.00    -0.040 SA
BRANCH  17  19
HETATM   19  N5  UNL     1       8.143   0.225  26.019  1.00  0.00    -0.371 N 
HETATM   20  C6  UNL     1       8.152  -0.954  25.195  1.00  0.00     0.148 C 
ATOM     21  H5  UNL     1       7.603   0.242  26.885  1.00  0.00     0.161 HD
ENDBRANCH  17  19
ENDBRANCH   4  17
TORSDOF 6
ENDMDL
MODEL 2
REMARK VINA RESULT: -5.120804215      1.321      5.115
REMARK  6 active torsions:
REMARK  status: ('A' for Active; 'I' for Inactive)
REMARK    1  A    between atoms: C2_2  and  N1_3 
REMARK    2  A    between atoms: N1_3  and  C3_5 
REMARK    3  A    between atoms: C3_5  and  N2_7 
REMARK    4  A    between atoms: N2_7  and  N3_9 
REMARK       I    between atoms: N3_9  and  C4_11 
REMARK       I    between atoms: C4_11  and  N6_19 
REMARK    5  A    between atoms: N4_12  and  C5_14 
REMARK    6  A    between atoms: C5_14  and  N5_16 
ROOT
HETATM    1  N3  UNL     1       8.353   3.987  26.021  1.00  0.00    -0.130 N 
ATOM      2  H3  UNL     1       9.044   4.218  25.306  1.00  0.00     0.205 HD
HETATM    3  C4  UNL     1       7.731   5.046  26.704  1.00  0.00     0.696 C 
HETATM    4  N4  UNL     1       6.855   5.788  26.126  1.00  0.00    -0.165 N 
ATOM      5  H4  UNL     1       6.438   6.541  26.674  1.00  0.00     0.186 HD
HETATM    6  N6  UNL     1       8.017   5.377  28.059  1.00  0.00    -0.225 N 
HETATM    7  C7  UNL     1       6.996   5.552  29.077  1.00  0.00     0.168 C 
HETATM    8  C8  UNL     1       9.392   5.557  28.497  1.00  0.00     0.168 C 
ENDROOT
BRANCH   1   9
HETATM    9  N2  UNL     1       8.084   2.635  26.260  1.00  0.00    -0.262 N 
ATOM     10  H2  UNL     1       7.385   2.381  26.959  1.00  0.00     0.190 HD
BRANCH   9  11
HETATM   11  C3  UNL     1       8.757   1.616  25.556  1.00  0.00     0.186 C 
HETATM   12  S1  UNL     1       9.454   1.948  24.126  1.00  0.00    -0.040 SA
BRANCH  11  13
HETATM   13  N1  UNL     1       8.835   0.308  26.074  1.00  0.00    -0.366 N 
ATOM     14  H1  UNL     1       9.387   0.146  26.917  1.00  0.00     0.161 HD
BRANCH  13  15
HETATM   15  C2  UNL     1       8.162  -0.814  25.459  1.00  0.00     0.117 C 
HETATM   16  C1  UNL     1       6.970  -1.257  26.282  1.00  0.00     0.026 C 
ENDBRANCH  13  15
ENDBRANCH  11  13
ENDBRANCH   9  11
ENDBRANCH   1   9
BRANCH   4  17
HETATM   17  C5  UNL     1       6.427   5.637  24.791  1.00  0.00     0.186 C 
HETATM   18  S2  UNL     1       7.367   5.834  23.490  1.00  0.00    -0.040 SA
BRANCH  17  19
HETATM   19  N5  UNL     1       5.045   5.281  24.604  1.00  0.00    -0.371 N 
HETATM   20  C6  UNL     1       4.016   6.203  25.004  1.00  0.00     0.148 C 
ATOM     21  H5  UNL     1       4.796   4.382  24.191  1.00  0.00     0.161 HD
ENDBRANCH  17  19
ENDBRANCH   4  17
TORSDOF 6
ENDMDL
MODEL 3
REMARK VINA RESULT: -5.106353704      1.451      2.088
REMARK  6 active torsions:
REMARK  status: ('A' for Active; 'I' for Inactive)
REMARK    1  A    between atoms: C2_2  and  N1_3 
REMARK    2  A    between atoms: N1_3  and  C3_5 
REMARK    3  A    between atoms: C3_5  and  N2_7 
REMARK    4  A    between atoms: N2_7  and  N3_9 
REMARK       I    between atoms: N3_9  and  C4_11 
REMARK       I    between atoms: C4_11  and  N6_19 
REMARK    5  A    between atoms: N4_12  and  C5_14 
REMARK    6  A    between atoms: C5_14  and  N5_16 
ROOT
HETATM    1  N3  UNL     1       7.830   3.759  24.965  1.00  0.00    -0.130 N 
ATOM      2  H3  UNL     1       6.921   3.339  24.770  1.00  0.00     0.205 HD
HETATM    3  C4  UNL     1       8.419   3.506  26.217  1.00  0.00     0.696 C 
HETATM    4  N4  UNL     1       8.914   2.354  26.499  1.00  0.00    -0.165 N 
ATOM      5  H4  UNL     1       9.329   2.231  27.423  1.00  0.00     0.186 HD
HETATM    6  N6  UNL     1       8.509   4.482  27.249  1.00  0.00    -0.225 N 
HETATM    7  C7  UNL     1       9.741   4.804  27.946  1.00  0.00     0.168 C 
HETATM    8  C8  UNL     1       7.330   5.225  27.663  1.00  0.00     0.168 C 
ENDROOT
BRANCH   1   9
HETATM    9  N2  UNL     1       8.413   4.552  23.971  1.00  0.00    -0.262 N 
ATOM     10  H2  UNL     1       9.382   4.380  23.699  1.00  0.00     0.190 HD
BRANCH   9  11
HETATM   11  C3  UNL     1       7.693   5.584  23.337  1.00  0.00     0.186 C 
HETATM   12  S1  UNL     1       6.258   6.055  23.940  1.00  0.00    -0.040 SA
BRANCH  11  13
HETATM   13  N1  UNL     1       8.197   6.218  22.185  1.00  0.00    -0.366 N 
ATOM     14  H1  UNL     1       8.179   5.711  21.299  1.00  0.00     0.161 HD
BRANCH  13  15
HETATM   15  C2  UNL     1       8.739   7.558  22.207  1.00  0.00     0.117 C 
HETATM   16  C1  UNL     1      10.143   7.572  22.776  1.00  0.00     0.026 C 
ENDBRANCH  13  15
ENDBRANCH  11  13
ENDBRANCH   9  11
ENDBRANCH   1   9
BRANCH   4  17
HETATM   17  C5  UNL     1       8.928   1.248  25.625  1.00  0.00     0.186 C 
HETATM   18  S2  UNL     1       9.733   1.185  24.224  1.00  0.00    -0.040 SA
BRANCH  17  19
HETATM   19  N5  UNL     1       8.156   0.104  26.037  1.00  0.00    -0.371 N 
HETATM   20  C6  UNL     1       8.126  -1.066  25.202  1.00  0.00     0.148 C 
ATOM     21  H5  UNL     1       7.635   0.124  26.913  1.00  0.00     0.161 HD
ENDBRANCH  17  19
ENDBRANCH   4  17
TORSDOF 6
ENDMDL
MODEL 4
REMARK VINA RESULT: -5.101403822      2.386      3.427
REMARK  6 active torsions:
REMARK  status: ('A' for Active; 'I' for Inactive)
REMARK    1  A    between atoms: C2_2  and  N1_3 
REMARK    2  A    between atoms: N1_3  and  C3_5 
REMARK    3  A    between atoms: C3_5  and  N2_7 
REMARK    4  A    between atoms: N2_7  and  N3_9 
REMARK       I    between atoms: N3_9  and  C4_11 
REMARK       I    between atoms: C4_11  and  N6_19 
REMARK    5  A    between atoms: N4_12  and  C5_14 
REMARK    6  A    between atoms: C5_14  and  N5_16 
ROOT
HETATM    1  N3  UNL     1       7.679   4.693  23.941  1.00  0.00    -0.130 N 
ATOM      2  H3  UNL     1       6.900   4.036  23.902  1.00  0.00     0.205 HD
HETATM    3  C4  UNL     1       8.335   4.866  25.173  1.00  0.00     0.696 C 
HETATM    4  N4  UNL     1       9.107   3.956  25.650  1.00  0.00    -0.165 N 
ATOM      5  H4  UNL     1       9.555   4.140  26.548  1.00  0.00     0.186 HD
HETATM    6  N6  UNL     1       8.199   6.037  25.973  1.00  0.00    -0.225 N 
HETATM    7  C7  UNL     1       9.325   6.787  26.498  1.00  0.00     0.168 C 
HETATM    8  C8  UNL     1       6.880   6.548  26.308  1.00  0.00     0.168 C 
ENDROOT
BRANCH   1   9
HETATM    9  N2  UNL     1       8.028   5.367  22.766  1.00  0.00    -0.262 N 
ATOM     10  H2  UNL     1       7.568   5.116  21.890  1.00  0.00     0.190 HD
BRANCH   9  11
HETATM   11  C3  UNL     1       9.003   6.385  22.765  1.00  0.00     0.186 C 
HETATM   12  S1  UNL     1       8.542   7.944  22.765  1.00  0.00    -0.040 SA
BRANCH  11  13
HETATM   13  N1  UNL     1      10.377   6.073  22.763  1.00  0.00    -0.366 N 
ATOM     14  H1  UNL     1      10.698   5.277  22.211  1.00  0.00     0.161 HD
BRANCH  13  15
HETATM   15  C2  UNL     1      11.349   6.836  23.513  1.00  0.00     0.117 C 
HETATM   16  C1  UNL     1      12.353   7.499  22.592  1.00  0.00     0.026 C 
ENDBRANCH  13  15
ENDBRANCH  11  13
ENDBRANCH   9  11
ENDBRANCH   1   9
BRANCH   4  17
HETATM   17  C5  UNL     1       9.378   2.723  25.024  1.00  0.00     0.186 C 
HETATM   18  S2  UNL     1       8.748   1.301  25.467  1.00  0.00    -0.040 SA
BRANCH  17  19
HETATM   19  N5  UNL     1      10.290   2.763  23.910  1.00  0.00    -0.371 N 
HETATM   20  C6  UNL     1       9.883   2.218  22.643  1.00  0.00     0.148 C 
ATOM     21  H5  UNL     1      11.216   3.176  24.018  1.00  0.00     0.161 HD
ENDBRANCH  17  19
ENDBRANCH   4  17
TORSDOF 6
ENDMDL
MODEL 5
REMARK VINA RESULT: -5.096686626      2.911      4.752
REMARK  6 active torsions:
REMARK  status: ('A' for Active; 'I' for Inactive)
REMARK    1  A    between atoms: C2_2  and  N1_3 
REMARK    2  A    between atoms: N1_3  and  C3_5 
REMARK    3  A    between atoms: C3_5  and  N2_7 
REMARK    4  A    between atoms: N2_7  and  N3_9 
REMARK       I    between atoms: N3_9  and  C4_11 
REMARK       I    between atoms: C4_11  and  N6_19 
REMARK    5  A    between atoms: N4_12  and  C5_14 
REMARK    6  A    between atoms: C5_14  and  N5_16 
ROOT
HETATM    1  N3  UNL     1       9.067   5.200  22.382  1.00  0.00    -0.130 N 
ATOM      2  H3  UNL     1       9.595   5.311  21.516  1.00  0.00     0.205 HD
HETATM    3  C4  UNL     1       9.739   4.678  23.501  1.00  0.00     0.696 C 
HETATM    4  N4  UNL     1      10.607   5.376  24.143  1.00  0.00    -0.165 N 
ATOM      5  H4  UNL     1      11.061   4.942  24.947  1.00  0.00     0.186 HD
HETATM    6  N6  UNL     1       9.519   3.362  24.000  1.00  0.00    -0.225 N 
HETATM    7  C7  UNL     1       9.229   3.069  25.392  1.00  0.00     0.168 C 
HETATM    8  C8  UNL     1       9.576   2.218  23.105  1.00  0.00     0.168 C 
ENDROOT
BRANCH   1   9
HETATM    9  N2  UNL     1       7.720   5.578  22.383  1.00  0.00    -0.262 N 
ATOM     10  H2  UNL     1       7.123   5.303  21.602  1.00  0.00     0.190 HD
BRANCH   9  11
HETATM   11  C3  UNL     1       7.169   6.331  23.440  1.00  0.00     0.186 C 
HETATM   12  S1  UNL     1       7.059   7.948  23.307  1.00  0.00    -0.040 SA
BRANCH  11  13
HETATM   13  N1  UNL     1       6.710   5.703  24.614  1.00  0.00    -0.366 N 
ATOM     14  H1  UNL     1       7.200   4.873  24.950  1.00  0.00     0.161 HD
BRANCH  13  15
HETATM   15  C2  UNL     1       5.574   6.190  25.364  1.00  0.00     0.117 C 
HETATM   16  C1  UNL     1       4.270   5.766  24.720  1.00  0.00     0.026 C 
ENDBRANCH  13  15
ENDBRANCH  11  13
ENDBRANCH   9  11
ENDBRANCH   1   9
BRANCH   4  17
HETATM   17  C5  UNL     1      10.977   6.696  23.818  1.00  0.00     0.186 C 
HETATM   18  S2  UNL     1      10.472   8.019  24.599  1.00  0.00    -0.040 SA
BRANCH  17  19
HETATM   19  N5  UNL     1      11.873   6.847  22.700  1.00  0.00    -0.371 N 
HETATM   20  C6  UNL     1      13.094   7.588  22.868  1.00  0.00     0.148 C 
ATOM     21  H5  UNL     1      11.643   6.433  21.797  1.00  0.00     0.161 HD
ENDBRANCH  17  19
ENDBRANCH   4  17
TORSDOF 6
ENDMDL
