MODEL 1
REMARK VINA RESULT: -6.162588774      0.000      0.000
REMARK  5 active torsions:
REMARK  status: ('A' for Active; 'I' for Inactive)
REMARK    1  A    between atoms: N1_2  and  C2_3 
REMARK    2  A    between atoms: C2_3  and  C3_4 
REMARK    3  A    between atoms: C4_5  and  C5_6 
REMARK    4  A    between atoms: C6_7  and  C7_8 
REMARK    5  A    between atoms: C7_8  and  N2_9 
ROOT
HETATM    1  C2  UNL     1      12.511   8.777  22.136  1.00  0.00     0.388 C 
ENDROOT
BRANCH   1   2
HETATM    2  N1  UNL     1      13.919   8.464  22.260  1.00  0.00     0.110 N 
HETATM    3  C1  UNL     1      14.291   7.143  21.821  1.00  0.00     0.335 C 
HETATM    4  N3  UNL     1      14.663   9.421  21.564  1.00  0.00    -0.164 N 
HETATM    5  C13 UNL     1      15.535   9.506  22.663  1.00  0.00     0.222 C 
ATOM      6  H3  UNL     1      14.600   9.867  20.649  1.00  0.00     0.199 HD
HETATM    7  N4  UNL     1      16.703   9.963  22.889  1.00  0.00    -0.369 N 
HETATM    8  N5  UNL     1      14.535   8.854  23.420  1.00  0.00    -0.164 N 
ATOM      9  H42 UNL     1      17.425  10.434  22.343  1.00  0.00     0.159 HD
ATOM     10  H41 UNL     1      17.336  10.025  23.687  1.00  0.00     0.159 HD
ATOM     11  H5  UNL     1      14.349   8.727  24.415  1.00  0.00     0.199 HD
ENDBRANCH   1   2
BRANCH   1  12
HETATM   12  C3  UNL     1      11.759   7.794  22.914  1.00  0.00    -0.060 C 
HETATM   13  C4  UNL     1      11.140   6.961  23.551  1.00  0.00    -0.013 C 
BRANCH  13  14
HETATM   14  C5  UNL     1      10.436   5.973  24.281  1.00  0.00    -0.013 C 
HETATM   15  C6  UNL     1       9.847   5.114  24.917  1.00  0.00    -0.073 C 
BRANCH  15  16
HETATM   16  C7  UNL     1       9.161   4.075  25.683  1.00  0.00     0.212 C 
BRANCH  16  17
HETATM   17  N2  UNL     1       9.187   2.831  24.987  1.00  0.00    -0.402 N 
HETATM   18  C8  UNL     1       8.984   2.962  23.578  1.00  0.00     0.117 C 
HETATM   19  C9  UNL     1       9.618   1.753  22.918  1.00  0.00     0.019 C 
HETATM   20  C10 UNL     1      10.035   0.726  23.917  1.00  0.00     0.003 C 
HETATM   21  C11 UNL     1       8.890   0.472  24.879  1.00  0.00     0.019 C 
HETATM   22  C12 UNL     1       8.487   1.752  25.605  1.00  0.00     0.117 C 
ENDBRANCH  16  17
ENDBRANCH  15  16
ENDBRANCH  13  14
ENDBRANCH   1  12
TORSDOF 5
ENDMDL
MODEL 2
REMARK VINA RESULT: -6.096925952      5.395      7.427
REMARK  5 active torsions:
REMARK  status: ('A' for Active; 'I' for Inactive)
REMARK    1  A    between atoms: N1_2  and  C2_3 
REMARK    2  A    between atoms: C2_3  and  C3_4 
REMARK    3  A    between atoms: C4_5  and  C5_6 
REMARK    4  A    between atoms: C6_7  and  C7_8 
REMARK    5  A    between atoms: C7_8  and  N2_9 
ROOT
HETATM    1  C2  UNL     1       3.845   7.904  25.318  1.00  0.00     0.388 C 
ENDROOT
BRANCH   1   2
HETATM    2  N1  UNL     1       3.963   8.681  24.101  1.00  0.00     0.110 N 
HETATM    3  C1  UNL     1       5.057   9.618  24.080  1.00  0.00     0.335 C 
HETATM    4  N3  UNL     1       4.064   7.810  23.012  1.00  0.00    -0.164 N 
HETATM    5  C13 UNL     1       3.127   8.599  22.325  1.00  0.00     0.222 C 
ATOM      6  H3  UNL     1       4.594   6.963  22.805  1.00  0.00     0.199 HD
HETATM    7  N4  UNL     1       2.736   8.741  21.120  1.00  0.00    -0.369 N 
HETATM    8  N5  UNL     1       2.799   9.176  23.574  1.00  0.00    -0.164 N 
ATOM      9  H42 UNL     1       2.972   8.325  20.219  1.00  0.00     0.159 HD
ATOM     10  H41 UNL     1       2.055   9.314  20.621  1.00  0.00     0.159 HD
ATOM     11  H5  UNL     1       2.022   9.730  23.932  1.00  0.00     0.199 HD
ENDBRANCH   1   2
BRANCH   1  12
HETATM   12  C3  UNL     1       5.036   7.066  25.436  1.00  0.00    -0.060 C 
HETATM   13  C4  UNL     1       6.038   6.380  25.523  1.00  0.00    -0.013 C 
BRANCH  13  14
HETATM   14  C5  UNL     1       7.219   5.603  25.613  1.00  0.00    -0.013 C 
HETATM   15  C6  UNL     1       8.247   4.950  25.694  1.00  0.00    -0.073 C 
BRANCH  15  16
HETATM   16  C7  UNL     1       9.490   4.187  25.793  1.00  0.00     0.212 C 
BRANCH  16  17
HETATM   17  N2  UNL     1       9.398   2.971  25.053  1.00  0.00    -0.402 N 
HETATM   18  C8  UNL     1       9.238   3.170  23.646  1.00  0.00     0.117 C 
HETATM   19  C9  UNL     1       9.754   1.924  22.953  1.00  0.00     0.019 C 
HETATM   20  C10 UNL     1      10.040   0.826  23.922  1.00  0.00     0.003 C 
HETATM   21  C11 UNL     1       8.855   0.662  24.856  1.00  0.00     0.019 C 
HETATM   22  C12 UNL     1       8.576   1.952  25.621  1.00  0.00     0.117 C 
ENDBRANCH  16  17
ENDBRANCH  15  16
ENDBRANCH  13  14
ENDBRANCH   1  12
TORSDOF 5
ENDMDL
MODEL 3
REMARK VINA RESULT: -6.022718505      1.398      2.206
REMARK  5 active torsions:
REMARK  status: ('A' for Active; 'I' for Inactive)
REMARK    1  A    between atoms: N1_2  and  C2_3 
REMARK    2  A    between atoms: C2_3  and  C3_4 
REMARK    3  A    between atoms: C4_5  and  C5_6 
REMARK    4  A    between atoms: C6_7  and  C7_8 
REMARK    5  A    between atoms: C7_8  and  N2_9 
ROOT
HETATM    1  C2  UNL     1      14.215   8.218  22.910  1.00  0.00     0.388 C 
ENDROOT
BRANCH   1   2
HETATM    2  N1  UNL     1      13.869   9.456  22.241  1.00  0.00     0.110 N 
HETATM    3  C1  UNL     1      13.301  10.470  23.093  1.00  0.00     0.335 C 
HETATM    4  N3  UNL     1      15.003   9.959  21.597  1.00  0.00    -0.164 N 
HETATM    5  C13 UNL     1      14.216  10.206  20.460  1.00  0.00     0.222 C 
ATOM      6  H3  UNL     1      15.983  10.091  21.847  1.00  0.00     0.199 HD
HETATM    7  N4  UNL     1      14.317  10.894  19.391  1.00  0.00    -0.369 N 
HETATM    8  N5  UNL     1      13.249   9.344  21.025  1.00  0.00    -0.164 N 
ATOM      9  H42 UNL     1      15.015  11.516  18.982  1.00  0.00     0.159 HD
ATOM     10  H41 UNL     1      13.746  11.073  18.565  1.00  0.00     0.159 HD
ATOM     11  H5  UNL     1      12.431   8.846  20.674  1.00  0.00     0.199 HD
ENDBRANCH   1   2
BRANCH   1  12
HETATM   12  C3  UNL     1      12.982   7.468  23.138  1.00  0.00    -0.060 C 
HETATM   13  C4  UNL     1      11.963   6.827  23.324  1.00  0.00    -0.013 C 
BRANCH  13  14
HETATM   14  C5  UNL     1      10.794   6.058  23.542  1.00  0.00    -0.013 C 
HETATM   15  C6  UNL     1       9.798   5.378  23.727  1.00  0.00    -0.073 C 
BRANCH  15  16
HETATM   16  C7  UNL     1       8.615   4.546  23.943  1.00  0.00     0.212 C 
BRANCH  16  17
HETATM   17  N2  UNL     1       8.988   3.203  24.241  1.00  0.00    -0.402 N 
HETATM   18  C8  UNL     1       9.247   2.977  25.629  1.00  0.00     0.117 C 
HETATM   19  C9  UNL     1       9.025   1.501  25.894  1.00  0.00     0.019 C 
HETATM   20  C10 UNL     1       8.841   0.728  24.631  1.00  0.00     0.003 C 
HETATM   21  C11 UNL     1       9.940   1.102  23.654  1.00  0.00     0.019 C 
HETATM   22  C12 UNL     1       9.916   2.595  23.343  1.00  0.00     0.117 C 
ENDBRANCH  16  17
ENDBRANCH  15  16
ENDBRANCH  13  14
ENDBRANCH   1  12
TORSDOF 5
ENDMDL
MODEL 4
REMARK VINA RESULT: -5.922525901      1.945      2.644
REMARK  5 active torsions:
REMARK  status: ('A' for Active; 'I' for Inactive)
REMARK    1  A    between atoms: N1_2  and  C2_3 
REMARK    2  A    between atoms: C2_3  and  C3_4 
REMARK    3  A    between atoms: C4_5  and  C5_6 
REMARK    4  A    between atoms: C6_7  and  C7_8 
REMARK    5  A    between atoms: C7_8  and  N2_9 
ROOT
HETATM    1  C2  UNL     1      13.540   9.008  21.224  1.00  0.00     0.388 C 
ENDROOT
BRANCH   1   2
HETATM    2  N1  UNL     1      12.989  10.344  21.126  1.00  0.00     0.110 N 
HETATM    3  C1  UNL     1      12.657  10.959  22.386  1.00  0.00     0.335 C 
HETATM    4  N3  UNL     1      13.883  11.156  20.423  1.00  0.00    -0.164 N 
HETATM    5  C13 UNL     1      12.804  11.657  19.677  1.00  0.00     0.222 C 
ATOM      6  H3  UNL     1      14.891  11.317  20.444  1.00  0.00     0.199 HD
HETATM    7  N4  UNL     1      12.583  12.657  18.917  1.00  0.00    -0.369 N 
HETATM    8  N5  UNL     1      12.056  10.552  20.145  1.00  0.00    -0.164 N 
ATOM      9  H42 UNL     1      13.123  13.454  18.579  1.00  0.00     0.159 HD
ATOM     10  H41 UNL     1      11.800  13.020  18.375  1.00  0.00     0.159 HD
ATOM     11  H5  UNL     1      11.185  10.100  19.868  1.00  0.00     0.199 HD
ENDBRANCH   1   2
BRANCH   1  12
HETATM   12  C3  UNL     1      12.640   8.208  22.052  1.00  0.00    -0.060 C 
HETATM   13  C4  UNL     1      11.905   7.534  22.751  1.00  0.00    -0.013 C 
BRANCH  13  14
HETATM   14  C5  UNL     1      11.071   6.748  23.583  1.00  0.00    -0.013 C 
HETATM   15  C6  UNL     1      10.359   6.081  24.316  1.00  0.00    -0.073 C 
BRANCH  15  16
HETATM   16  C7  UNL     1       9.515   5.291  25.211  1.00  0.00     0.212 C 
BRANCH  16  17
HETATM   17  N2  UNL     1       9.386   3.953  24.736  1.00  0.00    -0.402 N 
HETATM   18  C8  UNL     1       9.126   3.869  23.332  1.00  0.00     0.117 C 
HETATM   19  C9  UNL     1       9.607   2.508  22.866  1.00  0.00     0.019 C 
HETATM   20  C10 UNL     1       9.973   1.624  24.012  1.00  0.00     0.003 C 
HETATM   21  C11 UNL     1       8.858   1.652  25.040  1.00  0.00     0.019 C 
HETATM   22  C12 UNL     1       8.617   3.069  25.551  1.00  0.00     0.117 C 
ENDBRANCH  16  17
ENDBRANCH  15  16
ENDBRANCH  13  14
ENDBRANCH   1  12
TORSDOF 5
ENDMDL
MODEL 5
REMARK VINA RESULT: -5.909407445      4.889      8.542
REMARK  5 active torsions:
REMARK  status: ('A' for Active; 'I' for Inactive)
REMARK    1  A    between atoms: N1_2  and  C2_3 
REMARK    2  A    between atoms: C2_3  and  C3_4 
REMARK    3  A    between atoms: C4_5  and  C5_6 
REMARK    4  A    between atoms: C6_7  and  C7_8 
REMARK    5  A    between atoms: C7_8  and  N2_9 
ROOT
HETATM    1  C2  UNL     1      10.211   0.643  23.875  1.00  0.00     0.388 C 
ENDROOT
BRANCH   1   2
HETATM    2  N1  UNL     1       8.985  -0.104  24.070  1.00  0.00     0.110 N 
HETATM    3  C1  UNL     1       8.438  -0.698  22.876  1.00  0.00     0.335 C 
HETATM    4  N3  UNL     1       9.201  -1.093  25.034  1.00  0.00    -0.164 N 
HETATM    5  C13 UNL     1       7.986  -0.732  25.640  1.00  0.00     0.222 C 
ATOM      6  H3  UNL     1       9.931  -1.782  25.218  1.00  0.00     0.199 HD
HETATM    7  N4  UNL     1       7.183  -1.243  26.488  1.00  0.00    -0.369 N 
HETATM    8  N5  UNL     1       8.044   0.463  24.887  1.00  0.00    -0.164 N 
ATOM      9  H42 UNL     1       7.142  -2.105  27.032  1.00  0.00     0.159 HD
ATOM     10  H41 UNL     1       6.302  -0.981  26.929  1.00  0.00     0.159 HD
ATOM     11  H5  UNL     1       7.579   1.369  24.934  1.00  0.00     0.199 HD
ENDBRANCH   1   2
BRANCH   1  12
HETATM   12  C3  UNL     1       9.853   2.035  23.609  1.00  0.00    -0.060 C 
HETATM   13  C4  UNL     1       9.537   3.190  23.390  1.00  0.00    -0.013 C 
BRANCH  13  14
HETATM   14  C5  UNL     1       9.145   4.529  23.146  1.00  0.00    -0.013 C 
HETATM   15  C6  UNL     1       8.799   5.676  22.916  1.00  0.00    -0.073 C 
BRANCH  15  16
HETATM   16  C7  UNL     1       8.377   7.045  22.623  1.00  0.00     0.212 C 
BRANCH  16  17
HETATM   17  N2  UNL     1       7.131   7.338  23.250  1.00  0.00    -0.402 N 
HETATM   18  C8  UNL     1       6.769   8.719  23.183  1.00  0.00     0.117 C 
HETATM   19  C9  UNL     1       5.260   8.796  23.304  1.00  0.00     0.019 C 
HETATM   20  C10 UNL     1       4.662   7.480  23.675  1.00  0.00     0.003 C 
HETATM   21  C11 UNL     1       5.425   6.899  24.850  1.00  0.00     0.019 C 
HETATM   22  C12 UNL     1       6.900   6.708  24.510  1.00  0.00     0.117 C 
ENDBRANCH  16  17
ENDBRANCH  15  16
ENDBRANCH  13  14
ENDBRANCH   1  12
TORSDOF 5
ENDMDL
