MODEL 1
REMARK VINA RESULT: -6.512810412      0.000      0.000
REMARK  8 active torsions:
REMARK  status: ('A' for Active; 'I' for Inactive)
REMARK    1  A    between atoms: C8_9  and  C9_10 
REMARK    2  A    between atoms: C9_10  and  N1_11 
REMARK    3  A    between atoms: N1_11  and  C10_13 
REMARK    4  A    between atoms: C10_13  and  N2_15 
REMARK    5  A    between atoms: N2_15  and  N3_17 
REMARK    6  A    between atoms: N3_17  and  C11_19 
REMARK    7  A    between atoms: C11_19  and  N4_21 
REMARK    8  A    between atoms: N4_21  and  C12_23 
ROOT
HETATM    1  C10 UNL     1      42.419  -5.283  29.093  1.00  0.00     0.190 C 
HETATM    2  S1  UNL     1      43.552  -5.040  30.251  1.00  0.00    -0.039 SA
ENDROOT
BRANCH   1   3
HETATM    3  N1  UNL     1      42.588  -4.684  27.788  1.00  0.00    -0.341 N 
ATOM      4  H1  UNL     1      41.860  -4.791  27.082  1.00  0.00     0.167 HD
BRANCH   3   5
HETATM    5  C9  UNL     1      43.755  -3.953  27.486  1.00  0.00     0.103 C 
BRANCH   5   6
HETATM    6  C8  UNL     1      43.814  -2.945  26.458  1.00  0.00    -0.009 A 
HETATM    7  C2  UNL     1      43.884  -1.607  26.940  1.00  0.00    -0.047 A 
HETATM    8  C1  UNL     1      43.919  -1.421  28.393  1.00  0.00     0.049 C 
HETATM    9  C3  UNL     1      43.915  -0.572  26.054  1.00  0.00     0.049 A 
HETATM   10  C4  UNL     1      43.883  -0.738  24.690  1.00  0.00     0.117 A 
HETATM   11  F1  UNL     1      43.918   0.333  23.837  1.00  0.00    -0.206 F 
HETATM   12  C5  UNL     1      43.815  -2.022  24.234  1.00  0.00     0.049 A 
HETATM   13  C6  UNL     1      43.779  -3.131  25.111  1.00  0.00    -0.047 A 
HETATM   14  C7  UNL     1      43.655  -4.470  24.472  1.00  0.00     0.049 C 
ENDBRANCH   5   6
ENDBRANCH   3   5
ENDBRANCH   1   3
BRANCH   1  15
HETATM   15  N2  UNL     1      41.274  -6.067  29.379  1.00  0.00    -0.274 N 
ATOM     16  H2  UNL     1      41.345  -7.084  29.399  1.00  0.00     0.189 HD
BRANCH  15  17
HETATM   17  N3  UNL     1      40.037  -5.445  29.636  1.00  0.00    -0.274 N 
ATOM     18  H3  UNL     1      39.321  -5.408  28.911  1.00  0.00     0.189 HD
BRANCH  17  19
HETATM   19  C11 UNL     1      39.794  -4.869  30.908  1.00  0.00     0.186 C 
HETATM   20  S2  UNL     1      40.214  -5.693  32.254  1.00  0.00    -0.040 SA
BRANCH  19  21
HETATM   21  N4  UNL     1      39.197  -3.602  31.056  1.00  0.00    -0.361 N 
ATOM     22  H4  UNL     1      38.588  -3.439  31.858  1.00  0.00     0.162 HD
BRANCH  21  23
HETATM   23  C12 UNL     1      39.415  -2.510  30.107  1.00  0.00     0.083 C 
HETATM   24  C13 UNL     1      38.598  -1.311  30.494  1.00  0.00     0.025 C 
HETATM   25  C14 UNL     1      39.484  -0.159  30.815  1.00  0.00     0.002 C 
HETATM   26  C15 UNL     1      40.535  -0.517  31.856  1.00  0.00     0.000 C 
HETATM   27  C16 UNL     1      41.419  -1.637  31.322  1.00  0.00     0.002 C 
HETATM   28  C17 UNL     1      40.857  -2.148  30.006  1.00  0.00     0.025 C 
ENDBRANCH  21  23
ENDBRANCH  19  21
ENDBRANCH  17  19
ENDBRANCH  15  17
ENDBRANCH   1  15
TORSDOF 8
ENDMDL
MODEL 2
REMARK VINA RESULT: -6.409522340      1.576      2.300
REMARK  8 active torsions:
REMARK  status: ('A' for Active; 'I' for Inactive)
REMARK    1  A    between atoms: C8_9  and  C9_10 
REMARK    2  A    between atoms: C9_10  and  N1_11 
REMARK    3  A    between atoms: N1_11  and  C10_13 
REMARK    4  A    between atoms: C10_13  and  N2_15 
REMARK    5  A    between atoms: N2_15  and  N3_17 
REMARK    6  A    between atoms: N3_17  and  C11_19 
REMARK    7  A    between atoms: C11_19  and  N4_21 
REMARK    8  A    between atoms: N4_21  and  C12_23 
ROOT
HETATM    1  C10 UNL     1      42.179  -5.051  29.072  1.00  0.00     0.190 C 
HETATM    2  S1  UNL     1      42.955  -5.973  30.181  1.00  0.00    -0.039 SA
ENDROOT
BRANCH   1   3
HETATM    3  N1  UNL     1      42.762  -4.864  27.762  1.00  0.00    -0.341 N 
ATOM      4  H1  UNL     1      42.383  -5.369  26.961  1.00  0.00     0.167 HD
BRANCH   3   5
HETATM    5  C9  UNL     1      43.852  -3.988  27.586  1.00  0.00     0.103 C 
BRANCH   5   6
HETATM    6  C8  UNL     1      43.889  -2.965  26.572  1.00  0.00    -0.009 A 
HETATM    7  C2  UNL     1      43.927  -1.632  27.073  1.00  0.00    -0.047 A 
HETATM    8  C1  UNL     1      43.955  -1.466  28.529  1.00  0.00     0.049 C 
HETATM    9  C3  UNL     1      43.935  -0.584  26.202  1.00  0.00     0.049 A 
HETATM   10  C4  UNL     1      43.911  -0.732  24.836  1.00  0.00     0.117 A 
HETATM   11  F1  UNL     1      43.922   0.352  23.998  1.00  0.00    -0.206 F 
HETATM   12  C5  UNL     1      43.874  -2.010  24.361  1.00  0.00     0.049 A 
HETATM   13  C6  UNL     1      43.862  -3.132  25.222  1.00  0.00    -0.047 A 
HETATM   14  C7  UNL     1      43.770  -4.464  24.564  1.00  0.00     0.049 C 
ENDBRANCH   5   6
ENDBRANCH   3   5
ENDBRANCH   1   3
BRANCH   1  15
HETATM   15  N2  UNL     1      40.949  -4.430  29.405  1.00  0.00    -0.274 N 
ATOM     16  H2  UNL     1      40.191  -4.984  29.802  1.00  0.00     0.189 HD
BRANCH  15  17
HETATM   17  N3  UNL     1      40.772  -3.050  29.188  1.00  0.00    -0.274 N 
ATOM     18  H3  UNL     1      40.825  -2.669  28.243  1.00  0.00     0.189 HD
BRANCH  17  19
HETATM   19  C11 UNL     1      40.521  -2.195  30.290  1.00  0.00     0.186 C 
HETATM   20  S2  UNL     1      41.669  -2.004  31.434  1.00  0.00    -0.040 SA
BRANCH  19  21
HETATM   21  N4  UNL     1      39.305  -1.500  30.437  1.00  0.00    -0.361 N 
ATOM     22  H4  UNL     1      39.205  -0.589  29.988  1.00  0.00     0.162 HD
BRANCH  21  23
HETATM   23  C12 UNL     1      38.179  -2.030  31.205  1.00  0.00     0.083 C 
HETATM   24  C13 UNL     1      37.095  -0.998  31.323  1.00  0.00     0.025 C 
HETATM   25  C14 UNL     1      35.849  -1.474  30.661  1.00  0.00     0.002 C 
HETATM   26  C15 UNL     1      36.094  -1.910  29.224  1.00  0.00     0.000 C 
HETATM   27  C16 UNL     1      37.089  -3.063  29.206  1.00  0.00     0.002 C 
HETATM   28  C17 UNL     1      37.643  -3.283  30.603  1.00  0.00     0.025 C 
ENDBRANCH  21  23
ENDBRANCH  19  21
ENDBRANCH  17  19
ENDBRANCH  15  17
ENDBRANCH   1  15
TORSDOF 8
ENDMDL
MODEL 3
REMARK VINA RESULT: -6.391751831      1.325      1.546
REMARK  8 active torsions:
REMARK  status: ('A' for Active; 'I' for Inactive)
REMARK    1  A    between atoms: C8_9  and  C9_10 
REMARK    2  A    between atoms: C9_10  and  N1_11 
REMARK    3  A    between atoms: N1_11  and  C10_13 
REMARK    4  A    between atoms: C10_13  and  N2_15 
REMARK    5  A    between atoms: N2_15  and  N3_17 
REMARK    6  A    between atoms: N3_17  and  C11_19 
REMARK    7  A    between atoms: C11_19  and  N4_21 
REMARK    8  A    between atoms: N4_21  and  C12_23 
ROOT
HETATM    1  C10 UNL     1      42.076  -4.797  29.257  1.00  0.00     0.190 C 
HETATM    2  S1  UNL     1      43.126  -5.047  30.489  1.00  0.00    -0.039 SA
ENDROOT
BRANCH   1   3
HETATM    3  N1  UNL     1      42.570  -4.712  27.901  1.00  0.00    -0.341 N 
ATOM      4  H1  UNL     1      42.071  -5.185  27.148  1.00  0.00     0.167 HD
BRANCH   3   5
HETATM    5  C9  UNL     1      43.739  -3.977  27.614  1.00  0.00     0.103 C 
BRANCH   5   6
HETATM    6  C8  UNL     1      43.808  -2.971  26.584  1.00  0.00    -0.009 A 
HETATM    7  C2  UNL     1      43.816  -1.631  27.064  1.00  0.00    -0.047 A 
HETATM    8  C1  UNL     1      43.785  -1.439  28.516  1.00  0.00     0.049 C 
HETATM    9  C3  UNL     1      43.851  -0.597  26.175  1.00  0.00     0.049 A 
HETATM   10  C4  UNL     1      43.882  -0.768  24.812  1.00  0.00     0.117 A 
HETATM   11  F1  UNL     1      43.918   0.301  23.957  1.00  0.00    -0.206 F 
HETATM   12  C5  UNL     1      43.873  -2.055  24.359  1.00  0.00     0.049 A 
HETATM   13  C6  UNL     1      43.836  -3.162  25.238  1.00  0.00    -0.047 A 
HETATM   14  C7  UNL     1      43.781  -4.506  24.600  1.00  0.00     0.049 C 
ENDBRANCH   5   6
ENDBRANCH   3   5
ENDBRANCH   1   3
BRANCH   1  15
HETATM   15  N2  UNL     1      40.693  -4.652  29.527  1.00  0.00    -0.274 N 
ATOM     16  H2  UNL     1      40.196  -5.379  30.042  1.00  0.00     0.189 HD
BRANCH  15  17
HETATM   17  N3  UNL     1      40.002  -3.507  29.085  1.00  0.00    -0.274 N 
ATOM     18  H3  UNL     1      40.396  -2.923  28.348  1.00  0.00     0.189 HD
BRANCH  17  19
HETATM   19  C11 UNL     1      38.756  -3.172  29.672  1.00  0.00     0.186 C 
HETATM   20  S2  UNL     1      37.377  -3.728  28.998  1.00  0.00    -0.040 SA
BRANCH  19  21
HETATM   21  N4  UNL     1      38.663  -2.367  30.825  1.00  0.00    -0.361 N 
ATOM     22  H4  UNL     1      38.650  -2.822  31.738  1.00  0.00     0.162 HD
BRANCH  21  23
HETATM   23  C12 UNL     1      38.585  -0.908  30.766  1.00  0.00     0.083 C 
HETATM   24  C13 UNL     1      37.884  -0.374  31.981  1.00  0.00     0.025 C 
HETATM   25  C14 UNL     1      38.800   0.493  32.772  1.00  0.00     0.002 C 
HETATM   26  C15 UNL     1      40.106  -0.211  33.107  1.00  0.00     0.000 C 
HETATM   27  C16 UNL     1      40.829  -0.582  31.819  1.00  0.00     0.002 C 
HETATM   28  C17 UNL     1      39.933  -0.290  30.627  1.00  0.00     0.025 C 
ENDBRANCH  21  23
ENDBRANCH  19  21
ENDBRANCH  17  19
ENDBRANCH  15  17
ENDBRANCH   1  15
TORSDOF 8
ENDMDL
MODEL 4
REMARK VINA RESULT: -6.391687744      1.606      2.209
REMARK  8 active torsions:
REMARK  status: ('A' for Active; 'I' for Inactive)
REMARK    1  A    between atoms: C8_9  and  C9_10 
REMARK    2  A    between atoms: C9_10  and  N1_11 
REMARK    3  A    between atoms: N1_11  and  C10_13 
REMARK    4  A    between atoms: C10_13  and  N2_15 
REMARK    5  A    between atoms: N2_15  and  N3_17 
REMARK    6  A    between atoms: N3_17  and  C11_19 
REMARK    7  A    between atoms: C11_19  and  N4_21 
REMARK    8  A    between atoms: N4_21  and  C12_23 
ROOT
HETATM    1  C10 UNL     1      42.196  -4.772  29.109  1.00  0.00     0.190 C 
HETATM    2  S1  UNL     1      43.236  -5.303  30.257  1.00  0.00    -0.039 SA
ENDROOT
BRANCH   1   3
HETATM    3  N1  UNL     1      42.628  -4.694  27.731  1.00  0.00    -0.341 N 
ATOM      4  H1  UNL     1      42.083  -5.154  27.001  1.00  0.00     0.167 HD
BRANCH   3   5
HETATM    5  C9  UNL     1      43.800  -3.987  27.391  1.00  0.00     0.103 C 
BRANCH   5   6
HETATM    6  C8  UNL     1      43.840  -2.964  26.377  1.00  0.00    -0.009 A 
HETATM    7  C2  UNL     1      43.872  -1.632  26.878  1.00  0.00    -0.047 A 
HETATM    8  C1  UNL     1      43.891  -1.465  28.334  1.00  0.00     0.049 C 
HETATM    9  C3  UNL     1      43.882  -0.584  26.007  1.00  0.00     0.049 A 
HETATM   10  C4  UNL     1      43.865  -0.732  24.641  1.00  0.00     0.117 A 
HETATM   11  F1  UNL     1      43.879   0.352  23.803  1.00  0.00    -0.206 F 
HETATM   12  C5  UNL     1      43.834  -2.010  24.166  1.00  0.00     0.049 A 
HETATM   13  C6  UNL     1      43.820  -3.132  25.028  1.00  0.00    -0.047 A 
HETATM   14  C7  UNL     1      43.735  -4.465  24.369  1.00  0.00     0.049 C 
ENDBRANCH   5   6
ENDBRANCH   3   5
ENDBRANCH   1   3
BRANCH   1  15
HETATM   15  N2  UNL     1      40.884  -4.379  29.472  1.00  0.00    -0.274 N 
ATOM     16  H2  UNL     1      40.291  -5.014  30.005  1.00  0.00     0.189 HD
BRANCH  15  17
HETATM   17  N3  UNL     1      40.397  -3.111  29.098  1.00  0.00    -0.274 N 
ATOM     18  H3  UNL     1      40.276  -2.879  28.112  1.00  0.00     0.189 HD
BRANCH  17  19
HETATM   19  C11 UNL     1      40.076  -2.162  30.100  1.00  0.00     0.186 C 
HETATM   20  S2  UNL     1      38.528  -2.013  30.597  1.00  0.00    -0.040 SA
BRANCH  19  21
HETATM   21  N4  UNL     1      41.052  -1.332  30.687  1.00  0.00    -0.361 N 
ATOM     22  H4  UNL     1      41.007  -0.328  30.516  1.00  0.00     0.162 HD
BRANCH  21  23
HETATM   23  C12 UNL     1      42.127  -1.853  31.531  1.00  0.00     0.083 C 
HETATM   24  C13 UNL     1      43.096  -0.759  31.875  1.00  0.00     0.025 C 
HETATM   25  C14 UNL     1      43.120  -0.528  33.346  1.00  0.00     0.002 C 
HETATM   26  C15 UNL     1      41.728  -0.281  33.909  1.00  0.00     0.000 C 
HETATM   27  C16 UNL     1      40.852  -1.501  33.653  1.00  0.00     0.002 C 
HETATM   28  C17 UNL     1      41.596  -2.488  32.770  1.00  0.00     0.025 C 
ENDBRANCH  21  23
ENDBRANCH  19  21
ENDBRANCH  17  19
ENDBRANCH  15  17
ENDBRANCH   1  15
TORSDOF 8
ENDMDL
MODEL 5
REMARK VINA RESULT: -6.362671101      1.869      2.528
REMARK  8 active torsions:
REMARK  status: ('A' for Active; 'I' for Inactive)
REMARK    1  A    between atoms: C8_9  and  C9_10 
REMARK    2  A    between atoms: C9_10  and  N1_11 
REMARK    3  A    between atoms: N1_11  and  C10_13 
REMARK    4  A    between atoms: C10_13  and  N2_15 
REMARK    5  A    between atoms: N2_15  and  N3_17 
REMARK    6  A    between atoms: N3_17  and  C11_19 
REMARK    7  A    between atoms: C11_19  and  N4_21 
REMARK    8  A    between atoms: N4_21  and  C12_23 
ROOT
HETATM    1  C10 UNL     1      41.315  -5.892  29.580  1.00  0.00     0.190 C 
HETATM    2  S1  UNL     1      41.772  -7.115  30.569  1.00  0.00    -0.039 SA
ENDROOT
BRANCH   1   3
HETATM    3  N1  UNL     1      42.212  -5.438  28.541  1.00  0.00    -0.341 N 
ATOM      4  H1  UNL     1      41.978  -5.599  27.562  1.00  0.00     0.167 HD
BRANCH   3   5
HETATM    5  C9  UNL     1      43.409  -4.772  28.876  1.00  0.00     0.103 C 
BRANCH   5   6
HETATM    6  C8  UNL     1      43.661  -3.390  28.556  1.00  0.00    -0.009 A 
HETATM    7  C2  UNL     1      43.480  -2.487  29.642  1.00  0.00    -0.047 A 
HETATM    8  C1  UNL     1      43.097  -3.063  30.934  1.00  0.00     0.049 C 
HETATM    9  C3  UNL     1      43.664  -1.150  29.446  1.00  0.00     0.049 A 
HETATM   10  C4  UNL     1      44.024  -0.603  28.238  1.00  0.00     0.117 A 
HETATM   11  F1  UNL     1      44.199   0.748  28.088  1.00  0.00    -0.206 F 
HETATM   12  C5  UNL     1      44.195  -1.472  27.201  1.00  0.00     0.049 A 
HETATM   13  C6  UNL     1      44.015  -2.867  27.351  1.00  0.00    -0.047 A 
HETATM   14  C7  UNL     1      44.188  -3.688  26.122  1.00  0.00     0.049 C 
ENDBRANCH   5   6
ENDBRANCH   3   5
ENDBRANCH   1   3
BRANCH   1  15
HETATM   15  N2  UNL     1      40.050  -5.277  29.755  1.00  0.00    -0.274 N 
ATOM     16  H2  UNL     1      39.270  -5.816  30.132  1.00  0.00     0.189 HD
BRANCH  15  17
HETATM   17  N3  UNL     1      39.868  -3.924  29.410  1.00  0.00    -0.274 N 
ATOM     18  H3  UNL     1      40.579  -3.433  28.869  1.00  0.00     0.189 HD
BRANCH  17  19
HETATM   19  C11 UNL     1      38.690  -3.250  29.819  1.00  0.00     0.186 C 
HETATM   20  S2  UNL     1      37.300  -3.495  29.000  1.00  0.00    -0.040 SA
BRANCH  19  21
HETATM   21  N4  UNL     1      38.675  -2.367  30.917  1.00  0.00    -0.361 N 
ATOM     22  H4  UNL     1      38.691  -2.758  31.859  1.00  0.00     0.162 HD
BRANCH  21  23
HETATM   23  C12 UNL     1      38.639  -0.913  30.761  1.00  0.00     0.083 C 
HETATM   24  C13 UNL     1      37.813  -0.292  31.850  1.00  0.00     0.025 C 
HETATM   25  C14 UNL     1      38.651   0.608  32.689  1.00  0.00     0.002 C 
HETATM   26  C15 UNL     1      39.893  -0.095  33.219  1.00  0.00     0.000 C 
HETATM   27  C16 UNL     1      40.752  -0.558  32.050  1.00  0.00     0.002 C 
HETATM   28  C17 UNL     1      40.009  -0.327  30.745  1.00  0.00     0.025 C 
ENDBRANCH  21  23
ENDBRANCH  19  21
ENDBRANCH  17  19
ENDBRANCH  15  17
ENDBRANCH   1  15
TORSDOF 8
ENDMDL
