MODEL 1
REMARK VINA RESULT: -7.327054250      0.000      0.000
REMARK  8 active torsions:
REMARK  status: ('A' for Active; 'I' for Inactive)
REMARK    1  A    between atoms: C6_6  and  C7_7 
REMARK    2  A    between atoms: C7_7  and  N1_8 
REMARK    3  A    between atoms: N1_8  and  C8_10 
REMARK    4  A    between atoms: C8_10  and  N2_12 
REMARK    5  A    between atoms: N2_12  and  N3_14 
REMARK    6  A    between atoms: N3_14  and  C9_16 
REMARK    7  A    between atoms: C9_16  and  N4_18 
REMARK    8  A    between atoms: N4_18  and  C10_20 
ROOT
HETATM    1  C8  UNL     1      42.555  -0.632  30.834  1.00  0.00     0.186 C 
HETATM    2  S1  UNL     1      40.970  -0.707  31.126  1.00  0.00    -0.040 SA
ENDROOT
BRANCH   1   3
HETATM    3  N1  UNL     1      43.045  -0.315  29.545  1.00  0.00    -0.362 N 
ATOM      4  H1  UNL     1      42.548   0.373  28.978  1.00  0.00     0.162 HD
BRANCH   3   5
HETATM    5  C7  UNL     1      44.232  -0.944  29.013  1.00  0.00     0.161 C 
BRANCH   5   6
HETATM    6  C6  UNL     1      44.087  -1.621  27.736  1.00  0.00    -0.032 A 
HETATM    7  C4  UNL     1      43.916  -3.013  27.787  1.00  0.00    -0.053 A 
HETATM    8  C3  UNL     1      43.769  -3.770  26.646  1.00  0.00     0.017 A 
HETATM    9  C5  UNL     1      43.892  -3.679  29.092  1.00  0.00     0.049 C 
HETATM   10  C2  UNL     1      43.788  -3.176  25.396  1.00  0.00    -0.023 A 
HETATM   11  C1  UNL     1      43.640  -3.910  24.129  1.00  0.00     0.051 C 
HETATM   12  C17 UNL     1      43.956  -1.798  25.323  1.00  0.00     0.122 A 
HETATM   13  C16 UNL     1      44.102  -1.055  26.488  1.00  0.00     0.052 A 
HETATM   14  F1  UNL     1      43.987  -1.138  24.154  1.00  0.00    -0.206 F 
ENDBRANCH   5   6
ENDBRANCH   3   5
ENDBRANCH   1   3
BRANCH   1  15
HETATM   15  N2  UNL     1      43.479  -0.889  31.880  1.00  0.00    -0.274 N 
ATOM     16  H2  UNL     1      43.896  -1.814  31.983  1.00  0.00     0.189 HD
BRANCH  15  17
HETATM   17  N3  UNL     1      43.811   0.135  32.766  1.00  0.00    -0.274 N 
ATOM     18  H3  UNL     1      44.365   0.892  32.365  1.00  0.00     0.189 HD
BRANCH  17  19
HETATM   19  C9  UNL     1      43.505   0.278  34.098  1.00  0.00     0.186 C 
HETATM   20  S2  UNL     1      42.529  -0.934  34.745  1.00  0.00    -0.040 SA
BRANCH  19  21
HETATM   21  N4  UNL     1      43.873   1.262  34.990  1.00  0.00    -0.361 N 
ATOM     22  H4  UNL     1      43.115   1.869  35.303  1.00  0.00     0.162 HD
BRANCH  21  23
HETATM   23  C10 UNL     1      45.165   1.560  35.546  1.00  0.00     0.083 C 
HETATM   24  C11 UNL     1      45.170   2.585  36.622  1.00  0.00     0.025 C 
HETATM   25  C12 UNL     1      45.402   2.103  38.007  1.00  0.00     0.002 C 
HETATM   26  C13 UNL     1      46.512   1.127  38.189  1.00  0.00     0.000 C 
HETATM   27  C14 UNL     1      47.019   0.553  36.888  1.00  0.00     0.002 C 
HETATM   28  C15 UNL     1      45.848   0.266  35.973  1.00  0.00     0.025 C 
ENDBRANCH  21  23
ENDBRANCH  19  21
ENDBRANCH  17  19
ENDBRANCH  15  17
ENDBRANCH   1  15
TORSDOF 8
ENDMDL
MODEL 2
REMARK VINA RESULT: -7.292440338      1.557      2.318
REMARK  8 active torsions:
REMARK  status: ('A' for Active; 'I' for Inactive)
REMARK    1  A    between atoms: C6_6  and  C7_7 
REMARK    2  A    between atoms: C7_7  and  N1_8 
REMARK    3  A    between atoms: N1_8  and  C8_10 
REMARK    4  A    between atoms: C8_10  and  N2_12 
REMARK    5  A    between atoms: N2_12  and  N3_14 
REMARK    6  A    between atoms: N3_14  and  C9_16 
REMARK    7  A    between atoms: C9_16  and  N4_18 
REMARK    8  A    between atoms: N4_18  and  C10_20 
ROOT
HETATM    1  C8  UNL     1      43.315  -0.323  32.635  1.00  0.00     0.186 C 
HETATM    2  S1  UNL     1      41.977  -0.554  33.508  1.00  0.00    -0.040 SA
ENDROOT
BRANCH   1   3
HETATM    3  N1  UNL     1      43.338  -0.602  31.248  1.00  0.00    -0.362 N 
ATOM      4  H1  UNL     1      43.375   0.171  30.584  1.00  0.00     0.162 HD
BRANCH   3   5
HETATM    5  C7  UNL     1      43.310  -1.958  30.751  1.00  0.00     0.161 C 
BRANCH   5   6
HETATM    6  C6  UNL     1      43.491  -2.126  29.320  1.00  0.00    -0.032 A 
HETATM    7  C4  UNL     1      43.637  -3.445  28.863  1.00  0.00    -0.053 A 
HETATM    8  C3  UNL     1      43.817  -3.736  27.529  1.00  0.00     0.017 A 
HETATM    9  C5  UNL     1      43.598  -4.542  29.833  1.00  0.00     0.049 C 
HETATM   10  C2  UNL     1      43.860  -2.726  26.584  1.00  0.00    -0.023 A 
HETATM   11  C1  UNL     1      44.050  -2.950  25.141  1.00  0.00     0.051 C 
HETATM   12  C17 UNL     1      43.717  -1.412  27.016  1.00  0.00     0.122 A 
HETATM   13  C16 UNL     1      43.537  -1.143  28.367  1.00  0.00     0.052 A 
HETATM   14  F1  UNL     1      43.746  -0.370  26.171  1.00  0.00    -0.206 F 
ENDBRANCH   5   6
ENDBRANCH   3   5
ENDBRANCH   1   3
BRANCH   1  15
HETATM   15  N2  UNL     1      44.490   0.168  33.261  1.00  0.00    -0.274 N 
ATOM     16  H2  UNL     1      45.332  -0.406  33.295  1.00  0.00     0.189 HD
BRANCH  15  17
HETATM   17  N3  UNL     1      44.483   1.441  33.829  1.00  0.00    -0.274 N 
ATOM     18  H3  UNL     1      44.213   2.195  33.198  1.00  0.00     0.189 HD
BRANCH  17  19
HETATM   19  C9  UNL     1      44.786   1.833  35.110  1.00  0.00     0.186 C 
HETATM   20  S2  UNL     1      43.537   2.603  35.939  1.00  0.00    -0.040 SA
BRANCH  19  21
HETATM   21  N4  UNL     1      45.956   1.696  35.826  1.00  0.00    -0.361 N 
ATOM     22  H4  UNL     1      46.539   2.532  35.868  1.00  0.00     0.162 HD
BRANCH  21  23
HETATM   23  C10 UNL     1      46.477   0.550  36.521  1.00  0.00     0.083 C 
HETATM   24  C11 UNL     1      47.525  -0.210  35.792  1.00  0.00     0.025 C 
HETATM   25  C12 UNL     1      48.917  -0.083  36.291  1.00  0.00     0.002 C 
HETATM   26  C13 UNL     1      49.103  -0.190  37.765  1.00  0.00     0.000 C 
HETATM   27  C14 UNL     1      47.807  -0.102  38.535  1.00  0.00     0.002 C 
HETATM   28  C15 UNL     1      46.924   0.962  37.919  1.00  0.00     0.025 C 
ENDBRANCH  21  23
ENDBRANCH  19  21
ENDBRANCH  17  19
ENDBRANCH  15  17
ENDBRANCH   1  15
TORSDOF 8
ENDMDL
MODEL 3
REMARK VINA RESULT: -7.277084146      1.934      2.757
REMARK  8 active torsions:
REMARK  status: ('A' for Active; 'I' for Inactive)
REMARK    1  A    between atoms: C6_6  and  C7_7 
REMARK    2  A    between atoms: C7_7  and  N1_8 
REMARK    3  A    between atoms: N1_8  and  C8_10 
REMARK    4  A    between atoms: C8_10  and  N2_12 
REMARK    5  A    between atoms: N2_12  and  N3_14 
REMARK    6  A    between atoms: N3_14  and  C9_16 
REMARK    7  A    between atoms: C9_16  and  N4_18 
REMARK    8  A    between atoms: N4_18  and  C10_20 
ROOT
HETATM    1  C8  UNL     1      43.398  -0.561  32.676  1.00  0.00     0.186 C 
HETATM    2  S1  UNL     1      42.410  -1.555  33.476  1.00  0.00    -0.040 SA
ENDROOT
BRANCH   1   3
HETATM    3  N1  UNL     1      43.788  -0.838  31.344  1.00  0.00    -0.362 N 
ATOM      4  H1  UNL     1      44.759  -1.083  31.149  1.00  0.00     0.162 HD
BRANCH   3   5
HETATM    5  C7  UNL     1      42.842  -0.780  30.254  1.00  0.00     0.161 C 
BRANCH   5   6
HETATM    6  C6  UNL     1      43.215  -1.482  29.037  1.00  0.00    -0.032 A 
HETATM    7  C4  UNL     1      42.480  -2.638  28.737  1.00  0.00    -0.053 A 
HETATM    8  C3  UNL     1      42.737  -3.392  27.614  1.00  0.00     0.017 A 
HETATM    9  C5  UNL     1      41.408  -3.056  29.646  1.00  0.00     0.049 C 
HETATM   10  C2  UNL     1      43.742  -3.030  26.734  1.00  0.00    -0.023 A 
HETATM   11  C1  UNL     1      44.082  -3.779  25.513  1.00  0.00     0.051 C 
HETATM   12  C17 UNL     1      44.482  -1.887  27.012  1.00  0.00     0.122 A 
HETATM   13  C16 UNL     1      44.204  -1.142  28.152  1.00  0.00     0.052 A 
HETATM   14  F1  UNL     1      45.474  -1.460  26.215  1.00  0.00    -0.206 F 
ENDBRANCH   5   6
ENDBRANCH   3   5
ENDBRANCH   1   3
BRANCH   1  15
HETATM   15  N2  UNL     1      43.888   0.610  33.310  1.00  0.00    -0.274 N 
ATOM     16  H2  UNL     1      43.300   1.439  33.384  1.00  0.00     0.189 HD
BRANCH  15  17
HETATM   17  N3  UNL     1      45.181   0.615  33.832  1.00  0.00    -0.274 N 
ATOM     18  H3  UNL     1      45.928   0.604  33.138  1.00  0.00     0.189 HD
BRANCH  17  19
HETATM   19  C9  UNL     1      45.601   0.635  35.140  1.00  0.00     0.186 C 
HETATM   20  S2  UNL     1      44.374   0.788  36.286  1.00  0.00    -0.040 SA
BRANCH  19  21
HETATM   21  N4  UNL     1      46.873   0.551  35.664  1.00  0.00    -0.361 N 
ATOM     22  H4  UNL     1      47.534   1.243  35.312  1.00  0.00     0.162 HD
BRANCH  21  23
HETATM   23  C10 UNL     1      47.407  -0.368  36.632  1.00  0.00     0.083 C 
HETATM   24  C11 UNL     1      48.431  -1.311  36.111  1.00  0.00     0.025 C 
HETATM   25  C12 UNL     1      49.837  -1.070  36.523  1.00  0.00     0.002 C 
HETATM   26  C13 UNL     1      50.062  -0.774  37.965  1.00  0.00     0.000 C 
HETATM   27  C14 UNL     1      48.788  -0.464  38.714  1.00  0.00     0.002 C 
HETATM   28  C15 UNL     1      47.894   0.402  37.853  1.00  0.00     0.025 C 
ENDBRANCH  21  23
ENDBRANCH  19  21
ENDBRANCH  17  19
ENDBRANCH  15  17
ENDBRANCH   1  15
TORSDOF 8
ENDMDL
MODEL 4
REMARK VINA RESULT: -7.158287743      2.016      2.905
REMARK  8 active torsions:
REMARK  status: ('A' for Active; 'I' for Inactive)
REMARK    1  A    between atoms: C6_6  and  C7_7 
REMARK    2  A    between atoms: C7_7  and  N1_8 
REMARK    3  A    between atoms: N1_8  and  C8_10 
REMARK    4  A    between atoms: C8_10  and  N2_12 
REMARK    5  A    between atoms: N2_12  and  N3_14 
REMARK    6  A    between atoms: N3_14  and  C9_16 
REMARK    7  A    between atoms: C9_16  and  N4_18 
REMARK    8  A    between atoms: N4_18  and  C10_20 
ROOT
HETATM    1  C8  UNL     1      43.560  -0.237  33.018  1.00  0.00     0.186 C 
HETATM    2  S1  UNL     1      42.617  -1.102  34.002  1.00  0.00    -0.040 SA
ENDROOT
BRANCH   1   3
HETATM    3  N1  UNL     1      43.743  -0.613  31.667  1.00  0.00    -0.362 N 
ATOM      4  H1  UNL     1      44.292  -0.012  31.052  1.00  0.00     0.162 HD
BRANCH   3   5
HETATM    5  C7  UNL     1      43.171  -1.830  31.139  1.00  0.00     0.161 C 
BRANCH   5   6
HETATM    6  C6  UNL     1      43.378  -2.080  29.723  1.00  0.00    -0.032 A 
HETATM    7  C4  UNL     1      43.508  -3.424  29.343  1.00  0.00    -0.053 A 
HETATM    8  C3  UNL     1      43.710  -3.792  28.031  1.00  0.00     0.017 A 
HETATM    9  C5  UNL     1      43.425  -4.466  30.370  1.00  0.00     0.049 C 
HETATM   10  C2  UNL     1      43.794  -2.837  27.033  1.00  0.00    -0.023 A 
HETATM   11  C1  UNL     1      44.010  -3.144  25.609  1.00  0.00     0.051 C 
HETATM   12  C17 UNL     1      43.668  -1.499  27.388  1.00  0.00     0.122 A 
HETATM   13  C16 UNL     1      43.465  -1.152  28.719  1.00  0.00     0.052 A 
HETATM   14  F1  UNL     1      43.737  -0.506  26.488  1.00  0.00    -0.206 F 
ENDBRANCH   5   6
ENDBRANCH   3   5
ENDBRANCH   1   3
BRANCH   1  15
HETATM   15  N2  UNL     1      44.219   0.920  33.510  1.00  0.00    -0.274 N 
ATOM     16  H2  UNL     1      43.799   1.841  33.390  1.00  0.00     0.189 HD
BRANCH  15  17
HETATM   17  N3  UNL     1      45.446   0.785  34.157  1.00  0.00    -0.274 N 
ATOM     18  H3  UNL     1      46.261   0.782  33.544  1.00  0.00     0.189 HD
BRANCH  17  19
HETATM   19  C9  UNL     1      45.724   0.656  35.496  1.00  0.00     0.186 C 
HETATM   20  S2  UNL     1      44.777   1.602  36.521  1.00  0.00    -0.040 SA
BRANCH  19  21
HETATM   21  N4  UNL     1      46.660  -0.129  36.136  1.00  0.00    -0.361 N 
ATOM     22  H4  UNL     1      46.319  -1.032  36.462  1.00  0.00     0.162 HD
BRANCH  21  23
HETATM   23  C10 UNL     1      48.046   0.138  36.410  1.00  0.00     0.083 C 
HETATM   24  C11 UNL     1      48.393   0.264  37.849  1.00  0.00     0.025 C 
HETATM   25  C12 UNL     1      49.156  -0.854  38.458  1.00  0.00     0.002 C 
HETATM   26  C13 UNL     1      50.309  -1.372  37.670  1.00  0.00     0.000 C 
HETATM   27  C14 UNL     1      50.324  -0.879  36.243  1.00  0.00     0.002 C 
HETATM   28  C15 UNL     1      48.915  -0.888  35.691  1.00  0.00     0.025 C 
ENDBRANCH  21  23
ENDBRANCH  19  21
ENDBRANCH  17  19
ENDBRANCH  15  17
ENDBRANCH   1  15
TORSDOF 8
ENDMDL
MODEL 5
REMARK VINA RESULT: -7.112276135      2.773      9.358
REMARK  8 active torsions:
REMARK  status: ('A' for Active; 'I' for Inactive)
REMARK    1  A    between atoms: C6_6  and  C7_7 
REMARK    2  A    between atoms: C7_7  and  N1_8 
REMARK    3  A    between atoms: N1_8  and  C8_10 
REMARK    4  A    between atoms: C8_10  and  N2_12 
REMARK    5  A    between atoms: N2_12  and  N3_14 
REMARK    6  A    between atoms: N3_14  and  C9_16 
REMARK    7  A    between atoms: C9_16  and  N4_18 
REMARK    8  A    between atoms: N4_18  and  C10_20 
ROOT
HETATM    1  C8  UNL     1      44.030   0.312  34.174  1.00  0.00     0.186 C 
HETATM    2  S1  UNL     1      42.953  -0.545  35.018  1.00  0.00    -0.040 SA
ENDROOT
BRANCH   1   3
HETATM    3  N1  UNL     1      44.913   1.210  34.818  1.00  0.00    -0.362 N 
ATOM      4  H1  UNL     1      45.277   2.009  34.299  1.00  0.00     0.162 HD
BRANCH   3   5
HETATM    5  C7  UNL     1      45.311   1.020  36.194  1.00  0.00     0.161 C 
BRANCH   5   6
HETATM    6  C6  UNL     1      46.628   0.448  36.413  1.00  0.00    -0.032 A 
HETATM    7  C4  UNL     1      47.157   0.583  37.705  1.00  0.00    -0.053 A 
HETATM    8  C3  UNL     1      48.397   0.085  38.039  1.00  0.00     0.017 A 
HETATM    9  C5  UNL     1      46.367   1.274  38.728  1.00  0.00     0.049 C 
HETATM   10  C2  UNL     1      49.171  -0.573  37.099  1.00  0.00    -0.023 A 
HETATM   11  C1  UNL     1      50.505  -1.133  37.372  1.00  0.00     0.051 C 
HETATM   12  C17 UNL     1      48.666  -0.718  35.813  1.00  0.00     0.122 A 
HETATM   13  C16 UNL     1      47.412  -0.207  35.499  1.00  0.00     0.052 A 
HETATM   14  F1  UNL     1      49.347  -1.341  34.838  1.00  0.00    -0.206 F 
ENDBRANCH   5   6
ENDBRANCH   3   5
ENDBRANCH   1   3
BRANCH   1  15
HETATM   15  N2  UNL     1      44.097   0.168  32.763  1.00  0.00    -0.274 N 
ATOM     16  H2  UNL     1      44.766   0.715  32.222  1.00  0.00     0.189 HD
BRANCH  15  17
HETATM   17  N3  UNL     1      43.240  -0.727  32.125  1.00  0.00    -0.274 N 
ATOM     18  H3  UNL     1      43.027  -1.573  32.653  1.00  0.00     0.189 HD
BRANCH  17  19
HETATM   19  C9  UNL     1      42.640  -0.642  30.892  1.00  0.00     0.186 C 
HETATM   20  S2  UNL     1      40.971  -0.871  30.888  1.00  0.00    -0.040 SA
BRANCH  19  21
HETATM   21  N4  UNL     1      43.193  -0.399  29.653  1.00  0.00    -0.361 N 
ATOM     22  H4  UNL     1      42.961   0.506  29.244  1.00  0.00     0.162 HD
BRANCH  21  23
HETATM   23  C10 UNL     1      44.048  -1.232  28.851  1.00  0.00     0.083 C 
HETATM   24  C11 UNL     1      43.722  -2.682  28.876  1.00  0.00     0.025 C 
HETATM   25  C12 UNL     1      43.103  -3.252  27.653  1.00  0.00     0.002 C 
HETATM   26  C13 UNL     1      43.722  -2.863  26.356  1.00  0.00     0.000 C 
HETATM   27  C14 UNL     1      44.685  -1.707  26.481  1.00  0.00     0.002 C 
HETATM   28  C15 UNL     1      44.118  -0.677  27.433  1.00  0.00     0.025 C 
ENDBRANCH  21  23
ENDBRANCH  19  21
ENDBRANCH  17  19
ENDBRANCH  15  17
ENDBRANCH   1  15
TORSDOF 8
ENDMDL
