MODEL 1
REMARK VINA RESULT: -6.538059202      0.000      0.000
REMARK  8 active torsions:
REMARK  status: ('A' for Active; 'I' for Inactive)
REMARK    1  A    between atoms: C1_2  and  N1_3 
REMARK    2  A    between atoms: C1_2  and  N2_12 
REMARK    3  A    between atoms: N1_3  and  C2_5 
REMARK    4  A    between atoms: C2_5  and  C3_6 
REMARK    5  A    between atoms: N2_12  and  N3_14 
REMARK    6  A    between atoms: N3_14  and  C9_16 
REMARK    7  A    between atoms: C9_16  and  N4_18 
REMARK    8  A    between atoms: N4_18  and  C10_20 
ROOT
HETATM    1  N2  UNL     1      11.012   6.356  23.101  1.00  0.00    -0.274 N 
ATOM      2  H2  UNL     1      11.264   5.384  23.283  1.00  0.00     0.189 HD
ENDROOT
BRANCH   1   3
HETATM    3  C1  UNL     1      12.044   7.344  22.900  1.00  0.00     0.186 C 
HETATM    4  S1  UNL     1      12.672   8.111  24.191  1.00  0.00    -0.040 SA
BRANCH   3   5
HETATM    5  N1  UNL     1      12.475   7.653  21.594  1.00  0.00    -0.366 N 
ATOM      6  H1  UNL     1      12.110   7.120  20.805  1.00  0.00     0.161 HD
BRANCH   5   7
HETATM    7  C2  UNL     1      13.418   8.704  21.361  1.00  0.00     0.126 C 
BRANCH   7   8
HETATM    8  C3  UNL     1      12.862   9.667  20.334  1.00  0.00     0.003 C 
HETATM    9  C4  UNL     1      12.078  10.710  21.143  1.00  0.00     0.006 C 
HETATM   10  C5  UNL     1      11.499  11.781  20.261  1.00  0.00     0.000 C 
HETATM   11  C6  UNL     1      12.508  12.162  19.189  1.00  0.00     0.000 C 
HETATM   12  C7  UNL     1      13.915  11.774  19.647  1.00  0.00     0.000 C 
HETATM   13  C8  UNL     1      14.035  10.286  19.604  1.00  0.00     0.006 C 
ENDBRANCH   7   8
ENDBRANCH   5   7
ENDBRANCH   3   5
ENDBRANCH   1   3
BRANCH   1  14
HETATM   14  N3  UNL     1       9.654   6.737  23.045  1.00  0.00    -0.274 N 
ATOM     15  H3  UNL     1       9.367   7.706  23.181  1.00  0.00     0.189 HD
BRANCH  14  16
HETATM   16  C9  UNL     1       8.705   5.711  22.792  1.00  0.00     0.186 C 
HETATM   17  S2  UNL     1       7.133   6.171  22.735  1.00  0.00    -0.040 SA
BRANCH  16  18
HETATM   18  N4  UNL     1       9.067   4.356  22.586  1.00  0.00    -0.361 N 
ATOM     19  H4  UNL     1       9.546   4.122  21.716  1.00  0.00     0.162 HD
BRANCH  18  20
HETATM   20  C10 UNL     1       8.810   3.293  23.506  1.00  0.00     0.083 C 
HETATM   21  C11 UNL     1       9.886   2.210  23.320  1.00  0.00     0.025 C 
HETATM   22  C12 UNL     1       9.275   0.916  23.798  1.00  0.00     0.002 C 
HETATM   23  C13 UNL     1       8.328   1.213  24.913  1.00  0.00     0.000 C 
HETATM   24  C14 UNL     1       8.706   2.394  25.762  1.00  0.00     0.002 C 
HETATM   25  C15 UNL     1       8.894   3.669  24.960  1.00  0.00     0.025 C 
ENDBRANCH  18  20
ENDBRANCH  16  18
ENDBRANCH  14  16
ENDBRANCH   1  14
TORSDOF 8
ENDMDL
MODEL 2
REMARK VINA RESULT: -6.421241873      4.725      8.009
REMARK  8 active torsions:
REMARK  status: ('A' for Active; 'I' for Inactive)
REMARK    1  A    between atoms: C1_2  and  N1_3 
REMARK    2  A    between atoms: C1_2  and  N2_12 
REMARK    3  A    between atoms: N1_3  and  C2_5 
REMARK    4  A    between atoms: C2_5  and  C3_6 
REMARK    5  A    between atoms: N2_12  and  N3_14 
REMARK    6  A    between atoms: N3_14  and  C9_16 
REMARK    7  A    between atoms: C9_16  and  N4_18 
REMARK    8  A    between atoms: N4_18  and  C10_20 
ROOT
HETATM    1  N2  UNL     1       6.387   5.940  23.323  1.00  0.00    -0.274 N 
ATOM      2  H2  UNL     1       6.223   5.203  24.008  1.00  0.00     0.189 HD
ENDROOT
BRANCH   1   3
HETATM    3  C1  UNL     1       5.615   7.157  23.371  1.00  0.00     0.186 C 
HETATM    4  S1  UNL     1       6.358   8.582  23.114  1.00  0.00    -0.040 SA
BRANCH   3   5
HETATM    5  N1  UNL     1       4.237   7.102  23.664  1.00  0.00    -0.366 N 
ATOM      6  H1  UNL     1       3.628   6.505  23.106  1.00  0.00     0.161 HD
BRANCH   5   7
HETATM    7  C2  UNL     1       3.682   7.873  24.735  1.00  0.00     0.126 C 
BRANCH   7   8
HETATM    8  C3  UNL     1       3.034   6.950  25.743  1.00  0.00     0.003 C 
HETATM    9  C4  UNL     1       4.150   6.586  26.732  1.00  0.00     0.006 C 
HETATM   10  C5  UNL     1       3.648   5.702  27.841  1.00  0.00     0.000 C 
HETATM   11  C6  UNL     1       2.274   6.177  28.291  1.00  0.00     0.000 C 
HETATM   12  C7  UNL     1       2.083   7.642  27.897  1.00  0.00     0.000 C 
HETATM   13  C8  UNL     1       1.915   7.718  26.415  1.00  0.00     0.006 C 
ENDBRANCH   7   8
ENDBRANCH   5   7
ENDBRANCH   3   5
ENDBRANCH   1   3
BRANCH   1  14
HETATM   14  N3  UNL     1       7.372   5.773  22.325  1.00  0.00    -0.274 N 
ATOM     15  H3  UNL     1       7.166   5.943  21.341  1.00  0.00     0.189 HD
BRANCH  14  16
HETATM   16  C9  UNL     1       8.661   5.356  22.752  1.00  0.00     0.186 C 
HETATM   17  S2  UNL     1       9.647   6.526  23.338  1.00  0.00    -0.040 SA
BRANCH  16  18
HETATM   18  N4  UNL     1       9.097   4.008  22.694  1.00  0.00    -0.361 N 
ATOM     19  H4  UNL     1       9.692   3.738  21.911  1.00  0.00     0.162 HD
BRANCH  18  20
HETATM   20  C10 UNL     1       8.764   3.000  23.651  1.00  0.00     0.083 C 
HETATM   21  C11 UNL     1       9.782   1.853  23.532  1.00  0.00     0.025 C 
HETATM   22  C12 UNL     1       9.091   0.616  24.049  1.00  0.00     0.002 C 
HETATM   23  C13 UNL     1       8.142   1.010  25.131  1.00  0.00     0.000 C 
HETATM   24  C14 UNL     1       8.569   2.204  25.939  1.00  0.00     0.002 C 
HETATM   25  C15 UNL     1       8.843   3.432  25.090  1.00  0.00     0.025 C 
ENDBRANCH  18  20
ENDBRANCH  16  18
ENDBRANCH  14  16
ENDBRANCH   1  14
TORSDOF 8
ENDMDL
MODEL 3
REMARK VINA RESULT: -6.358106417      4.671      7.556
REMARK  8 active torsions:
REMARK  status: ('A' for Active; 'I' for Inactive)
REMARK    1  A    between atoms: C1_2  and  N1_3 
REMARK    2  A    between atoms: C1_2  and  N2_12 
REMARK    3  A    between atoms: N1_3  and  C2_5 
REMARK    4  A    between atoms: C2_5  and  C3_6 
REMARK    5  A    between atoms: N2_12  and  N3_14 
REMARK    6  A    between atoms: N3_14  and  C9_16 
REMARK    7  A    between atoms: C9_16  and  N4_18 
REMARK    8  A    between atoms: N4_18  and  C10_20 
ROOT
HETATM    1  N2  UNL     1       6.680   6.945  22.860  1.00  0.00    -0.274 N 
ATOM      2  H2  UNL     1       7.148   7.832  22.672  1.00  0.00     0.189 HD
ENDROOT
BRANCH   1   3
HETATM    3  C1  UNL     1       5.446   6.923  23.607  1.00  0.00     0.186 C 
HETATM    4  S1  UNL     1       4.374   8.131  23.406  1.00  0.00    -0.040 SA
BRANCH   3   5
HETATM    5  N1  UNL     1       5.196   5.875  24.516  1.00  0.00    -0.366 N 
ATOM      6  H1  UNL     1       5.663   4.978  24.391  1.00  0.00     0.161 HD
BRANCH   5   7
HETATM    7  C2  UNL     1       4.293   6.055  25.613  1.00  0.00     0.126 C 
BRANCH   7   8
HETATM    8  C3  UNL     1       5.077   6.369  26.869  1.00  0.00     0.003 C 
HETATM    9  C4  UNL     1       4.288   5.713  28.011  1.00  0.00     0.006 C 
HETATM   10  C5  UNL     1       4.972   5.892  29.338  1.00  0.00     0.000 C 
HETATM   11  C6  UNL     1       6.473   5.713  29.167  1.00  0.00     0.000 C 
HETATM   12  C7  UNL     1       6.753   4.903  27.901  1.00  0.00     0.000 C 
HETATM   13  C8  UNL     1       6.454   5.759  26.714  1.00  0.00     0.006 C 
ENDBRANCH   7   8
ENDBRANCH   5   7
ENDBRANCH   3   5
ENDBRANCH   1   3
BRANCH   1  14
HETATM   14  N3  UNL     1       7.238   5.737  22.389  1.00  0.00    -0.274 N 
ATOM     15  H3  UNL     1       6.688   5.074  21.844  1.00  0.00     0.189 HD
BRANCH  14  16
HETATM   16  C9  UNL     1       8.599   5.485  22.709  1.00  0.00     0.186 C 
HETATM   17  S2  UNL     1       9.498   6.784  23.143  1.00  0.00    -0.040 SA
BRANCH  16  18
HETATM   18  N4  UNL     1       9.175   4.190  22.674  1.00  0.00    -0.361 N 
ATOM     19  H4  UNL     1       9.870   4.002  21.951  1.00  0.00     0.162 HD
BRANCH  18  20
HETATM   20  C10 UNL     1       8.855   3.128  23.575  1.00  0.00     0.083 C 
HETATM   21  C11 UNL     1       9.889   2.003  23.398  1.00  0.00     0.025 C 
HETATM   22  C12 UNL     1       9.215   0.730  23.846  1.00  0.00     0.002 C 
HETATM   23  C13 UNL     1       8.258   1.053  24.945  1.00  0.00     0.000 C 
HETATM   24  C14 UNL     1       8.667   2.208  25.817  1.00  0.00     0.002 C 
HETATM   25  C15 UNL     1       8.924   3.483  25.034  1.00  0.00     0.025 C 
ENDBRANCH  18  20
ENDBRANCH  16  18
ENDBRANCH  14  16
ENDBRANCH   1  14
TORSDOF 8
ENDMDL
MODEL 4
REMARK VINA RESULT: -6.349365025      1.309      8.963
REMARK  8 active torsions:
REMARK  status: ('A' for Active; 'I' for Inactive)
REMARK    1  A    between atoms: C1_2  and  N1_3 
REMARK    2  A    between atoms: C1_2  and  N2_12 
REMARK    3  A    between atoms: N1_3  and  C2_5 
REMARK    4  A    between atoms: C2_5  and  C3_6 
REMARK    5  A    between atoms: N2_12  and  N3_14 
REMARK    6  A    between atoms: N3_14  and  C9_16 
REMARK    7  A    between atoms: C9_16  and  N4_18 
REMARK    8  A    between atoms: N4_18  and  C10_20 
ROOT
HETATM    1  N2  UNL     1      11.689   6.713  23.108  1.00  0.00    -0.274 N 
ATOM      2  H2  UNL     1      12.192   6.312  23.900  1.00  0.00     0.189 HD
ENDROOT
BRANCH   1   3
HETATM    3  C1  UNL     1      10.247   6.716  23.093  1.00  0.00     0.186 C 
HETATM    4  S1  UNL     1       9.454   8.134  23.193  1.00  0.00    -0.040 SA
BRANCH   3   5
HETATM    5  N1  UNL     1       9.543   5.496  23.020  1.00  0.00    -0.366 N 
ATOM      6  H1  UNL     1       9.563   4.956  22.155  1.00  0.00     0.161 HD
BRANCH   5   7
HETATM    7  C2  UNL     1       8.802   5.006  24.142  1.00  0.00     0.126 C 
BRANCH   7   8
HETATM    8  C3  UNL     1       9.258   3.603  24.478  1.00  0.00     0.003 C 
HETATM    9  C4  UNL     1       8.014   2.899  25.037  1.00  0.00     0.006 C 
HETATM   10  C5  UNL     1       8.291   1.460  25.375  1.00  0.00     0.000 C 
HETATM   11  C6  UNL     1       9.171   0.842  24.299  1.00  0.00     0.000 C 
HETATM   12  C7  UNL     1       9.045   1.650  23.007  1.00  0.00     0.000 C 
HETATM   13  C8  UNL     1       9.741   2.959  23.196  1.00  0.00     0.006 C 
ENDBRANCH   7   8
ENDBRANCH   5   7
ENDBRANCH   3   5
ENDBRANCH   1   3
BRANCH   1  14
HETATM   14  N3  UNL     1      12.404   7.265  22.023  1.00  0.00    -0.274 N 
ATOM     15  H3  UNL     1      12.313   6.889  21.079  1.00  0.00     0.189 HD
BRANCH  14  16
HETATM   16  C9  UNL     1      13.255   8.367  22.303  1.00  0.00     0.186 C 
HETATM   17  S2  UNL     1      13.329   8.852  23.866  1.00  0.00    -0.040 SA
BRANCH  16  18
HETATM   18  N4  UNL     1      14.019   9.026  21.307  1.00  0.00    -0.361 N 
ATOM     19  H4  UNL     1      14.807   8.519  20.903  1.00  0.00     0.162 HD
BRANCH  18  20
HETATM   20  C10 UNL     1      13.769  10.349  20.828  1.00  0.00     0.083 C 
HETATM   21  C11 UNL     1      15.066  10.905  20.217  1.00  0.00     0.025 C 
HETATM   22  C12 UNL     1      14.967  12.408  20.302  1.00  0.00     0.002 C 
HETATM   23  C13 UNL     1      13.535  12.805  20.157  1.00  0.00     0.000 C 
HETATM   24  C14 UNL     1      12.716  11.900  19.280  1.00  0.00     0.002 C 
HETATM   25  C15 UNL     1      12.754  10.448  19.722  1.00  0.00     0.025 C 
ENDBRANCH  18  20
ENDBRANCH  16  18
ENDBRANCH  14  16
ENDBRANCH   1  14
TORSDOF 8
ENDMDL
MODEL 5
REMARK VINA RESULT: -6.250389543      2.627      3.434
REMARK  8 active torsions:
REMARK  status: ('A' for Active; 'I' for Inactive)
REMARK    1  A    between atoms: C1_2  and  N1_3 
REMARK    2  A    between atoms: C1_2  and  N2_12 
REMARK    3  A    between atoms: N1_3  and  C2_5 
REMARK    4  A    between atoms: C2_5  and  C3_6 
REMARK    5  A    between atoms: N2_12  and  N3_14 
REMARK    6  A    between atoms: N3_14  and  C9_16 
REMARK    7  A    between atoms: C9_16  and  N4_18 
REMARK    8  A    between atoms: N4_18  and  C10_20 
ROOT
HETATM    1  N2  UNL     1       8.179   6.184  22.288  1.00  0.00    -0.274 N 
ATOM      2  H2  UNL     1       8.873   5.596  21.826  1.00  0.00     0.189 HD
ENDROOT
BRANCH   1   3
HETATM    3  C1  UNL     1       8.492   7.554  22.612  1.00  0.00     0.186 C 
HETATM    4  S1  UNL     1       7.322   8.682  22.514  1.00  0.00    -0.040 SA
BRANCH   3   5
HETATM    5  N1  UNL     1       9.806   7.905  22.981  1.00  0.00    -0.366 N 
ATOM      6  H1  UNL     1      10.198   8.791  22.664  1.00  0.00     0.161 HD
BRANCH   5   7
HETATM    7  C2  UNL     1      10.598   7.034  23.796  1.00  0.00     0.126 C 
BRANCH   7   8
HETATM    8  C3  UNL     1      12.061   7.202  23.446  1.00  0.00     0.003 C 
HETATM    9  C4  UNL     1      12.070   7.834  22.047  1.00  0.00     0.006 C 
HETATM   10  C5  UNL     1      13.469   8.116  21.571  1.00  0.00     0.000 C 
HETATM   11  C6  UNL     1      14.302   8.657  22.723  1.00  0.00     0.000 C 
HETATM   12  C7  UNL     1      13.379   9.242  23.793  1.00  0.00     0.000 C 
HETATM   13  C8  UNL     1      12.677   8.118  24.482  1.00  0.00     0.006 C 
ENDBRANCH   7   8
ENDBRANCH   5   7
ENDBRANCH   3   5
ENDBRANCH   1   3
BRANCH   1  14
HETATM   14  N3  UNL     1       6.910   5.658  22.613  1.00  0.00    -0.274 N 
ATOM     15  H3  UNL     1       6.185   5.540  21.905  1.00  0.00     0.189 HD
BRANCH  14  16
HETATM   16  C9  UNL     1       6.686   5.301  23.970  1.00  0.00     0.186 C 
HETATM   17  S2  UNL     1       5.252   5.759  24.617  1.00  0.00    -0.040 SA
BRANCH  16  18
HETATM   18  N4  UNL     1       7.628   4.579  24.745  1.00  0.00    -0.361 N 
ATOM     19  H4  UNL     1       7.979   5.023  25.594  1.00  0.00     0.162 HD
BRANCH  18  20
HETATM   20  C10 UNL     1       8.124   3.277  24.426  1.00  0.00     0.083 C 
HETATM   21  C11 UNL     1       9.599   3.401  24.008  1.00  0.00     0.025 C 
HETATM   22  C12 UNL     1       9.891   2.215  23.123  1.00  0.00     0.002 C 
HETATM   23  C13 UNL     1       9.069   1.056  23.582  1.00  0.00     0.000 C 
HETATM   24  C14 UNL     1       8.792   1.028  25.060  1.00  0.00     0.002 C 
HETATM   25  C15 UNL     1       8.132   2.297  25.567  1.00  0.00     0.025 C 
ENDBRANCH  18  20
ENDBRANCH  16  18
ENDBRANCH  14  16
ENDBRANCH   1  14
TORSDOF 8
ENDMDL
