MODEL 1
REMARK VINA RESULT: -6.393422437      0.000      0.000
REMARK  4 active torsions:
REMARK  status: ('A' for Active; 'I' for Inactive)
REMARK    1  A    between atoms: C2_2  and  N1_3 
REMARK       I    between atoms: N1_3  and  C3_5 
REMARK       I    between atoms: C3_5  and  N3_9 
REMARK       I    between atoms: C4_11  and  N4_12 
REMARK       I    between atoms: C4_11  and  N5_22 
REMARK    2  A    between atoms: N4_12  and  C5_14 
REMARK    3  A    between atoms: C5_14  and  C6_15 
REMARK    4  A    between atoms: C6_15  and  O1_16 
ROOT
HETATM    1  N1  UNL     1      17.093  11.368  23.246  1.00  0.00    -0.226 N 
ATOM      2  H1  UNL     1      17.368  11.950  22.456  1.00  0.00     0.177 HD
HETATM    3  C3  UNL     1      16.585  10.091  22.949  1.00  0.00     0.686 C 
HETATM    4  N2  UNL     1      17.381   9.100  22.641  1.00  0.00    -0.234 N 
ATOM      5  H21 UNL     1      17.012   8.173  22.426  1.00  0.00     0.174 HD
ATOM      6  H22 UNL     1      18.388   9.255  22.616  1.00  0.00     0.174 HD
HETATM    7  N3  UNL     1      15.192   9.876  22.984  1.00  0.00    -0.023 N 
ATOM      8  H3  UNL     1      14.870   9.085  23.543  1.00  0.00     0.203 HD
HETATM    9  C4  UNL     1      14.291  10.557  22.397  1.00  0.00     0.691 C 
HETATM   10  N4  UNL     1      12.938  10.175  22.560  1.00  0.00    -0.214 N 
ATOM     11  H4  UNL     1      12.259  10.915  22.736  1.00  0.00     0.178 HD
HETATM   12  N5  UNL     1      14.593  11.661  21.604  1.00  0.00    -0.217 N 
HETATM   13  C11 UNL     1      14.388  13.001  22.092  1.00  0.00     0.142 C 
HETATM   14  C12 UNL     1      13.465  13.720  21.103  1.00  0.00     0.029 C 
HETATM   15  C13 UNL     1      13.935  13.657  19.694  1.00  0.00    -0.045 C 
HETATM   16  C14 UNL     1      14.194  15.061  19.131  1.00  0.00     0.015 C 
HETATM   17  C15 UNL     1      12.846  13.069  18.812  1.00  0.00     0.015 C 
HETATM   18  C16 UNL     1      15.209  12.875  19.584  1.00  0.00     0.029 C 
HETATM   19  C17 UNL     1      15.115  11.513  20.267  1.00  0.00     0.142 C 
ENDROOT
BRANCH  10  20
HETATM   20  C5  UNL     1      12.450   8.838  22.498  1.00  0.00     0.068 C 
HETATM   21  C7  UNL     1      10.957   8.869  22.254  1.00  0.00     0.033 C 
HETATM   22  C8  UNL     1      10.382   7.721  23.034  1.00  0.00     0.003 C 
HETATM   23  C9  UNL     1      11.516   7.032  23.713  1.00  0.00     0.003 C 
HETATM   24  C10 UNL     1      12.574   8.106  23.822  1.00  0.00     0.033 C 
BRANCH  20  25
HETATM   25  C6  UNL     1      13.089   8.020  21.396  1.00  0.00     0.195 C 
BRANCH  25  26
HETATM   26  O1  UNL     1      14.222   7.348  21.785  1.00  0.00    -0.398 OA
ATOM     27  H1  UNL     1      14.928   7.915  22.071  1.00  0.00     0.209 HD
ENDBRANCH  25  26
ENDBRANCH  20  25
ENDBRANCH  10  20
BRANCH   1  28
HETATM   28  C2  UNL     1      17.259  11.926  24.543  1.00  0.00     0.133 C 
HETATM   29  C1  UNL     1      18.103  11.081  25.462  1.00  0.00     0.027 C 
ENDBRANCH   1  28
TORSDOF 4
ENDMDL
MODEL 2
REMARK VINA RESULT: -6.086788892      0.968      1.322
REMARK  4 active torsions:
REMARK  status: ('A' for Active; 'I' for Inactive)
REMARK    1  A    between atoms: C2_2  and  N1_3 
REMARK       I    between atoms: N1_3  and  C3_5 
REMARK       I    between atoms: C3_5  and  N3_9 
REMARK       I    between atoms: C4_11  and  N4_12 
REMARK       I    between atoms: C4_11  and  N5_22 
REMARK    2  A    between atoms: N4_12  and  C5_14 
REMARK    3  A    between atoms: C5_14  and  C6_15 
REMARK    4  A    between atoms: C6_15  and  O1_16 
ROOT
HETATM    1  N1  UNL     1      17.270  11.460  22.816  1.00  0.00    -0.226 N 
ATOM      2  H1  UNL     1      17.422  11.822  21.875  1.00  0.00     0.177 HD
HETATM    3  C3  UNL     1      16.603  10.227  22.921  1.00  0.00     0.686 C 
HETATM    4  N2  UNL     1      17.228   9.098  22.710  1.00  0.00    -0.234 N 
ATOM      5  H21 UNL     1      16.744   8.203  22.787  1.00  0.00     0.174 HD
ATOM      6  H22 UNL     1      18.217   9.112  22.463  1.00  0.00     0.174 HD
HETATM    7  N3  UNL     1      15.235  10.208  23.262  1.00  0.00    -0.023 N 
ATOM      8  H3  UNL     1      14.970   9.601  24.039  1.00  0.00     0.203 HD
HETATM    9  C4  UNL     1      14.293  10.863  22.710  1.00  0.00     0.691 C 
HETATM   10  N4  UNL     1      12.976  10.704  23.205  1.00  0.00    -0.214 N 
ATOM     11  H4  UNL     1      12.415  11.547  23.327  1.00  0.00     0.178 HD
HETATM   12  N5  UNL     1      14.516  11.727  21.641  1.00  0.00    -0.217 N 
HETATM   13  C11 UNL     1      14.534  13.155  21.835  1.00  0.00     0.142 C 
HETATM   14  C12 UNL     1      13.490  13.764  20.894  1.00  0.00     0.029 C 
HETATM   15  C13 UNL     1      13.647  13.347  19.476  1.00  0.00    -0.045 C 
HETATM   16  C14 UNL     1      13.902  14.555  18.565  1.00  0.00     0.015 C 
HETATM   17  C15 UNL     1      12.351  12.734  18.972  1.00  0.00     0.015 C 
HETATM   18  C16 UNL     1      14.797  12.399  19.317  1.00  0.00     0.029 C 
HETATM   19  C17 UNL     1      14.731  11.234  20.302  1.00  0.00     0.142 C 
ENDROOT
BRANCH  10  20
HETATM   20  C5  UNL     1      12.373   9.460  23.546  1.00  0.00     0.068 C 
HETATM   21  C7  UNL     1      12.664   8.455  22.452  1.00  0.00     0.033 C 
HETATM   22  C8  UNL     1      11.436   7.598  22.334  1.00  0.00     0.003 C 
HETATM   23  C9  UNL     1      10.452   8.089  23.340  1.00  0.00     0.003 C 
HETATM   24  C10 UNL     1      10.856   9.528  23.564  1.00  0.00     0.033 C 
BRANCH  20  25
HETATM   25  C6  UNL     1      12.878   8.890  24.854  1.00  0.00     0.195 C 
BRANCH  25  26
HETATM   26  O1  UNL     1      13.888   7.970  24.709  1.00  0.00    -0.398 OA
ATOM     27  H1  UNL     1      14.348   7.772  25.516  1.00  0.00     0.209 HD
ENDBRANCH  25  26
ENDBRANCH  20  25
ENDBRANCH  10  20
BRANCH   1  28
HETATM   28  C2  UNL     1      17.751  12.251  23.894  1.00  0.00     0.133 C 
HETATM   29  C1  UNL     1      18.428  11.452  24.977  1.00  0.00     0.027 C 
ENDBRANCH   1  28
TORSDOF 4
ENDMDL
MODEL 3
REMARK VINA RESULT: -5.796995217      8.735     10.659
REMARK  4 active torsions:
REMARK  status: ('A' for Active; 'I' for Inactive)
REMARK    1  A    between atoms: C2_2  and  N1_3 
REMARK       I    between atoms: N1_3  and  C3_5 
REMARK       I    between atoms: C3_5  and  N3_9 
REMARK       I    between atoms: C4_11  and  N4_12 
REMARK       I    between atoms: C4_11  and  N5_22 
REMARK    2  A    between atoms: N4_12  and  C5_14 
REMARK    3  A    between atoms: C5_14  and  C6_15 
REMARK    4  A    between atoms: C6_15  and  O1_16 
ROOT
HETATM    1  N1  UNL     1       4.672   6.149  28.103  1.00  0.00    -0.226 N 
ATOM      2  H1  UNL     1       4.546   7.148  27.947  1.00  0.00     0.177 HD
HETATM    3  C3  UNL     1       5.990   5.660  28.060  1.00  0.00     0.686 C 
HETATM    4  N2  UNL     1       6.800   5.806  29.075  1.00  0.00    -0.234 N 
ATOM      5  H21 UNL     1       7.756   5.450  29.044  1.00  0.00     0.174 HD
ATOM      6  H22 UNL     1       6.472   6.283  29.914  1.00  0.00     0.174 HD
HETATM    7  N3  UNL     1       6.444   4.999  26.900  1.00  0.00    -0.023 N 
ATOM      8  H3  UNL     1       6.873   4.084  27.039  1.00  0.00     0.203 HD
HETATM    9  C4  UNL     1       6.378   5.416  25.698  1.00  0.00     0.691 C 
HETATM   10  N4  UNL     1       6.895   4.596  24.667  1.00  0.00    -0.214 N 
ATOM     11  H4  UNL     1       6.335   4.499  23.820  1.00  0.00     0.178 HD
HETATM   12  N5  UNL     1       5.817   6.647  25.370  1.00  0.00    -0.217 N 
HETATM   13  C11 UNL     1       4.498   6.729  24.794  1.00  0.00     0.142 C 
HETATM   14  C12 UNL     1       4.617   7.483  23.466  1.00  0.00     0.029 C 
HETATM   15  C13 UNL     1       5.305   8.796  23.584  1.00  0.00    -0.045 C 
HETATM   16  C14 UNL     1       4.385   9.947  23.157  1.00  0.00     0.015 C 
HETATM   17  C15 UNL     1       6.483   8.849  22.624  1.00  0.00     0.015 C 
HETATM   18  C16 UNL     1       5.739   9.053  24.995  1.00  0.00     0.029 C 
HETATM   19  C17 UNL     1       6.528   7.885  25.583  1.00  0.00     0.142 C 
ENDROOT
BRANCH  10  20
HETATM   20  C5  UNL     1       8.135   3.897  24.719  1.00  0.00     0.068 C 
HETATM   21  C7  UNL     1       9.263   4.874  24.469  1.00  0.00     0.033 C 
HETATM   22  C8  UNL     1      10.298   4.124  23.680  1.00  0.00     0.003 C 
HETATM   23  C9  UNL     1       9.787   2.738  23.479  1.00  0.00     0.003 C 
HETATM   24  C10 UNL     1       8.288   2.889  23.594  1.00  0.00     0.033 C 
BRANCH  20  25
HETATM   25  C6  UNL     1       8.384   3.223  26.052  1.00  0.00     0.195 C 
BRANCH  25  26
HETATM   26  O1  UNL     1       7.583   2.131  26.283  1.00  0.00    -0.398 OA
ATOM     27  H1  UNL     1       6.874   2.295  26.893  1.00  0.00     0.209 HD
ENDBRANCH  25  26
ENDBRANCH  20  25
ENDBRANCH  10  20
BRANCH   1  28
HETATM   28  C2  UNL     1       3.498   5.384  28.343  1.00  0.00     0.133 C 
HETATM   29  C1  UNL     1       2.235   6.205  28.373  1.00  0.00     0.027 C 
ENDBRANCH   1  28
TORSDOF 4
ENDMDL
MODEL 4
REMARK VINA RESULT: -5.764408134      3.150      6.770
REMARK  4 active torsions:
REMARK  status: ('A' for Active; 'I' for Inactive)
REMARK    1  A    between atoms: C2_2  and  N1_3 
REMARK       I    between atoms: N1_3  and  C3_5 
REMARK       I    between atoms: C3_5  and  N3_9 
REMARK       I    between atoms: C4_11  and  N4_12 
REMARK       I    between atoms: C4_11  and  N5_22 
REMARK    2  A    between atoms: N4_12  and  C5_14 
REMARK    3  A    between atoms: C5_14  and  C6_15 
REMARK    4  A    between atoms: C6_15  and  O1_16 
ROOT
HETATM    1  N1  UNL     1      14.246  13.930  18.138  1.00  0.00    -0.226 N 
ATOM      2  H1  UNL     1      13.844  13.008  17.974  1.00  0.00     0.177 HD
HETATM    3  C3  UNL     1      15.617  13.979  18.449  1.00  0.00     0.686 C 
HETATM    4  N2  UNL     1      16.528  13.871  17.517  1.00  0.00    -0.234 N 
ATOM      5  H21 UNL     1      17.522  13.906  17.743  1.00  0.00     0.174 HD
ATOM      6  H22 UNL     1      16.240  13.749  16.547  1.00  0.00     0.174 HD
HETATM    7  N3  UNL     1      16.015  14.147  19.791  1.00  0.00    -0.023 N 
ATOM      8  H3  UNL     1      16.682  14.898  19.974  1.00  0.00     0.203 HD
HETATM    9  C4  UNL     1      15.636  13.469  20.800  1.00  0.00     0.691 C 
HETATM   10  N4  UNL     1      16.158  13.800  22.074  1.00  0.00    -0.214 N 
ATOM     11  H4  UNL     1      15.503  13.833  22.855  1.00  0.00     0.178 HD
HETATM   12  N5  UNL     1      14.730  12.418  20.690  1.00  0.00    -0.217 N 
HETATM   13  C11 UNL     1      13.355  12.582  21.088  1.00  0.00     0.142 C 
HETATM   14  C12 UNL     1      13.043  11.506  22.133  1.00  0.00     0.029 C 
HETATM   15  C13 UNL     1      13.382  10.127  21.691  1.00  0.00    -0.045 C 
HETATM   16  C14 UNL     1      12.138   9.230  21.665  1.00  0.00     0.015 C 
HETATM   17  C15 UNL     1      14.320   9.479  22.696  1.00  0.00     0.015 C 
HETATM   18  C16 UNL     1      13.975  10.133  20.315  1.00  0.00     0.029 C 
HETATM   19  C17 UNL     1      15.126  11.126  20.182  1.00  0.00     0.142 C 
ENDROOT
BRANCH  10  20
HETATM   20  C5  UNL     1      17.524  14.089  22.351  1.00  0.00     0.068 C 
HETATM   21  C7  UNL     1      17.908  13.445  23.665  1.00  0.00     0.033 C 
HETATM   22  C8  UNL     1      18.865  14.392  24.330  1.00  0.00     0.003 C 
HETATM   23  C9  UNL     1      19.040  15.561  23.422  1.00  0.00     0.003 C 
HETATM   24  C10 UNL     1      17.773  15.566  22.598  1.00  0.00     0.033 C 
BRANCH  20  25
HETATM   25  C6  UNL     1      18.470  13.579  21.284  1.00  0.00     0.195 C 
BRANCH  25  26
HETATM   26  O1  UNL     1      18.875  14.541  20.391  1.00  0.00    -0.398 OA
ATOM     27  H1  UNL     1      19.815  14.575  20.259  1.00  0.00     0.209 HD
ENDBRANCH  25  26
ENDBRANCH  20  25
ENDBRANCH  10  20
BRANCH   1  28
HETATM   28  C2  UNL     1      13.369  15.043  18.031  1.00  0.00     0.133 C 
HETATM   29  C1  UNL     1      13.931  16.317  18.606  1.00  0.00     0.027 C 
ENDBRANCH   1  28
TORSDOF 4
ENDMDL
MODEL 5
REMARK VINA RESULT: -5.690766099      2.182      2.685
REMARK  4 active torsions:
REMARK  status: ('A' for Active; 'I' for Inactive)
REMARK    1  A    between atoms: C2_2  and  N1_3 
REMARK       I    between atoms: N1_3  and  C3_5 
REMARK       I    between atoms: C3_5  and  N3_9 
REMARK       I    between atoms: C4_11  and  N4_12 
REMARK       I    between atoms: C4_11  and  N5_22 
REMARK    2  A    between atoms: N4_12  and  C5_14 
REMARK    3  A    between atoms: C5_14  and  C6_15 
REMARK    4  A    between atoms: C6_15  and  O1_16 
ROOT
HETATM    1  N1  UNL     1      16.924  11.562  22.071  1.00  0.00    -0.226 N 
ATOM      2  H1  UNL     1      16.672  11.612  21.085  1.00  0.00     0.177 HD
HETATM    3  C3  UNL     1      16.482  10.432  22.783  1.00  0.00     0.686 C 
HETATM    4  N2  UNL     1      17.099   9.284  22.683  1.00  0.00    -0.234 N 
ATOM      5  H21 UNL     1      16.779   8.465  23.200  1.00  0.00     0.174 HD
ATOM      6  H22 UNL     1      17.916   9.205  22.077  1.00  0.00     0.174 HD
HETATM    7  N3  UNL     1      15.353  10.541  23.621  1.00  0.00    -0.023 N 
ATOM      8  H3  UNL     1      15.467  10.209  24.579  1.00  0.00     0.203 HD
HETATM    9  C4  UNL     1      14.208  11.008  23.316  1.00  0.00     0.691 C 
HETATM   10  N4  UNL     1      13.200  11.030  24.309  1.00  0.00    -0.214 N 
ATOM     11  H4  UNL     1      12.638  11.878  24.389  1.00  0.00     0.178 HD
HETATM   12  N5  UNL     1      13.919  11.494  22.044  1.00  0.00    -0.217 N 
HETATM   13  C11 UNL     1      13.855  12.912  21.790  1.00  0.00     0.142 C 
HETATM   14  C12 UNL     1      12.475  13.216  21.200  1.00  0.00     0.029 C 
HETATM   15  C13 UNL     1      12.131  12.377  20.021  1.00  0.00    -0.045 C 
HETATM   16  C14 UNL     1      11.894  13.239  18.774  1.00  0.00     0.015 C 
HETATM   17  C15 UNL     1      10.814  11.658  20.265  1.00  0.00     0.015 C 
HETATM   18  C16 UNL     1      13.232  11.409  19.709  1.00  0.00     0.029 C 
HETATM   19  C17 UNL     1      13.667  10.608  20.934  1.00  0.00     0.142 C 
ENDROOT
BRANCH  10  20
HETATM   20  C5  UNL     1      12.906   9.962  25.204  1.00  0.00     0.068 C 
HETATM   21  C7  UNL     1      11.603  10.258  25.914  1.00  0.00     0.033 C 
HETATM   22  C8  UNL     1      11.760   9.733  27.312  1.00  0.00     0.003 C 
HETATM   23  C9  UNL     1      13.123   9.139  27.414  1.00  0.00     0.003 C 
HETATM   24  C10 UNL     1      13.907   9.856  26.340  1.00  0.00     0.033 C 
BRANCH  20  25
HETATM   25  C6  UNL     1      12.770   8.623  24.511  1.00  0.00     0.195 C 
BRANCH  25  26
HETATM   26  O1  UNL     1      13.938   7.902  24.455  1.00  0.00    -0.398 OA
ATOM     27  H1  UNL     1      14.659   8.299  24.929  1.00  0.00     0.209 HD
ENDBRANCH  25  26
ENDBRANCH  20  25
ENDBRANCH  10  20
BRANCH   1  28
HETATM   28  C2  UNL     1      17.687  12.640  22.594  1.00  0.00     0.133 C 
HETATM   29  C1  UNL     1      18.186  13.596  21.542  1.00  0.00     0.027 C 
ENDBRANCH   1  28
TORSDOF 4
ENDMDL
