MODEL 1
REMARK VINA RESULT: -7.135198336      0.000      0.000
REMARK  3 active torsions:
REMARK  status: ('A' for Active; 'I' for Inactive)
REMARK       I    between atoms: N1_2  and  C2_4 
REMARK       I    between atoms: C2_4  and  N2_6 
REMARK    1  A    between atoms: N2_6  and  C3_8 
REMARK    2  A    between atoms: C7_12  and  N3_13 
REMARK       I    between atoms: N3_13  and  C8_15 
REMARK       I    between atoms: C8_15  and  N4_17 
REMARK    3  A    between atoms: N4_17  and  C9_19 
ROOT
HETATM    1  N3  UNL     1       6.750   4.855  24.873  1.00  0.00    -0.337 N 
ATOM      2  H3  UNL     1       6.673   3.986  25.402  1.00  0.00     0.164 HD
HETATM    3  C8  UNL     1       5.838   5.898  25.166  1.00  0.00     0.317 C 
HETATM    4  O2  UNL     1       5.917   6.970  24.530  1.00  0.00    -0.247 OA
HETATM    5  N4  UNL     1       4.843   5.765  26.153  1.00  0.00    -0.334 N 
ATOM      6  H4  UNL     1       4.794   4.882  26.662  1.00  0.00     0.165 HD
ENDROOT
BRANCH   1   7
HETATM    7  C7  UNL     1       7.782   4.954  23.871  1.00  0.00     0.109 C 
HETATM    8  C3  UNL     1       8.597   3.675  23.828  1.00  0.00     0.109 C 
HETATM    9  C4  UNL     1      10.035   4.076  23.799  1.00  0.00     0.027 C 
HETATM   10  C5  UNL     1      10.052   5.581  23.624  1.00  0.00     0.004 C 
HETATM   11  C6  UNL     1       8.781   5.993  24.336  1.00  0.00     0.027 C 
BRANCH   8  12
HETATM   12  N2  UNL     1       8.272   2.806  24.935  1.00  0.00    -0.337 N 
HETATM   13  C2  UNL     1       8.229   1.406  24.849  1.00  0.00     0.316 C 
HETATM   14  N1  UNL     1       7.914   0.545  25.919  1.00  0.00    -0.347 N 
HETATM   15  O1  UNL     1       8.497   0.890  23.713  1.00  0.00    -0.247 OA
HETATM   16  C1  UNL     1       7.874  -0.896  25.813  1.00  0.00     0.151 C 
ATOM     17  H1  UNL     1       7.700   0.963  26.824  1.00  0.00     0.163 HD
ATOM     18  H2  UNL     1       8.061   3.237  25.835  1.00  0.00     0.164 HD
ENDBRANCH   8  12
ENDBRANCH   1   7
BRANCH   5  19
HETATM   19  C9  UNL     1       3.883   6.796  26.496  1.00  0.00     0.035 C 
HETATM   20  C10 UNL     1       3.048   7.246  25.336  1.00  0.00     0.035 C 
HETATM   21  C11 UNL     1       2.221   8.440  25.715  1.00  0.00    -0.012 C 
HETATM   22  C12 UNL     1       1.228   8.004  26.780  1.00  0.00     0.009 C 
HETATM   23  C16 UNL     1       3.086   9.548  26.218  1.00  0.00     0.009 C 
HETATM   24  C13 UNL     1       2.025   7.486  27.958  1.00  0.00    -0.012 C 
HETATM   25  C14 UNL     1       2.788   8.642  28.533  1.00  0.00     0.009 C 
HETATM   26  C18 UNL     1       2.917   6.321  27.581  1.00  0.00     0.035 C 
HETATM   27  C15 UNL     1       3.775   9.097  27.484  1.00  0.00    -0.012 C 
HETATM   28  C17 UNL     1       4.656   7.936  27.131  1.00  0.00     0.035 C 
ENDBRANCH   5  19
TORSDOF 3
ENDMDL
MODEL 2
REMARK VINA RESULT: -6.887034709      5.125      7.565
REMARK  3 active torsions:
REMARK  status: ('A' for Active; 'I' for Inactive)
REMARK       I    between atoms: N1_2  and  C2_4 
REMARK       I    between atoms: C2_4  and  N2_6 
REMARK    1  A    between atoms: N2_6  and  C3_8 
REMARK    2  A    between atoms: C7_12  and  N3_13 
REMARK       I    between atoms: N3_13  and  C8_15 
REMARK       I    between atoms: C8_15  and  N4_17 
REMARK    3  A    between atoms: N4_17  and  C9_19 
ROOT
HETATM    1  N3  UNL     1      11.375   9.476  21.762  1.00  0.00    -0.337 N 
ATOM      2  H3  UNL     1      11.082  10.419  22.017  1.00  0.00     0.164 HD
HETATM    3  C8  UNL     1      10.621   8.385  22.261  1.00  0.00     0.317 C 
HETATM    4  O2  UNL     1      10.964   7.222  21.961  1.00  0.00    -0.247 OA
HETATM    5  N4  UNL     1       9.496   8.570  23.087  1.00  0.00    -0.334 N 
ATOM      6  H4  UNL     1       9.232   9.527  23.322  1.00  0.00     0.165 HD
ENDROOT
BRANCH   1   7
HETATM    7  C7  UNL     1      12.532   9.326  20.915  1.00  0.00     0.109 C 
HETATM    8  C3  UNL     1      13.800   9.576  21.709  1.00  0.00     0.109 C 
HETATM    9  C4  UNL     1      14.657  10.482  20.886  1.00  0.00     0.027 C 
HETATM   10  C5  UNL     1      13.978  10.598  19.536  1.00  0.00     0.004 C 
HETATM   11  C6  UNL     1      12.517  10.458  19.908  1.00  0.00     0.027 C 
BRANCH   8  12
HETATM   12  N2  UNL     1      13.505  10.108  23.019  1.00  0.00    -0.337 N 
HETATM   13  C2  UNL     1      13.603   9.369  24.208  1.00  0.00     0.316 C 
HETATM   14  N1  UNL     1      13.319   9.872  25.493  1.00  0.00    -0.347 N 
HETATM   15  O1  UNL     1      13.978   8.153  24.102  1.00  0.00    -0.247 OA
HETATM   16  C1  UNL     1      13.425   9.097  26.708  1.00  0.00     0.151 C 
ATOM     17  H1  UNL     1      13.020  10.844  25.571  1.00  0.00     0.163 HD
ATOM     18  H2  UNL     1      13.208  11.081  23.084  1.00  0.00     0.164 HD
ENDBRANCH   8  12
ENDBRANCH   1   7
BRANCH   5  19
HETATM   19  C9  UNL     1       8.687   7.494  23.627  1.00  0.00     0.035 C 
HETATM   20  C10 UNL     1       9.488   6.430  24.312  1.00  0.00     0.035 C 
HETATM   21  C11 UNL     1       8.614   5.264  24.671  1.00  0.00    -0.012 C 
HETATM   22  C12 UNL     1       7.603   5.734  25.703  1.00  0.00     0.009 C 
HETATM   23  C16 UNL     1       7.924   4.724  23.460  1.00  0.00     0.009 C 
HETATM   24  C13 UNL     1       6.801   6.854  25.076  1.00  0.00    -0.012 C 
HETATM   25  C14 UNL     1       6.013   6.268  23.943  1.00  0.00     0.009 C 
HETATM   26  C18 UNL     1       7.674   8.015  24.646  1.00  0.00     0.035 C 
HETATM   27  C15 UNL     1       7.002   5.784  22.908  1.00  0.00    -0.012 C 
HETATM   28  C17 UNL     1       7.850   6.947  22.487  1.00  0.00     0.035 C 
ENDBRANCH   5  19
TORSDOF 3
ENDMDL
MODEL 3
REMARK VINA RESULT: -6.850193412      2.662      4.496
REMARK  3 active torsions:
REMARK  status: ('A' for Active; 'I' for Inactive)
REMARK       I    between atoms: N1_2  and  C2_4 
REMARK       I    between atoms: C2_4  and  N2_6 
REMARK    1  A    between atoms: N2_6  and  C3_8 
REMARK    2  A    between atoms: C7_12  and  N3_13 
REMARK       I    between atoms: N3_13  and  C8_15 
REMARK       I    between atoms: C8_15  and  N4_17 
REMARK    3  A    between atoms: N4_17  and  C9_19 
ROOT
HETATM    1  N3  UNL     1       7.530   3.749  25.591  1.00  0.00    -0.337 N 
ATOM      2  H3  UNL     1       6.972   4.012  24.778  1.00  0.00     0.164 HD
HETATM    3  C8  UNL     1       7.196   4.321  26.842  1.00  0.00     0.317 C 
HETATM    4  O2  UNL     1       7.866   4.013  27.850  1.00  0.00    -0.247 OA
HETATM    5  N4  UNL     1       6.129   5.230  26.988  1.00  0.00    -0.334 N 
ATOM      6  H4  UNL     1       5.593   5.469  26.154  1.00  0.00     0.165 HD
ENDROOT
BRANCH   1   7
HETATM    7  C7  UNL     1       8.613   2.817  25.403  1.00  0.00     0.109 C 
HETATM    8  C3  UNL     1       9.210   2.978  24.018  1.00  0.00     0.109 C 
HETATM    9  C4  UNL     1       9.364   1.606  23.448  1.00  0.00     0.027 C 
HETATM   10  C5  UNL     1       9.044   0.641  24.572  1.00  0.00     0.004 C 
HETATM   11  C6  UNL     1       8.023   1.422  25.373  1.00  0.00     0.027 C 
BRANCH   8  12
HETATM   12  N2  UNL     1       8.403   3.848  23.194  1.00  0.00    -0.337 N 
HETATM   13  C2  UNL     1       8.524   5.245  23.173  1.00  0.00     0.316 C 
HETATM   14  N1  UNL     1       7.746   6.108  22.377  1.00  0.00    -0.347 N 
HETATM   15  O1  UNL     1       9.409   5.759  23.937  1.00  0.00    -0.247 OA
HETATM   16  C1  UNL     1       7.883   7.547  22.367  1.00  0.00     0.151 C 
ATOM     17  H1  UNL     1       7.041   5.692  21.769  1.00  0.00     0.163 HD
ATOM     18  H2  UNL     1       7.702   3.419  22.590  1.00  0.00     0.164 HD
ENDBRANCH   8  12
ENDBRANCH   1   7
BRANCH   5  19
HETATM   19  C9  UNL     1       5.740   5.847  28.241  1.00  0.00     0.035 C 
HETATM   20  C10 UNL     1       6.515   5.345  29.421  1.00  0.00     0.035 C 
HETATM   21  C11 UNL     1       5.933   5.877  30.697  1.00  0.00    -0.012 C 
HETATM   22  C12 UNL     1       6.120   7.385  30.705  1.00  0.00     0.009 C 
HETATM   23  C16 UNL     1       4.488   5.521  30.811  1.00  0.00     0.009 C 
HETATM   24  C13 UNL     1       5.399   7.939  29.495  1.00  0.00    -0.012 C 
HETATM   25  C14 UNL     1       3.932   7.689  29.688  1.00  0.00     0.009 C 
HETATM   26  C18 UNL     1       5.928   7.363  28.197  1.00  0.00     0.035 C 
HETATM   27  C15 UNL     1       3.727   6.192  29.693  1.00  0.00    -0.012 C 
HETATM   28  C17 UNL     1       4.246   5.641  28.398  1.00  0.00     0.035 C 
ENDBRANCH   5  19
TORSDOF 3
ENDMDL
MODEL 4
REMARK VINA RESULT: -6.842600158      4.081      8.002
REMARK  3 active torsions:
REMARK  status: ('A' for Active; 'I' for Inactive)
REMARK       I    between atoms: N1_2  and  C2_4 
REMARK       I    between atoms: C2_4  and  N2_6 
REMARK    1  A    between atoms: N2_6  and  C3_8 
REMARK    2  A    between atoms: C7_12  and  N3_13 
REMARK       I    between atoms: N3_13  and  C8_15 
REMARK       I    between atoms: C8_15  and  N4_17 
REMARK    3  A    between atoms: N4_17  and  C9_19 
ROOT
HETATM    1  N3  UNL     1       8.880   6.619  23.328  1.00  0.00    -0.337 N 
ATOM      2  H3  UNL     1       9.016   5.787  22.753  1.00  0.00     0.164 HD
HETATM    3  C8  UNL     1       9.848   7.650  23.250  1.00  0.00     0.317 C 
HETATM    4  O2  UNL     1       9.700   8.676  23.946  1.00  0.00    -0.247 OA
HETATM    5  N4  UNL     1      10.975   7.555  22.411  1.00  0.00    -0.334 N 
ATOM      6  H4  UNL     1      11.079   6.709  21.850  1.00  0.00     0.165 HD
ENDROOT
BRANCH   1   7
HETATM    7  C7  UNL     1       7.714   6.680  24.174  1.00  0.00     0.109 C 
HETATM    8  C3  UNL     1       7.254   5.281  24.536  1.00  0.00     0.109 C 
HETATM    9  C4  UNL     1       5.775   5.244  24.335  1.00  0.00     0.027 C 
HETATM   10  C5  UNL     1       5.349   6.670  24.049  1.00  0.00     0.004 C 
HETATM   11  C6  UNL     1       6.569   7.224  23.344  1.00  0.00     0.027 C 
BRANCH   8  12
HETATM   12  N2  UNL     1       7.957   4.280  23.768  1.00  0.00    -0.337 N 
HETATM   13  C2  UNL     1       8.290   3.007  24.254  1.00  0.00     0.316 C 
HETATM   14  N1  UNL     1       8.975   2.019  23.518  1.00  0.00    -0.347 N 
HETATM   15  O1  UNL     1       7.940   2.737  25.452  1.00  0.00    -0.247 OA
HETATM   16  C1  UNL     1       9.310   0.712  24.034  1.00  0.00     0.151 C 
ATOM     17  H1  UNL     1       9.252   2.241  22.562  1.00  0.00     0.163 HD
ATOM     18  H2  UNL     1       8.228   4.514  22.813  1.00  0.00     0.164 HD
ENDBRANCH   8  12
ENDBRANCH   1   7
BRANCH   5  19
HETATM   19  C9  UNL     1      11.998   8.576  22.290  1.00  0.00     0.035 C 
HETATM   20  C10 UNL     1      12.711   8.864  23.576  1.00  0.00     0.035 C 
HETATM   21  C11 UNL     1      13.610  10.055  23.422  1.00  0.00    -0.012 C 
HETATM   22  C12 UNL     1      14.702   9.694  22.428  1.00  0.00     0.009 C 
HETATM   23  C16 UNL     1      12.840  11.246  22.955  1.00  0.00     0.009 C 
HETATM   24  C13 UNL     1      14.027   9.339  21.121  1.00  0.00    -0.012 C 
HETATM   25  C14 UNL     1      13.367  10.581  20.599  1.00  0.00     0.009 C 
HETATM   26  C18 UNL     1      13.063   8.179  21.268  1.00  0.00     0.035 C 
HETATM   27  C15 UNL     1      12.283  10.962  21.581  1.00  0.00    -0.012 C 
HETATM   28  C17 UNL     1      11.334   9.808  21.706  1.00  0.00     0.035 C 
ENDBRANCH   5  19
TORSDOF 3
ENDMDL
MODEL 5
REMARK VINA RESULT: -6.809462709      5.039      7.259
REMARK  3 active torsions:
REMARK  status: ('A' for Active; 'I' for Inactive)
REMARK       I    between atoms: N1_2  and  C2_4 
REMARK       I    between atoms: C2_4  and  N2_6 
REMARK    1  A    between atoms: N2_6  and  C3_8 
REMARK    2  A    between atoms: C7_12  and  N3_13 
REMARK       I    between atoms: N3_13  and  C8_15 
REMARK       I    between atoms: C8_15  and  N4_17 
REMARK    3  A    between atoms: N4_17  and  C9_19 
ROOT
HETATM    1  N3  UNL     1      11.303   9.433  21.907  1.00  0.00    -0.337 N 
ATOM      2  H3  UNL     1      11.075  10.384  22.197  1.00  0.00     0.164 HD
HETATM    3  C8  UNL     1      10.456   8.382  22.335  1.00  0.00     0.317 C 
HETATM    4  O2  UNL     1      10.719   7.211  21.991  1.00  0.00    -0.247 OA
HETATM    5  N4  UNL     1       9.323   8.617  23.139  1.00  0.00    -0.334 N 
ATOM      6  H4  UNL     1       9.125   9.580  23.410  1.00  0.00     0.165 HD
ENDROOT
BRANCH   1   7
HETATM    7  C7  UNL     1      12.471   9.233  21.084  1.00  0.00     0.109 C 
HETATM    8  C3  UNL     1      13.731   9.445  21.901  1.00  0.00     0.109 C 
HETATM    9  C4  UNL     1      14.636  10.311  21.087  1.00  0.00     0.027 C 
HETATM   10  C5  UNL     1      13.989  10.436  19.722  1.00  0.00     0.004 C 
HETATM   11  C6  UNL     1      12.516  10.354  20.066  1.00  0.00     0.027 C 
BRANCH   8  12
HETATM   12  N2  UNL     1      13.430  10.001  23.199  1.00  0.00    -0.337 N 
HETATM   13  C2  UNL     1      13.526   9.286  24.402  1.00  0.00     0.316 C 
HETATM   14  N1  UNL     1      13.236   9.812  25.677  1.00  0.00    -0.347 N 
HETATM   15  O1  UNL     1      13.905   8.069  24.321  1.00  0.00    -0.247 OA
HETATM   16  C1  UNL     1      13.340   9.061  26.907  1.00  0.00     0.151 C 
ATOM     17  H1  UNL     1      12.934  10.785  25.735  1.00  0.00     0.163 HD
ATOM     18  H2  UNL     1      13.130  10.975  23.244  1.00  0.00     0.164 HD
ENDBRANCH   8  12
ENDBRANCH   1   7
BRANCH   5  19
HETATM   19  C9  UNL     1       8.421   7.583  23.607  1.00  0.00     0.035 C 
HETATM   20  C10 UNL     1       7.671   6.899  22.505  1.00  0.00     0.035 C 
HETATM   21  C11 UNL     1       6.622   5.986  23.071  1.00  0.00    -0.012 C 
HETATM   22  C12 UNL     1       7.328   4.873  23.829  1.00  0.00     0.009 C 
HETATM   23  C16 UNL     1       5.694   6.735  23.969  1.00  0.00     0.009 C 
HETATM   24  C13 UNL     1       8.148   5.520  24.925  1.00  0.00    -0.012 C 
HETATM   25  C14 UNL     1       7.192   6.156  25.890  1.00  0.00     0.009 C 
HETATM   26  C18 UNL     1       9.169   6.496  24.378  1.00  0.00     0.035 C 
HETATM   27  C15 UNL     1       6.473   7.260  25.151  1.00  0.00    -0.012 C 
HETATM   28  C17 UNL     1       7.498   8.222  24.627  1.00  0.00     0.035 C 
ENDBRANCH   5  19
TORSDOF 3
ENDMDL
