MODEL 1
REMARK VINA RESULT: -8.526719176      0.000      0.000
REMARK  21 active torsions:
REMARK  status: ('A' for Active; 'I' for Inactive)
REMARK    1  A    between atoms: N2_7  and  C5_8 
REMARK    2  A    between atoms: C5_8  and  C6_9 
REMARK    3  A    between atoms: C6_9  and  N4_13 
REMARK    4  A    between atoms: N4_13  and  C7_15 
REMARK    5  A    between atoms: C7_15  and  C8_16 
REMARK    6  A    between atoms: C8_16  and  C9_17 
REMARK    7  A    between atoms: C9_17  and  N5_18 
REMARK    8  A    between atoms: N5_18  and  N6_19 
REMARK       I    between atoms: N5_18  and  C14_28 
REMARK    9  A    between atoms: N6_19  and  C10_20 
REMARK   10  A    between atoms: C10_20  and  C11_21 
REMARK   11  A    between atoms: C11_21  and  C12_22 
REMARK   12  A    between atoms: C12_22  and  N7_23 
REMARK   13  A    between atoms: C14_28  and  C15_30 
REMARK   14  A    between atoms: C15_30  and  C16_31 
REMARK   15  A    between atoms: C20_35  and  C21_36 
REMARK   16  A    between atoms: C21_36  and  C22_37 
REMARK   17  A    between atoms: C22_37  and  C23_38 
REMARK       I    between atoms: C23_38  and  N10_40 
REMARK   18  A    between atoms: N10_40  and  C24_42 
REMARK   19  A    between atoms: C24_42  and  C25_43 
REMARK   20  A    between atoms: C25_43  and  C26_44 
REMARK   21  A    between atoms: C26_44  and  N11_45 
ROOT
HETATM    1  N5  UNL     1     -11.186  15.049  27.298  1.00  0.00    -0.243 N 
HETATM    2  C14 UNL     1     -10.518  14.587  28.489  1.00  0.00     0.243 C 
HETATM    3  O1  UNL     1      -9.266  14.283  28.343  1.00  0.00    -0.271 OA
ENDROOT
BRANCH   1   4
HETATM    4  C9  UNL     1     -10.408  15.169  26.173  1.00  0.00     0.090 C 
BRANCH   4   5
HETATM    5  C8  UNL     1     -10.143  16.459  25.469  1.00  0.00     0.066 C 
BRANCH   5   6
HETATM    6  C7  UNL     1      -8.910  17.071  26.242  1.00  0.00     0.126 C 
BRANCH   6   7
HETATM    7  N4  UNL     1      -8.146  17.856  25.304  1.00  0.00    -0.378 N 
ATOM      8  H4  UNL     1      -8.429  18.820  25.127  1.00  0.00     0.160 HD
BRANCH   7   9
HETATM    9  C6  UNL     1      -7.038  17.349  24.631  1.00  0.00     0.089 C 
HETATM   10  N3  UNL     1      -7.239  16.783  23.439  1.00  0.00    -0.388 N 
ATOM     11  H32 UNL     1      -6.427  16.411  22.945  1.00  0.00     0.157 HD
ATOM     12  H31 UNL     1      -8.217  16.805  23.148  1.00  0.00     0.157 HD
BRANCH   9  13
HETATM   13  C5  UNL     1      -5.634  17.317  25.048  1.00  0.00     0.205 C 
BRANCH  13  14
HETATM   14  N2  UNL     1      -5.094  18.652  25.167  1.00  0.00    -0.339 N 
HETATM   15  C2  UNL     1      -4.603  19.331  26.189  1.00  0.00     0.079 A 
HETATM   16  C1  UNL     1      -4.314  18.858  27.567  1.00  0.00     0.089 C 
HETATM   17  N1  UNL     1      -4.319  20.593  25.745  1.00  0.00    -0.355 N 
HETATM   18  C3  UNL     1      -4.632  20.671  24.463  1.00  0.00     0.106 A 
ATOM     19  H1  UNL     1      -3.930  21.349  26.309  1.00  0.00     0.166 HD
HETATM   20  C4  UNL     1      -5.121  19.467  24.068  1.00  0.00     0.110 A 
ENDBRANCH  13  14
ENDBRANCH   9  13
ENDBRANCH   7   9
ENDBRANCH   6   7
ENDBRANCH   5   6
ENDBRANCH   4   5
ENDBRANCH   1   4
BRANCH   1  21
HETATM   21  N6  UNL     1     -12.509  15.438  27.584  1.00  0.00    -0.132 NA
BRANCH  21  22
HETATM   22  C10 UNL     1     -13.488  14.584  26.949  1.00  0.00     0.137 C 
BRANCH  22  23
HETATM   23  C11 UNL     1     -14.706  14.502  27.831  1.00  0.00     0.037 C 
BRANCH  23  24
HETATM   24  C12 UNL     1     -14.627  13.673  29.055  1.00  0.00     0.123 C 
BRANCH  24  25
HETATM   25  N7  UNL     1     -14.651  14.654  30.171  1.00  0.00    -0.367 N 
HETATM   26  C13 UNL     1     -15.104  14.286  31.308  1.00  0.00     0.196 C 
HETATM   27  N8  UNL     1     -15.565  12.969  31.503  1.00  0.00    -0.067 NA
HETATM   28  N9  UNL     1     -15.195  15.207  32.391  1.00  0.00    -0.067 NA
ATOM     29  H7  UNL     1     -14.311  15.606  30.032  1.00  0.00     0.161 HD
ENDBRANCH  24  25
ENDBRANCH  23  24
ENDBRANCH  22  23
ENDBRANCH  21  22
ENDBRANCH   1  21
BRANCH   2  30
HETATM   30  C15 UNL     1     -11.072  14.405  29.822  1.00  0.00     0.143 C 
BRANCH  30  31
HETATM   31  C16 UNL     1     -10.280  15.320  30.707  1.00  0.00    -0.049 A 
HETATM   32  C17 UNL     1      -9.991  16.576  30.271  1.00  0.00     0.007 A 
HETATM   33  C18 UNL     1      -9.134  17.380  31.025  1.00  0.00     0.001 A 
HETATM   34  C19 UNL     1      -8.621  16.847  32.191  1.00  0.00     0.007 A 
HETATM   35  C20 UNL     1      -8.912  15.576  32.640  1.00  0.00    -0.057 A 
HETATM   36  C28 UNL     1      -9.752  14.809  31.885  1.00  0.00     0.014 A 
BRANCH  35  37
HETATM   37  C21 UNL     1      -8.292  15.054  33.885  1.00  0.00     0.048 C 
BRANCH  37  38
HETATM   38  C22 UNL     1      -8.997  15.809  34.985  1.00  0.00     0.107 C 
BRANCH  38  39
HETATM   39  C23 UNL     1     -10.425  15.527  35.162  1.00  0.00     0.217 C 
HETATM   40  O2  UNL     1     -11.296  16.390  35.170  1.00  0.00    -0.274 OA
HETATM   41  N10 UNL     1     -10.739  14.131  35.322  1.00  0.00    -0.361 N 
ATOM     42  H10 UNL     1     -10.003  13.428  35.264  1.00  0.00     0.162 HD
BRANCH  41  43
HETATM   43  C24 UNL     1     -12.090  13.742  35.562  1.00  0.00     0.124 C 
BRANCH  43  44
HETATM   44  C25 UNL     1     -12.732  13.474  34.188  1.00  0.00     0.039 C 
BRANCH  44  45
HETATM   45  C26 UNL     1     -13.389  12.070  34.293  1.00  0.00     0.123 C 
BRANCH  45  46
HETATM   46  N11 UNL     1     -13.304  11.434  33.005  1.00  0.00    -0.367 N 
HETATM   47  C27 UNL     1     -13.257  10.167  32.855  1.00  0.00     0.196 C 
HETATM   48  N12 UNL     1     -13.177   9.639  31.553  1.00  0.00    -0.067 NA
HETATM   49  N13 UNL     1     -13.287   9.336  34.015  1.00  0.00    -0.067 NA
ATOM     50  H11 UNL     1     -13.280  12.023  32.173  1.00  0.00     0.161 HD
ENDBRANCH  45  46
ENDBRANCH  44  45
ENDBRANCH  43  44
ENDBRANCH  41  43
ENDBRANCH  38  39
ENDBRANCH  37  38
ENDBRANCH  35  37
ENDBRANCH  30  31
ENDBRANCH   2  30
TORSDOF 21
ENDMDL
MODEL 2
REMARK VINA RESULT: -8.262375551      2.646     10.065
REMARK  21 active torsions:
REMARK  status: ('A' for Active; 'I' for Inactive)
REMARK    1  A    between atoms: N2_7  and  C5_8 
REMARK    2  A    between atoms: C5_8  and  C6_9 
REMARK    3  A    between atoms: C6_9  and  N4_13 
REMARK    4  A    between atoms: N4_13  and  C7_15 
REMARK    5  A    between atoms: C7_15  and  C8_16 
REMARK    6  A    between atoms: C8_16  and  C9_17 
REMARK    7  A    between atoms: C9_17  and  N5_18 
REMARK    8  A    between atoms: N5_18  and  N6_19 
REMARK       I    between atoms: N5_18  and  C14_28 
REMARK    9  A    between atoms: N6_19  and  C10_20 
REMARK   10  A    between atoms: C10_20  and  C11_21 
REMARK   11  A    between atoms: C11_21  and  C12_22 
REMARK   12  A    between atoms: C12_22  and  N7_23 
REMARK   13  A    between atoms: C14_28  and  C15_30 
REMARK   14  A    between atoms: C15_30  and  C16_31 
REMARK   15  A    between atoms: C20_35  and  C21_36 
REMARK   16  A    between atoms: C21_36  and  C22_37 
REMARK   17  A    between atoms: C22_37  and  C23_38 
REMARK       I    between atoms: C23_38  and  N10_40 
REMARK   18  A    between atoms: N10_40  and  C24_42 
REMARK   19  A    between atoms: C24_42  and  C25_43 
REMARK   20  A    between atoms: C25_43  and  C26_44 
REMARK   21  A    between atoms: C26_44  and  N11_45 
ROOT
HETATM    1  N5  UNL     1     -10.183  15.629  28.137  1.00  0.00    -0.243 N 
HETATM    2  C14 UNL     1      -9.002  15.768  27.322  1.00  0.00     0.243 C 
HETATM    3  O1  UNL     1      -9.216  16.014  26.068  1.00  0.00    -0.271 OA
ENDROOT
BRANCH   1   4
HETATM    4  C9  UNL     1     -11.384  15.833  27.504  1.00  0.00     0.090 C 
BRANCH   4   5
HETATM    5  C8  UNL     1     -12.367  14.751  27.197  1.00  0.00     0.066 C 
BRANCH   5   6
HETATM    6  C7  UNL     1     -13.602  15.080  28.124  1.00  0.00     0.126 C 
BRANCH   6   7
HETATM    7  N4  UNL     1     -13.191  14.881  29.492  1.00  0.00    -0.378 N 
ATOM      8  H4  UNL     1     -13.050  15.699  30.085  1.00  0.00     0.160 HD
BRANCH   7   9
HETATM    9  C6  UNL     1     -12.982  13.616  30.036  1.00  0.00     0.089 C 
HETATM   10  N3  UNL     1     -11.723  13.249  30.288  1.00  0.00    -0.388 N 
ATOM     11  H32 UNL     1     -11.569  12.322  30.686  1.00  0.00     0.157 HD
ATOM     12  H31 UNL     1     -11.043  13.974  30.057  1.00  0.00     0.157 HD
BRANCH   9  13
HETATM   13  C5  UNL     1     -13.958  12.576  30.367  1.00  0.00     0.205 C 
BRANCH  13  14
HETATM   14  N2  UNL     1     -13.711  12.028  31.682  1.00  0.00    -0.339 N 
HETATM   15  C2  UNL     1     -13.370  10.821  32.098  1.00  0.00     0.079 A 
HETATM   16  C1  UNL     1     -12.979   9.635  31.294  1.00  0.00     0.089 C 
HETATM   17  N1  UNL     1     -13.362  10.846  33.466  1.00  0.00    -0.355 N 
HETATM   18  C3  UNL     1     -13.692  12.060  33.869  1.00  0.00     0.106 A 
ATOM     19  H1  UNL     1     -13.138  10.058  34.074  1.00  0.00     0.166 HD
HETATM   20  C4  UNL     1     -13.917  12.829  32.772  1.00  0.00     0.110 A 
ENDBRANCH  13  14
ENDBRANCH   9  13
ENDBRANCH   7   9
ENDBRANCH   6   7
ENDBRANCH   5   6
ENDBRANCH   4   5
ENDBRANCH   1   4
BRANCH   1  21
HETATM   21  N6  UNL     1      -9.840  15.455  29.492  1.00  0.00    -0.132 NA
BRANCH  21  22
HETATM   22  C10 UNL     1     -10.161  16.612  30.297  1.00  0.00     0.137 C 
BRANCH  22  23
HETATM   23  C11 UNL     1      -8.948  16.993  31.106  1.00  0.00     0.037 C 
BRANCH  23  24
HETATM   24  C12 UNL     1      -8.862  16.511  32.503  1.00  0.00     0.123 C 
BRANCH  24  25
HETATM   25  N7  UNL     1     -10.175  15.859  32.753  1.00  0.00    -0.367 N 
HETATM   26  C13 UNL     1     -10.784  16.098  33.850  1.00  0.00     0.196 C 
HETATM   27  N8  UNL     1     -10.227  16.972  34.804  1.00  0.00    -0.067 NA
HETATM   28  N9  UNL     1     -12.019  15.455  34.155  1.00  0.00    -0.067 NA
ATOM     29  H7  UNL     1     -10.582  15.231  32.060  1.00  0.00     0.161 HD
ENDBRANCH  24  25
ENDBRANCH  23  24
ENDBRANCH  22  23
ENDBRANCH  21  22
ENDBRANCH   1  21
BRANCH   2  30
HETATM   30  C15 UNL     1      -7.608  15.650  27.725  1.00  0.00     0.143 C 
BRANCH  30  31
HETATM   31  C16 UNL     1      -7.013  17.005  27.485  1.00  0.00    -0.049 A 
HETATM   32  C17 UNL     1      -7.750  18.112  27.771  1.00  0.00     0.007 A 
HETATM   33  C18 UNL     1      -7.259  19.369  27.415  1.00  0.00     0.001 A 
HETATM   34  C19 UNL     1      -6.031  19.420  26.786  1.00  0.00     0.007 A 
HETATM   35  C20 UNL     1      -5.277  18.302  26.496  1.00  0.00    -0.057 A 
HETATM   36  C28 UNL     1      -5.780  17.084  26.853  1.00  0.00     0.014 A 
BRANCH  35  37
HETATM   37  C21 UNL     1      -3.982  18.429  25.781  1.00  0.00     0.048 C 
BRANCH  37  38
HETATM   38  C22 UNL     1      -4.210  17.692  24.484  1.00  0.00     0.107 C 
BRANCH  38  39
HETATM   39  C23 UNL     1      -4.944  18.415  23.440  1.00  0.00     0.217 C 
HETATM   40  O2  UNL     1      -4.615  19.516  23.012  1.00  0.00    -0.274 OA
HETATM   41  N10 UNL     1      -6.100  17.721  22.938  1.00  0.00    -0.361 N 
ATOM     42  H10 UNL     1      -6.327  16.785  23.276  1.00  0.00     0.162 HD
BRANCH  41  43
HETATM   43  C24 UNL     1      -6.926  18.354  21.962  1.00  0.00     0.124 C 
BRANCH  43  44
HETATM   44  C25 UNL     1      -6.486  17.821  20.586  1.00  0.00     0.039 C 
BRANCH  44  45
HETATM   45  C26 UNL     1      -6.943  16.336  20.540  1.00  0.00     0.123 C 
BRANCH  45  46
HETATM   46  N11 UNL     1      -8.346  16.305  20.222  1.00  0.00    -0.367 N 
HETATM   47  C27 UNL     1      -9.222  15.777  20.984  1.00  0.00     0.196 C 
HETATM   48  N12 UNL     1     -10.572  15.799  20.586  1.00  0.00    -0.067 NA
HETATM   49  N13 UNL     1      -8.798  15.183  22.210  1.00  0.00    -0.067 NA
ATOM     50  H11 UNL     1      -8.654  16.726  19.345  1.00  0.00     0.161 HD
ENDBRANCH  45  46
ENDBRANCH  44  45
ENDBRANCH  43  44
ENDBRANCH  41  43
ENDBRANCH  38  39
ENDBRANCH  37  38
ENDBRANCH  35  37
ENDBRANCH  30  31
ENDBRANCH   2  30
TORSDOF 21
ENDMDL
MODEL 3
REMARK VINA RESULT: -8.215953104      2.052      6.118
REMARK  21 active torsions:
REMARK  status: ('A' for Active; 'I' for Inactive)
REMARK    1  A    between atoms: N2_7  and  C5_8 
REMARK    2  A    between atoms: C5_8  and  C6_9 
REMARK    3  A    between atoms: C6_9  and  N4_13 
REMARK    4  A    between atoms: N4_13  and  C7_15 
REMARK    5  A    between atoms: C7_15  and  C8_16 
REMARK    6  A    between atoms: C8_16  and  C9_17 
REMARK    7  A    between atoms: C9_17  and  N5_18 
REMARK    8  A    between atoms: N5_18  and  N6_19 
REMARK       I    between atoms: N5_18  and  C14_28 
REMARK    9  A    between atoms: N6_19  and  C10_20 
REMARK   10  A    between atoms: C10_20  and  C11_21 
REMARK   11  A    between atoms: C11_21  and  C12_22 
REMARK   12  A    between atoms: C12_22  and  N7_23 
REMARK   13  A    between atoms: C14_28  and  C15_30 
REMARK   14  A    between atoms: C15_30  and  C16_31 
REMARK   15  A    between atoms: C20_35  and  C21_36 
REMARK   16  A    between atoms: C21_36  and  C22_37 
REMARK   17  A    between atoms: C22_37  and  C23_38 
REMARK       I    between atoms: C23_38  and  N10_40 
REMARK   18  A    between atoms: N10_40  and  C24_42 
REMARK   19  A    between atoms: C24_42  and  C25_43 
REMARK   20  A    between atoms: C25_43  and  C26_44 
REMARK   21  A    between atoms: C26_44  and  N11_45 
ROOT
HETATM    1  N5  UNL     1      -8.680  15.941  28.467  1.00  0.00    -0.243 N 
HETATM    2  C14 UNL     1      -9.579  15.905  29.593  1.00  0.00     0.243 C 
HETATM    3  O1  UNL     1     -10.154  14.764  29.812  1.00  0.00    -0.271 OA
ENDROOT
BRANCH   1   4
HETATM    4  C9  UNL     1      -8.492  14.755  27.802  1.00  0.00     0.090 C 
BRANCH   4   5
HETATM    5  C8  UNL     1      -8.846  14.530  26.369  1.00  0.00     0.066 C 
BRANCH   5   6
HETATM    6  C7  UNL     1     -10.297  15.138  26.233  1.00  0.00     0.126 C 
BRANCH   6   7
HETATM    7  N4  UNL     1     -10.262  16.136  25.194  1.00  0.00    -0.378 N 
ATOM      8  H4  UNL     1     -11.087  16.261  24.606  1.00  0.00     0.160 HD
BRANCH   7   9
HETATM    9  C6  UNL     1      -9.147  16.936  24.960  1.00  0.00     0.089 C 
HETATM   10  N3  UNL     1      -9.144  18.166  25.481  1.00  0.00    -0.388 N 
ATOM     11  H32 UNL     1      -8.327  18.752  25.310  1.00  0.00     0.157 HD
ATOM     12  H31 UNL     1      -9.985  18.371  26.020  1.00  0.00     0.157 HD
BRANCH   9  13
HETATM   13  C5  UNL     1      -7.939  16.641  24.186  1.00  0.00     0.205 C 
BRANCH  13  14
HETATM   14  N2  UNL     1      -8.115  16.981  22.792  1.00  0.00    -0.339 N 
HETATM   15  C2  UNL     1      -8.780  16.403  21.808  1.00  0.00     0.079 A 
HETATM   16  C1  UNL     1      -9.710  15.246  21.866  1.00  0.00     0.089 C 
HETATM   17  N1  UNL     1      -8.525  17.113  20.667  1.00  0.00    -0.355 N 
HETATM   18  C3  UNL     1      -7.715  18.114  20.964  1.00  0.00     0.106 A 
ATOM     19  H1  UNL     1      -8.897  16.905  19.740  1.00  0.00     0.166 HD
HETATM   20  C4  UNL     1      -7.439  18.061  22.293  1.00  0.00     0.110 A 
ENDBRANCH  13  14
ENDBRANCH   9  13
ENDBRANCH   7   9
ENDBRANCH   6   7
ENDBRANCH   5   6
ENDBRANCH   4   5
ENDBRANCH   1   4
BRANCH   1  21
HETATM   21  N6  UNL     1      -8.042  17.193  28.374  1.00  0.00    -0.132 NA
BRANCH  21  22
HETATM   22  C10 UNL     1      -6.684  17.089  27.891  1.00  0.00     0.137 C 
BRANCH  22  23
HETATM   23  C11 UNL     1      -6.275  18.414  27.302  1.00  0.00     0.037 C 
BRANCH  23  24
HETATM   24  C12 UNL     1      -5.309  18.411  26.180  1.00  0.00     0.123 C 
BRANCH  24  25
HETATM   25  N7  UNL     1      -5.757  19.522  25.300  1.00  0.00    -0.367 N 
HETATM   26  C13 UNL     1      -4.974  19.936  24.380  1.00  0.00     0.196 C 
HETATM   27  N8  UNL     1      -3.709  19.344  24.196  1.00  0.00    -0.067 NA
HETATM   28  N9  UNL     1      -5.339  21.033  23.547  1.00  0.00    -0.067 NA
ATOM     29  H7  UNL     1      -6.676  19.948  25.429  1.00  0.00     0.161 HD
ENDBRANCH  24  25
ENDBRANCH  23  24
ENDBRANCH  22  23
ENDBRANCH  21  22
ENDBRANCH   1  21
BRANCH   2  30
HETATM   30  C15 UNL     1      -9.935  16.988  30.500  1.00  0.00     0.143 C 
BRANCH  30  31
HETATM   31  C16 UNL     1      -9.548  16.501  31.865  1.00  0.00    -0.049 A 
HETATM   32  C17 UNL     1      -8.239  16.243  32.130  1.00  0.00     0.007 A 
HETATM   33  C18 UNL     1      -7.892  15.655  33.347  1.00  0.00     0.001 A 
HETATM   34  C19 UNL     1      -8.915  15.365  34.229  1.00  0.00     0.007 A 
HETATM   35  C20 UNL     1     -10.243  15.627  33.968  1.00  0.00    -0.057 A 
HETATM   36  C28 UNL     1     -10.557  16.202  32.770  1.00  0.00     0.014 A 
BRANCH  35  37
HETATM   37  C21 UNL     1     -11.294  15.251  34.949  1.00  0.00     0.048 C 
BRANCH  37  38
HETATM   38  C22 UNL     1     -11.010  13.799  35.245  1.00  0.00     0.107 C 
BRANCH  38  39
HETATM   39  C23 UNL     1     -11.993  12.826  34.757  1.00  0.00     0.217 C 
HETATM   40  O2  UNL     1     -12.139  11.706  35.232  1.00  0.00    -0.274 OA
HETATM   41  N10 UNL     1     -12.797  13.296  33.660  1.00  0.00    -0.361 N 
ATOM     42  H10 UNL     1     -12.690  14.249  33.313  1.00  0.00     0.162 HD
BRANCH  41  43
HETATM   43  C24 UNL     1     -13.747  12.414  33.062  1.00  0.00     0.124 C 
BRANCH  43  44
HETATM   44  C25 UNL     1     -14.245  13.095  31.774  1.00  0.00     0.039 C 
BRANCH  44  45
HETATM   45  C26 UNL     1     -12.977  13.657  31.073  1.00  0.00     0.123 C 
BRANCH  45  46
HETATM   46  N11 UNL     1     -13.386  14.688  30.157  1.00  0.00    -0.367 N 
HETATM   47  C27 UNL     1     -13.407  14.527  28.891  1.00  0.00     0.196 C 
HETATM   48  N12 UNL     1     -13.827  15.596  28.076  1.00  0.00    -0.067 NA
HETATM   49  N13 UNL     1     -13.002  13.270  28.351  1.00  0.00    -0.067 NA
ATOM     50  H11 UNL     1     -13.674  15.589  30.537  1.00  0.00     0.161 HD
ENDBRANCH  45  46
ENDBRANCH  44  45
ENDBRANCH  43  44
ENDBRANCH  41  43
ENDBRANCH  38  39
ENDBRANCH  37  38
ENDBRANCH  35  37
ENDBRANCH  30  31
ENDBRANCH   2  30
TORSDOF 21
ENDMDL
MODEL 4
REMARK VINA RESULT: -8.197611978      3.103     11.056
REMARK  21 active torsions:
REMARK  status: ('A' for Active; 'I' for Inactive)
REMARK    1  A    between atoms: N2_7  and  C5_8 
REMARK    2  A    between atoms: C5_8  and  C6_9 
REMARK    3  A    between atoms: C6_9  and  N4_13 
REMARK    4  A    between atoms: N4_13  and  C7_15 
REMARK    5  A    between atoms: C7_15  and  C8_16 
REMARK    6  A    between atoms: C8_16  and  C9_17 
REMARK    7  A    between atoms: C9_17  and  N5_18 
REMARK    8  A    between atoms: N5_18  and  N6_19 
REMARK       I    between atoms: N5_18  and  C14_28 
REMARK    9  A    between atoms: N6_19  and  C10_20 
REMARK   10  A    between atoms: C10_20  and  C11_21 
REMARK   11  A    between atoms: C11_21  and  C12_22 
REMARK   12  A    between atoms: C12_22  and  N7_23 
REMARK   13  A    between atoms: C14_28  and  C15_30 
REMARK   14  A    between atoms: C15_30  and  C16_31 
REMARK   15  A    between atoms: C20_35  and  C21_36 
REMARK   16  A    between atoms: C21_36  and  C22_37 
REMARK   17  A    between atoms: C22_37  and  C23_38 
REMARK       I    between atoms: C23_38  and  N10_40 
REMARK   18  A    between atoms: N10_40  and  C24_42 
REMARK   19  A    between atoms: C24_42  and  C25_43 
REMARK   20  A    between atoms: C25_43  and  C26_44 
REMARK   21  A    between atoms: C26_44  and  N11_45 
ROOT
HETATM    1  N5  UNL     1      -9.963  15.785  26.075  1.00  0.00    -0.243 N 
HETATM    2  C14 UNL     1      -9.690  16.794  27.067  1.00  0.00     0.243 C 
HETATM    3  O1  UNL     1      -9.984  16.470  28.287  1.00  0.00    -0.271 OA
ENDROOT
BRANCH   1   4
HETATM    4  C9  UNL     1     -10.441  14.586  26.543  1.00  0.00     0.090 C 
BRANCH   4   5
HETATM    5  C8  UNL     1     -11.877  14.178  26.495  1.00  0.00     0.066 C 
BRANCH   5   6
HETATM    6  C7  UNL     1     -12.007  13.097  27.638  1.00  0.00     0.126 C 
BRANCH   6   7
HETATM    7  N4  UNL     1     -11.353  13.617  28.813  1.00  0.00    -0.378 N 
ATOM      8  H4  UNL     1     -10.342  13.507  28.901  1.00  0.00     0.160 HD
BRANCH   7   9
HETATM    9  C6  UNL     1     -12.047  14.263  29.834  1.00  0.00     0.089 C 
HETATM   10  N3  UNL     1     -12.395  15.537  29.639  1.00  0.00    -0.388 N 
ATOM     11  H32 UNL     1     -12.904  16.010  30.386  1.00  0.00     0.157 HD
ATOM     12  H31 UNL     1     -12.113  15.891  28.724  1.00  0.00     0.157 HD
BRANCH   9  13
HETATM   13  C5  UNL     1     -12.452  13.755  31.146  1.00  0.00     0.205 C 
BRANCH  13  14
HETATM   14  N2  UNL     1     -13.595  12.877  31.037  1.00  0.00    -0.339 N 
HETATM   15  C2  UNL     1     -14.897  13.101  31.041  1.00  0.00     0.079 A 
HETATM   16  C1  UNL     1     -15.619  14.399  31.018  1.00  0.00     0.089 C 
HETATM   17  N1  UNL     1     -15.523  11.885  30.997  1.00  0.00    -0.355 N 
HETATM   18  C3  UNL     1     -14.603  10.937  30.962  1.00  0.00     0.106 A 
ATOM     19  H1  UNL     1     -16.532  11.735  30.993  1.00  0.00     0.166 HD
HETATM   20  C4  UNL     1     -13.380  11.527  30.985  1.00  0.00     0.110 A 
ENDBRANCH  13  14
ENDBRANCH   9  13
ENDBRANCH   7   9
ENDBRANCH   6   7
ENDBRANCH   5   6
ENDBRANCH   4   5
ENDBRANCH   1   4
BRANCH   1  21
HETATM   21  N6  UNL     1      -9.525  16.201  24.803  1.00  0.00    -0.132 NA
BRANCH  21  22
HETATM   22  C10 UNL     1      -8.568  15.287  24.220  1.00  0.00     0.137 C 
BRANCH  22  23
HETATM   23  C11 UNL     1      -8.981  14.991  22.802  1.00  0.00     0.037 C 
BRANCH  23  24
HETATM   24  C12 UNL     1      -8.100  15.457  21.707  1.00  0.00     0.123 C 
BRANCH  24  25
HETATM   25  N7  UNL     1      -7.479  16.700  22.234  1.00  0.00    -0.367 N 
HETATM   26  C13 UNL     1      -7.745  17.813  21.665  1.00  0.00     0.196 C 
HETATM   27  N8  UNL     1      -8.620  17.862  20.562  1.00  0.00    -0.067 NA
HETATM   28  N9  UNL     1      -7.132  19.023  22.103  1.00  0.00    -0.067 NA
ATOM     29  H7  UNL     1      -6.850  16.666  23.037  1.00  0.00     0.161 HD
ENDBRANCH  24  25
ENDBRANCH  23  24
ENDBRANCH  22  23
ENDBRANCH  21  22
ENDBRANCH   1  21
BRANCH   2  30
HETATM   30  C15 UNL     1      -9.144  18.129  26.871  1.00  0.00     0.143 C 
BRANCH  30  31
HETATM   31  C16 UNL     1      -7.657  17.967  26.974  1.00  0.00    -0.049 A 
HETATM   32  C17 UNL     1      -7.151  16.810  27.479  1.00  0.00     0.007 A 
HETATM   33  C18 UNL     1      -5.779  16.709  27.712  1.00  0.00     0.001 A 
HETATM   34  C19 UNL     1      -4.999  17.807  27.408  1.00  0.00     0.007 A 
HETATM   35  C20 UNL     1      -5.504  18.982  26.892  1.00  0.00    -0.057 A 
HETATM   36  C28 UNL     1      -6.850  19.055  26.674  1.00  0.00     0.014 A 
BRANCH  35  37
HETATM   37  C21 UNL     1      -4.609  20.137  26.626  1.00  0.00     0.048 C 
BRANCH  37  38
HETATM   38  C22 UNL     1      -4.777  20.392  25.149  1.00  0.00     0.107 C 
BRANCH  38  39
HETATM   39  C23 UNL     1      -3.851  19.689  24.254  1.00  0.00     0.217 C 
HETATM   40  O2  UNL     1      -4.028  19.568  23.047  1.00  0.00    -0.274 OA
HETATM   41  N10 UNL     1      -2.691  19.144  24.909  1.00  0.00    -0.361 N 
ATOM     42  H10 UNL     1      -2.542  19.299  25.906  1.00  0.00     0.162 HD
BRANCH  41  43
HETATM   43  C24 UNL     1      -1.751  18.387  24.149  1.00  0.00     0.124 C 
BRANCH  43  44
HETATM   44  C25 UNL     1      -2.303  16.952  24.051  1.00  0.00     0.039 C 
BRANCH  44  45
HETATM   45  C26 UNL     1      -2.146  16.538  22.562  1.00  0.00     0.123 C 
BRANCH  45  46
HETATM   46  N11 UNL     1      -3.343  16.918  21.859  1.00  0.00    -0.367 N 
HETATM   47  C27 UNL     1      -3.607  16.532  20.671  1.00  0.00     0.196 C 
HETATM   48  N12 UNL     1      -4.806  16.956  20.069  1.00  0.00    -0.067 NA
HETATM   49  N13 UNL     1      -2.674  15.687  20.000  1.00  0.00    -0.067 NA
ATOM     50  H11 UNL     1      -4.013  17.524  22.333  1.00  0.00     0.161 HD
ENDBRANCH  45  46
ENDBRANCH  44  45
ENDBRANCH  43  44
ENDBRANCH  41  43
ENDBRANCH  38  39
ENDBRANCH  37  38
ENDBRANCH  35  37
ENDBRANCH  30  31
ENDBRANCH   2  30
TORSDOF 21
ENDMDL
MODEL 5
REMARK VINA RESULT: -8.189458694      2.457      5.971
REMARK  21 active torsions:
REMARK  status: ('A' for Active; 'I' for Inactive)
REMARK    1  A    between atoms: N2_7  and  C5_8 
REMARK    2  A    between atoms: C5_8  and  C6_9 
REMARK    3  A    between atoms: C6_9  and  N4_13 
REMARK    4  A    between atoms: N4_13  and  C7_15 
REMARK    5  A    between atoms: C7_15  and  C8_16 
REMARK    6  A    between atoms: C8_16  and  C9_17 
REMARK    7  A    between atoms: C9_17  and  N5_18 
REMARK    8  A    between atoms: N5_18  and  N6_19 
REMARK       I    between atoms: N5_18  and  C14_28 
REMARK    9  A    between atoms: N6_19  and  C10_20 
REMARK   10  A    between atoms: C10_20  and  C11_21 
REMARK   11  A    between atoms: C11_21  and  C12_22 
REMARK   12  A    between atoms: C12_22  and  N7_23 
REMARK   13  A    between atoms: C14_28  and  C15_30 
REMARK   14  A    between atoms: C15_30  and  C16_31 
REMARK   15  A    between atoms: C20_35  and  C21_36 
REMARK   16  A    between atoms: C21_36  and  C22_37 
REMARK   17  A    between atoms: C22_37  and  C23_38 
REMARK       I    between atoms: C23_38  and  N10_40 
REMARK   18  A    between atoms: N10_40  and  C24_42 
REMARK   19  A    between atoms: C24_42  and  C25_43 
REMARK   20  A    between atoms: C25_43  and  C26_44 
REMARK   21  A    between atoms: C26_44  and  N11_45 
ROOT
HETATM    1  N5  UNL     1      -9.554  16.444  26.838  1.00  0.00    -0.243 N 
HETATM    2  C14 UNL     1     -10.058  15.254  27.477  1.00  0.00     0.243 C 
HETATM    3  O1  UNL     1      -9.842  15.172  28.753  1.00  0.00    -0.271 OA
ENDROOT
BRANCH   1   4
HETATM    4  C9  UNL     1      -8.963  17.371  27.661  1.00  0.00     0.090 C 
BRANCH   4   5
HETATM    5  C8  UNL     1      -7.487  17.551  27.799  1.00  0.00     0.066 C 
BRANCH   5   6
HETATM    6  C7  UNL     1      -7.234  19.033  27.316  1.00  0.00     0.126 C 
BRANCH   6   7
HETATM    7  N4  UNL     1      -6.558  18.973  26.044  1.00  0.00    -0.378 N 
ATOM      8  H4  UNL     1      -6.982  18.433  25.289  1.00  0.00     0.160 HD
BRANCH   7   9
HETATM    9  C6  UNL     1      -5.350  19.624  25.806  1.00  0.00     0.089 C 
HETATM   10  N3  UNL     1      -4.540  19.831  26.846  1.00  0.00    -0.388 N 
ATOM     11  H32 UNL     1      -3.655  20.308  26.672  1.00  0.00     0.157 HD
ATOM     12  H31 UNL     1      -4.912  19.459  27.721  1.00  0.00     0.157 HD
BRANCH   9  13
HETATM   13  C5  UNL     1      -4.816  20.157  24.551  1.00  0.00     0.205 C 
BRANCH  13  14
HETATM   14  N2  UNL     1      -4.590  19.102  23.589  1.00  0.00    -0.339 N 
HETATM   15  C2  UNL     1      -3.600  18.244  23.418  1.00  0.00     0.079 A 
HETATM   16  C1  UNL     1      -2.422  17.997  24.290  1.00  0.00     0.089 C 
HETATM   17  N1  UNL     1      -3.870  17.525  22.287  1.00  0.00    -0.355 N 
HETATM   18  C3  UNL     1      -5.017  17.944  21.783  1.00  0.00     0.106 A 
ATOM     19  H1  UNL     1      -3.283  16.787  21.896  1.00  0.00     0.166 HD
HETATM   20  C4  UNL     1      -5.497  18.935  22.578  1.00  0.00     0.110 A 
ENDBRANCH  13  14
ENDBRANCH   9  13
ENDBRANCH   7   9
ENDBRANCH   6   7
ENDBRANCH   5   6
ENDBRANCH   4   5
ENDBRANCH   1   4
BRANCH   1  21
HETATM   21  N6  UNL     1      -9.920  16.477  25.479  1.00  0.00    -0.132 NA
BRANCH  21  22
HETATM   22  C10 UNL     1      -8.775  16.509  24.597  1.00  0.00     0.137 C 
BRANCH  22  23
HETATM   23  C11 UNL     1      -8.661  15.178  23.900  1.00  0.00     0.037 C 
BRANCH  23  24
HETATM   24  C12 UNL     1      -9.167  15.072  22.513  1.00  0.00     0.123 C 
BRANCH  24  25
HETATM   25  N7  UNL     1      -9.216  16.476  22.027  1.00  0.00    -0.367 N 
HETATM   26  C13 UNL     1      -8.528  16.797  20.999  1.00  0.00     0.196 C 
HETATM   27  N8  UNL     1      -7.743  15.835  20.332  1.00  0.00    -0.067 NA
HETATM   28  N9  UNL     1      -8.502  18.142  20.528  1.00  0.00    -0.067 NA
ATOM     29  H7  UNL     1      -9.788  17.171  22.506  1.00  0.00     0.161 HD
ENDBRANCH  24  25
ENDBRANCH  23  24
ENDBRANCH  22  23
ENDBRANCH  21  22
ENDBRANCH   1  21
BRANCH   2  30
HETATM   30  C15 UNL     1     -10.761  14.133  26.871  1.00  0.00     0.143 C 
BRANCH  30  31
HETATM   31  C16 UNL     1     -12.148  14.183  27.439  1.00  0.00    -0.049 A 
HETATM   32  C17 UNL     1     -12.966  15.215  27.099  1.00  0.00     0.007 A 
HETATM   33  C18 UNL     1     -14.201  15.346  27.734  1.00  0.00     0.001 A 
HETATM   34  C19 UNL     1     -14.531  14.402  28.687  1.00  0.00     0.007 A 
HETATM   35  C20 UNL     1     -13.708  13.352  29.035  1.00  0.00    -0.057 A 
HETATM   36  C28 UNL     1     -12.504  13.247  28.399  1.00  0.00     0.014 A 
BRANCH  35  37
HETATM   37  C21 UNL     1     -14.111  12.397  30.099  1.00  0.00     0.048 C 
BRANCH  37  38
HETATM   38  C22 UNL     1     -13.361  12.874  31.318  1.00  0.00     0.107 C 
BRANCH  38  39
HETATM   39  C23 UNL     1     -13.881  12.439  32.619  1.00  0.00     0.217 C 
HETATM   40  O2  UNL     1     -15.027  12.042  32.798  1.00  0.00    -0.274 OA
HETATM   41  N10 UNL     1     -12.925  12.505  33.692  1.00  0.00    -0.361 N 
ATOM     42  H10 UNL     1     -11.964  12.793  33.509  1.00  0.00     0.162 HD
BRANCH  41  43
HETATM   43  C24 UNL     1     -13.335  12.164  35.015  1.00  0.00     0.124 C 
BRANCH  43  44
HETATM   44  C25 UNL     1     -12.563  13.086  35.977  1.00  0.00     0.039 C 
BRANCH  44  45
HETATM   45  C26 UNL     1     -11.183  13.338  35.307  1.00  0.00     0.123 C 
BRANCH  45  46
HETATM   46  N11 UNL     1     -10.816  14.711  35.534  1.00  0.00    -0.367 N 
HETATM   47  C27 UNL     1     -10.856  15.603  34.622  1.00  0.00     0.196 C 
HETATM   48  N12 UNL     1     -10.479  16.921  34.943  1.00  0.00    -0.067 NA
HETATM   49  N13 UNL     1     -11.282  15.229  33.313  1.00  0.00    -0.067 NA
ATOM     50  H11 UNL     1     -10.508  14.984  36.468  1.00  0.00     0.161 HD
ENDBRANCH  45  46
ENDBRANCH  44  45
ENDBRANCH  43  44
ENDBRANCH  41  43
ENDBRANCH  38  39
ENDBRANCH  37  38
ENDBRANCH  35  37
ENDBRANCH  30  31
ENDBRANCH   2  30
TORSDOF 21
ENDMDL
