MODEL 1
REMARK VINA RESULT: -8.085483389      0.000      0.000
REMARK  22 active torsions:
REMARK  status: ('A' for Active; 'I' for Inactive)
REMARK       I    between atoms: C2_2  and  N1_4 
REMARK    1  A    between atoms: N1_4  and  C3_6 
REMARK    2  A    between atoms: C3_6  and  C4_7 
REMARK    3  A    between atoms: C4_7  and  N2_8 
REMARK    4  A    between atoms: N2_8  and  C6_10 
REMARK    5  A    between atoms: N2_8  and  C7_13 
REMARK    6  A    between atoms: C6_10  and  O2_11 
REMARK    7  A    between atoms: C7_13  and  C8_14 
REMARK    8  A    between atoms: C8_14  and  C9_15 
REMARK    9  A    between atoms: C9_15  and  C10_16 
REMARK   10  A    between atoms: C10_16  and  C11_17 
REMARK   11  A    between atoms: C11_17  and  N3_18 
REMARK       I    between atoms: N3_18  and  C12_20 
REMARK       I    between atoms: C12_20  and  N8_31 
REMARK   12  A    between atoms: N4_21  and  C13_23 
REMARK   13  A    between atoms: C13_23  and  C14_24 
REMARK   14  A    between atoms: C14_24  and  C15_25 
REMARK   15  A    between atoms: C15_25  and  N5_26 
REMARK   16  A    between atoms: N8_31  and  C17_32 
REMARK   17  A    between atoms: C19_36  and  C20_37 
REMARK   18  A    between atoms: C20_37  and  O3_38 
REMARK   19  A    between atoms: O3_38  and  C21_39 
REMARK   20  A    between atoms: C21_39  and  C22_40 
REMARK   21  A    between atoms: C21_39  and  C26_45 
REMARK   22  A    between atoms: C22_40  and  N10_41 
ROOT
HETATM    1  N3  UNL     1     -10.055  18.206  27.522  1.00  0.00    -0.351 N 
ATOM      2  H3  UNL     1     -10.202  19.214  27.577  1.00  0.00     0.163 HD
HETATM    3  C12 UNL     1     -10.429  17.324  28.629  1.00  0.00     0.254 C 
HETATM    4  N4  UNL     1      -9.741  17.514  29.693  1.00  0.00    -0.350 N 
ATOM      5  H4  UNL     1      -9.027  18.241  29.651  1.00  0.00     0.163 HD
HETATM    6  N8  UNL     1     -11.396  16.460  28.457  1.00  0.00    -0.336 NA
ENDROOT
BRANCH   1   7
HETATM    7  C11 UNL     1      -9.481  17.610  26.370  1.00  0.00     0.123 C 
BRANCH   7   8
HETATM    8  C10 UNL     1      -8.211  16.813  26.656  1.00  0.00     0.020 C 
BRANCH   8   9
HETATM    9  C9  UNL     1      -7.664  16.297  25.303  1.00  0.00     0.003 C 
BRANCH   9  10
HETATM   10  C8  UNL     1      -7.370  17.481  24.471  1.00  0.00     0.028 C 
BRANCH  10  11
HETATM   11  C7  UNL     1      -5.955  17.713  24.059  1.00  0.00     0.239 C 
BRANCH  11  12
HETATM   12  N2  UNL     1      -5.723  18.658  23.037  1.00  0.00    -0.049 N 
HETATM   13  C5  UNL     1      -4.635  18.236  22.127  1.00  0.00     0.275 C 
BRANCH  12  14
HETATM   14  C4  UNL     1      -6.889  18.796  22.226  1.00  0.00     0.259 C 
BRANCH  14  15
HETATM   15  C3  UNL     1      -6.978  18.088  20.932  1.00  0.00     0.150 C 
BRANCH  15  16
HETATM   16  N1  UNL     1      -8.364  17.585  20.779  1.00  0.00    -0.360 N 
HETATM   17  C2  UNL     1      -8.778  16.296  21.097  1.00  0.00     0.213 C 
HETATM   18  C1  UNL     1     -10.200  15.909  20.903  1.00  0.00     0.117 C 
HETATM   19  O1  UNL     1      -7.976  15.449  21.546  1.00  0.00    -0.274 OA
ATOM     20  H1  UNL     1      -9.064  18.231  20.414  1.00  0.00     0.162 HD
ENDBRANCH  15  16
ENDBRANCH  14  15
ENDBRANCH  12  14
BRANCH  12  21
HETATM   21  C6  UNL     1      -5.332  19.970  23.518  1.00  0.00     0.401 C 
BRANCH  21  22
HETATM   22  O2  UNL     1      -5.803  21.007  22.773  1.00  0.00    -0.374 OA
ATOM     23  H2  UNL     1      -5.460  21.857  23.021  1.00  0.00     0.211 HD
ENDBRANCH  21  22
ENDBRANCH  12  21
ENDBRANCH  11  12
ENDBRANCH  10  11
ENDBRANCH   9  10
ENDBRANCH   8   9
ENDBRANCH   7   8
ENDBRANCH   1   7
BRANCH   4  24
HETATM   24  C13 UNL     1      -9.870  16.815  30.930  1.00  0.00     0.125 C 
BRANCH  24  25
HETATM   25  C14 UNL     1      -8.489  16.469  31.443  1.00  0.00     0.039 C 
BRANCH  25  26
HETATM   26  C15 UNL     1      -8.538  16.410  32.943  1.00  0.00     0.123 C 
BRANCH  26  27
HETATM   27  N5  UNL     1      -9.904  16.344  33.380  1.00  0.00    -0.367 N 
HETATM   28  C16 UNL     1     -10.156  16.096  34.615  1.00  0.00     0.196 C 
HETATM   29  N6  UNL     1      -9.089  15.898  35.511  1.00  0.00    -0.067 NA
HETATM   30  N7  UNL     1     -11.501  16.030  35.040  1.00  0.00    -0.067 NA
ATOM     31  H5  UNL     1     -10.665  16.491  32.717  1.00  0.00     0.161 HD
ENDBRANCH  26  27
ENDBRANCH  25  26
ENDBRANCH  24  25
ENDBRANCH   4  24
BRANCH   6  32
HETATM   32  C17 UNL     1     -12.261  15.664  28.311  1.00  0.00     0.262 A 
HETATM   33  N9  UNL     1     -13.112  15.531  27.250  1.00  0.00    -0.324 N 
HETATM   34  C18 UNL     1     -13.935  14.513  27.452  1.00  0.00     0.119 A 
ATOM     35  H9  UNL     1     -13.112  16.128  26.423  1.00  0.00     0.169 HD
HETATM   36  C19 UNL     1     -13.635  13.957  28.658  1.00  0.00     0.052 A 
HETATM   37  N12 UNL     1     -12.629  14.646  29.180  1.00  0.00    -0.317 N 
ATOM     38  H12 UNL     1     -12.192  14.457  30.083  1.00  0.00     0.170 HD
BRANCH  36  39
HETATM   39  C20 UNL     1     -14.297  12.782  29.275  1.00  0.00     0.227 C 
BRANCH  39  40
HETATM   40  O3  UNL     1     -15.203  13.089  30.242  1.00  0.00    -0.369 OA
BRANCH  40  41
HETATM   41  C21 UNL     1     -14.774  12.677  31.558  1.00  0.00     0.236 C 
BRANCH  41  42
HETATM   42  C22 UNL     1     -13.757  11.632  31.262  1.00  0.00     0.277 C 
BRANCH  42  43
HETATM   43  N10 UNL     1     -13.741  10.416  31.986  1.00  0.00    -0.076 N 
HETATM   44  C23 UNL     1     -13.396  10.484  33.366  1.00  0.00     0.271 C 
HETATM   45  C24 UNL     1     -15.099   9.802  31.938  1.00  0.00     0.271 C 
HETATM   46  C25 UNL     1     -12.904   9.441  31.320  1.00  0.00     0.271 C 
ENDBRANCH  42  43
ENDBRANCH  41  42
BRANCH  41  47
HETATM   47  C26 UNL     1     -14.272  13.922  32.180  1.00  0.00     0.261 C 
HETATM   48  N11 UNL     1     -12.911  14.149  32.412  1.00  0.00    -0.060 NA
HETATM   49  O4  UNL     1     -15.086  14.834  32.527  1.00  0.00    -0.274 OA
ENDBRANCH  41  47
ENDBRANCH  40  41
ENDBRANCH  39  40
ENDBRANCH  36  39
ENDBRANCH   6  32
TORSDOF 22
ENDMDL
MODEL 2
REMARK VINA RESULT: -8.056386374      1.478      2.543
REMARK  22 active torsions:
REMARK  status: ('A' for Active; 'I' for Inactive)
REMARK       I    between atoms: C2_2  and  N1_4 
REMARK    1  A    between atoms: N1_4  and  C3_6 
REMARK    2  A    between atoms: C3_6  and  C4_7 
REMARK    3  A    between atoms: C4_7  and  N2_8 
REMARK    4  A    between atoms: N2_8  and  C6_10 
REMARK    5  A    between atoms: N2_8  and  C7_13 
REMARK    6  A    between atoms: C6_10  and  O2_11 
REMARK    7  A    between atoms: C7_13  and  C8_14 
REMARK    8  A    between atoms: C8_14  and  C9_15 
REMARK    9  A    between atoms: C9_15  and  C10_16 
REMARK   10  A    between atoms: C10_16  and  C11_17 
REMARK   11  A    between atoms: C11_17  and  N3_18 
REMARK       I    between atoms: N3_18  and  C12_20 
REMARK       I    between atoms: C12_20  and  N8_31 
REMARK   12  A    between atoms: N4_21  and  C13_23 
REMARK   13  A    between atoms: C13_23  and  C14_24 
REMARK   14  A    between atoms: C14_24  and  C15_25 
REMARK   15  A    between atoms: C15_25  and  N5_26 
REMARK   16  A    between atoms: N8_31  and  C17_32 
REMARK   17  A    between atoms: C19_36  and  C20_37 
REMARK   18  A    between atoms: C20_37  and  O3_38 
REMARK   19  A    between atoms: O3_38  and  C21_39 
REMARK   20  A    between atoms: C21_39  and  C22_40 
REMARK   21  A    between atoms: C21_39  and  C26_45 
REMARK   22  A    between atoms: C22_40  and  N10_41 
ROOT
HETATM    1  N3  UNL     1      -9.687  18.116  26.888  1.00  0.00    -0.351 N 
ATOM      2  H3  UNL     1      -9.597  19.119  27.049  1.00  0.00     0.163 HD
HETATM    3  C12 UNL     1      -9.912  17.187  27.997  1.00  0.00     0.254 C 
HETATM    4  N4  UNL     1      -8.930  17.116  28.817  1.00  0.00    -0.350 N 
ATOM      5  H4  UNL     1      -8.120  17.700  28.610  1.00  0.00     0.163 HD
HETATM    6  N8  UNL     1     -11.048  16.542  28.068  1.00  0.00    -0.336 NA
ENDROOT
BRANCH   1   7
HETATM    7  C11 UNL     1      -9.598  17.570  25.582  1.00  0.00     0.123 C 
BRANCH   7   8
HETATM    8  C10 UNL     1      -8.641  16.386  25.471  1.00  0.00     0.020 C 
BRANCH   8   9
HETATM    9  C9  UNL     1      -9.298  15.333  24.547  1.00  0.00     0.003 C 
BRANCH   9  10
HETATM   10  C8  UNL     1      -9.244  15.867  23.171  1.00  0.00     0.028 C 
BRANCH  10  11
HETATM   11  C7  UNL     1      -7.909  15.975  22.515  1.00  0.00     0.239 C 
BRANCH  11  12
HETATM   12  N2  UNL     1      -7.682  17.092  21.683  1.00  0.00    -0.049 N 
HETATM   13  C5  UNL     1      -8.898  17.486  20.938  1.00  0.00     0.275 C 
BRANCH  12  14
HETATM   14  C4  UNL     1      -7.315  18.222  22.473  1.00  0.00     0.259 C 
BRANCH  14  15
HETATM   15  C3  UNL     1      -6.066  18.199  23.262  1.00  0.00     0.150 C 
BRANCH  15  16
HETATM   16  N1  UNL     1      -6.295  18.969  24.506  1.00  0.00    -0.360 N 
HETATM   17  C2  UNL     1      -5.855  18.583  25.769  1.00  0.00     0.213 C 
HETATM   18  C1  UNL     1      -6.143  19.445  26.945  1.00  0.00     0.117 C 
HETATM   19  O1  UNL     1      -5.219  17.521  25.938  1.00  0.00    -0.274 OA
ATOM     20  H1  UNL     1      -6.811  19.845  24.432  1.00  0.00     0.162 HD
ENDBRANCH  15  16
ENDBRANCH  14  15
ENDBRANCH  12  14
BRANCH  12  21
HETATM   21  C6  UNL     1      -6.665  16.882  20.670  1.00  0.00     0.401 C 
BRANCH  21  22
HETATM   22  O2  UNL     1      -6.521  17.913  19.792  1.00  0.00    -0.374 OA
ATOM     23  H2  UNL     1      -5.666  17.964  19.381  1.00  0.00     0.211 HD
ENDBRANCH  21  22
ENDBRANCH  12  21
ENDBRANCH  11  12
ENDBRANCH  10  11
ENDBRANCH   9  10
ENDBRANCH   8   9
ENDBRANCH   7   8
ENDBRANCH   1   7
BRANCH   4  24
HETATM   24  C13 UNL     1      -8.851  16.306  29.988  1.00  0.00     0.125 C 
BRANCH  24  25
HETATM   25  C14 UNL     1      -8.880  17.203  31.206  1.00  0.00     0.039 C 
BRANCH  25  26
HETATM   26  C15 UNL     1      -8.796  16.342  32.435  1.00  0.00     0.123 C 
BRANCH  26  27
HETATM   27  N5  UNL     1      -9.964  16.541  33.245  1.00  0.00    -0.367 N 
HETATM   28  C16 UNL     1      -9.951  16.154  34.470  1.00  0.00     0.196 C 
HETATM   29  N6  UNL     1      -8.793  15.546  34.989  1.00  0.00    -0.067 NA
HETATM   30  N7  UNL     1     -11.103  16.351  35.263  1.00  0.00    -0.067 NA
ATOM     31  H5  UNL     1     -10.794  16.985  32.853  1.00  0.00     0.161 HD
ENDBRANCH  26  27
ENDBRANCH  25  26
ENDBRANCH  24  25
ENDBRANCH   4  24
BRANCH   6  32
HETATM   32  C17 UNL     1     -12.068  15.942  28.137  1.00  0.00     0.262 A 
HETATM   33  N9  UNL     1     -13.069  15.875  27.211  1.00  0.00    -0.324 N 
HETATM   34  C18 UNL     1     -14.042  15.091  27.648  1.00  0.00     0.119 A 
ATOM     35  H9  UNL     1     -13.068  16.359  26.312  1.00  0.00     0.169 HD
HETATM   36  C19 UNL     1     -13.692  14.626  28.880  1.00  0.00     0.052 A 
HETATM   37  N12 UNL     1     -12.504  15.135  29.179  1.00  0.00    -0.317 N 
ATOM     38  H12 UNL     1     -11.990  14.961  30.043  1.00  0.00     0.170 HD
BRANCH  36  39
HETATM   39  C20 UNL     1     -14.481  13.702  29.730  1.00  0.00     0.227 C 
BRANCH  39  40
HETATM   40  O3  UNL     1     -14.897  14.238  30.909  1.00  0.00    -0.369 OA
BRANCH  40  41
HETATM   41  C21 UNL     1     -14.274  13.615  32.053  1.00  0.00     0.236 C 
BRANCH  41  42
HETATM   42  C22 UNL     1     -13.762  12.335  31.496  1.00  0.00     0.277 C 
BRANCH  42  43
HETATM   43  N10 UNL     1     -13.916  11.124  32.213  1.00  0.00    -0.076 N 
HETATM   44  C23 UNL     1     -13.493  11.113  33.572  1.00  0.00     0.271 C 
HETATM   45  C24 UNL     1     -15.360  10.751  32.236  1.00  0.00     0.271 C 
HETATM   46  C25 UNL     1     -13.295  10.029  31.498  1.00  0.00     0.271 C 
ENDBRANCH  42  43
ENDBRANCH  41  42
BRANCH  41  47
HETATM   47  C26 UNL     1     -13.253  14.596  32.486  1.00  0.00     0.261 C 
HETATM   48  N11 UNL     1     -11.912  14.500  32.102  1.00  0.00    -0.060 NA
HETATM   49  O4  UNL     1     -13.582  15.568  33.235  1.00  0.00    -0.274 OA
ENDBRANCH  41  47
ENDBRANCH  40  41
ENDBRANCH  39  40
ENDBRANCH  36  39
ENDBRANCH   6  32
TORSDOF 22
ENDMDL
MODEL 3
REMARK VINA RESULT: -7.909880029      2.318     10.520
REMARK  22 active torsions:
REMARK  status: ('A' for Active; 'I' for Inactive)
REMARK       I    between atoms: C2_2  and  N1_4 
REMARK    1  A    between atoms: N1_4  and  C3_6 
REMARK    2  A    between atoms: C3_6  and  C4_7 
REMARK    3  A    between atoms: C4_7  and  N2_8 
REMARK    4  A    between atoms: N2_8  and  C6_10 
REMARK    5  A    between atoms: N2_8  and  C7_13 
REMARK    6  A    between atoms: C6_10  and  O2_11 
REMARK    7  A    between atoms: C7_13  and  C8_14 
REMARK    8  A    between atoms: C8_14  and  C9_15 
REMARK    9  A    between atoms: C9_15  and  C10_16 
REMARK   10  A    between atoms: C10_16  and  C11_17 
REMARK   11  A    between atoms: C11_17  and  N3_18 
REMARK       I    between atoms: N3_18  and  C12_20 
REMARK       I    between atoms: C12_20  and  N8_31 
REMARK   12  A    between atoms: N4_21  and  C13_23 
REMARK   13  A    between atoms: C13_23  and  C14_24 
REMARK   14  A    between atoms: C14_24  and  C15_25 
REMARK   15  A    between atoms: C15_25  and  N5_26 
REMARK   16  A    between atoms: N8_31  and  C17_32 
REMARK   17  A    between atoms: C19_36  and  C20_37 
REMARK   18  A    between atoms: C20_37  and  O3_38 
REMARK   19  A    between atoms: O3_38  and  C21_39 
REMARK   20  A    between atoms: C21_39  and  C22_40 
REMARK   21  A    between atoms: C21_39  and  C26_45 
REMARK   22  A    between atoms: C22_40  and  N10_41 
ROOT
HETATM    1  N3  UNL     1     -10.264  17.455  29.055  1.00  0.00    -0.351 N 
ATOM      2  H3  UNL     1     -10.759  18.291  29.362  1.00  0.00     0.163 HD
HETATM    3  C12 UNL     1     -10.764  16.643  27.943  1.00  0.00     0.254 C 
HETATM    4  N4  UNL     1     -11.883  16.069  28.187  1.00  0.00    -0.350 N 
ATOM      5  H4  UNL     1     -12.291  16.237  29.107  1.00  0.00     0.163 HD
HETATM    6  N8  UNL     1     -10.068  16.580  26.838  1.00  0.00    -0.336 NA
ENDROOT
BRANCH   1   7
HETATM    7  C11 UNL     1      -9.067  17.035  29.689  1.00  0.00     0.123 C 
BRANCH   7   8
HETATM    8  C10 UNL     1      -9.294  16.154  30.915  1.00  0.00     0.020 C 
BRANCH   8   9
HETATM    9  C9  UNL     1      -8.387  16.686  32.052  1.00  0.00     0.003 C 
BRANCH   9  10
HETATM   10  C8  UNL     1      -8.265  15.606  33.052  1.00  0.00     0.028 C 
BRANCH  10  11
HETATM   11  C7  UNL     1      -9.438  14.706  33.256  1.00  0.00     0.239 C 
BRANCH  11  12
HETATM   12  N2  UNL     1     -10.392  15.092  34.221  1.00  0.00    -0.049 N 
HETATM   13  C5  UNL     1     -11.663  15.528  33.602  1.00  0.00     0.275 C 
BRANCH  12  14
HETATM   14  C4  UNL     1     -10.717  13.982  35.057  1.00  0.00     0.259 C 
BRANCH  14  15
HETATM   15  C3  UNL     1     -12.116  13.520  35.162  1.00  0.00     0.150 C 
BRANCH  15  16
HETATM   16  N1  UNL     1     -12.196  12.162  34.575  1.00  0.00    -0.360 N 
HETATM   17  C2  UNL     1     -13.366  11.563  34.120  1.00  0.00     0.213 C 
HETATM   18  C1  UNL     1     -13.318  10.193  33.545  1.00  0.00     0.117 C 
HETATM   19  O1  UNL     1     -14.465  12.155  34.182  1.00  0.00    -0.274 OA
ATOM     20  H1  UNL     1     -11.330  11.627  34.500  1.00  0.00     0.162 HD
ENDBRANCH  15  16
ENDBRANCH  14  15
ENDBRANCH  12  14
BRANCH  12  21
HETATM   21  C6  UNL     1      -9.976  16.201  35.060  1.00  0.00     0.401 C 
BRANCH  21  22
HETATM   22  O2  UNL     1      -9.255  15.838  36.156  1.00  0.00    -0.374 OA
ATOM     23  H2  UNL     1      -8.824  16.560  36.600  1.00  0.00     0.211 HD
ENDBRANCH  21  22
ENDBRANCH  12  21
ENDBRANCH  11  12
ENDBRANCH  10  11
ENDBRANCH   9  10
ENDBRANCH   8   9
ENDBRANCH   7   8
ENDBRANCH   1   7
BRANCH   4  24
HETATM   24  C13 UNL     1     -12.618  15.220  27.308  1.00  0.00     0.125 C 
BRANCH  24  25
HETATM   25  C14 UNL     1     -14.094  15.367  27.605  1.00  0.00     0.039 C 
BRANCH  25  26
HETATM   26  C15 UNL     1     -14.490  14.305  28.592  1.00  0.00     0.123 C 
BRANCH  26  27
HETATM   27  N5  UNL     1     -14.813  14.911  29.851  1.00  0.00    -0.367 N 
HETATM   28  C16 UNL     1     -14.887  14.175  30.901  1.00  0.00     0.196 C 
HETATM   29  N6  UNL     1     -14.648  12.792  30.793  1.00  0.00    -0.067 NA
HETATM   30  N7  UNL     1     -15.207  14.776  32.139  1.00  0.00    -0.067 NA
ATOM     31  H5  UNL     1     -14.982  15.916  29.912  1.00  0.00     0.161 HD
ENDBRANCH  26  27
ENDBRANCH  25  26
ENDBRANCH  24  25
ENDBRANCH   4  24
BRANCH   6  32
HETATM   32  C17 UNL     1      -9.442  16.503  25.835  1.00  0.00     0.262 A 
HETATM   33  N9  UNL     1      -9.238  15.402  25.052  1.00  0.00    -0.324 N 
HETATM   34  C18 UNL     1      -8.492  15.720  24.006  1.00  0.00     0.119 A 
ATOM     35  H9  UNL     1      -9.607  14.471  25.246  1.00  0.00     0.169 HD
HETATM   36  C19 UNL     1      -8.191  17.046  24.085  1.00  0.00     0.052 A 
HETATM   37  N12 UNL     1      -8.760  17.522  25.184  1.00  0.00    -0.317 N 
ATOM     38  H12 UNL     1      -8.704  18.490  25.502  1.00  0.00     0.170 HD
BRANCH  36  39
HETATM   39  C20 UNL     1      -7.389  17.827  23.111  1.00  0.00     0.227 C 
BRANCH  39  40
HETATM   40  O3  UNL     1      -6.059  17.883  23.394  1.00  0.00    -0.369 OA
BRANCH  40  41
HETATM   41  C21 UNL     1      -5.745  18.874  24.396  1.00  0.00     0.236 C 
BRANCH  41  42
HETATM   42  C22 UNL     1      -5.115  18.067  25.475  1.00  0.00     0.277 C 
BRANCH  42  43
HETATM   43  N10 UNL     1      -5.432  18.306  26.834  1.00  0.00    -0.076 N 
HETATM   44  C23 UNL     1      -6.408  19.306  27.108  1.00  0.00     0.271 C 
HETATM   45  C24 UNL     1      -5.958  17.050  27.440  1.00  0.00     0.271 C 
HETATM   46  C25 UNL     1      -4.230  18.573  27.595  1.00  0.00     0.271 C 
ENDBRANCH  42  43
ENDBRANCH  41  42
BRANCH  41  47
HETATM   47  C26 UNL     1      -4.862  19.831  23.693  1.00  0.00     0.261 C 
HETATM   48  N11 UNL     1      -3.474  19.669  23.638  1.00  0.00    -0.060 NA
HETATM   49  O4  UNL     1      -5.358  20.846  23.111  1.00  0.00    -0.274 OA
ENDBRANCH  41  47
ENDBRANCH  40  41
ENDBRANCH  39  40
ENDBRANCH  36  39
ENDBRANCH   6  32
TORSDOF 22
ENDMDL
MODEL 4
REMARK VINA RESULT: -7.876483389      2.061      3.240
REMARK  22 active torsions:
REMARK  status: ('A' for Active; 'I' for Inactive)
REMARK       I    between atoms: C2_2  and  N1_4 
REMARK    1  A    between atoms: N1_4  and  C3_6 
REMARK    2  A    between atoms: C3_6  and  C4_7 
REMARK    3  A    between atoms: C4_7  and  N2_8 
REMARK    4  A    between atoms: N2_8  and  C6_10 
REMARK    5  A    between atoms: N2_8  and  C7_13 
REMARK    6  A    between atoms: C6_10  and  O2_11 
REMARK    7  A    between atoms: C7_13  and  C8_14 
REMARK    8  A    between atoms: C8_14  and  C9_15 
REMARK    9  A    between atoms: C9_15  and  C10_16 
REMARK   10  A    between atoms: C10_16  and  C11_17 
REMARK   11  A    between atoms: C11_17  and  N3_18 
REMARK       I    between atoms: N3_18  and  C12_20 
REMARK       I    between atoms: C12_20  and  N8_31 
REMARK   12  A    between atoms: N4_21  and  C13_23 
REMARK   13  A    between atoms: C13_23  and  C14_24 
REMARK   14  A    between atoms: C14_24  and  C15_25 
REMARK   15  A    between atoms: C15_25  and  N5_26 
REMARK   16  A    between atoms: N8_31  and  C17_32 
REMARK   17  A    between atoms: C19_36  and  C20_37 
REMARK   18  A    between atoms: C20_37  and  O3_38 
REMARK   19  A    between atoms: O3_38  and  C21_39 
REMARK   20  A    between atoms: C21_39  and  C22_40 
REMARK   21  A    between atoms: C21_39  and  C26_45 
REMARK   22  A    between atoms: C22_40  and  N10_41 
ROOT
HETATM    1  N3  UNL     1      -9.935  17.386  26.689  1.00  0.00    -0.351 N 
ATOM      2  H3  UNL     1      -9.894  18.360  26.387  1.00  0.00     0.163 HD
HETATM    3  C12 UNL     1     -10.376  17.029  28.039  1.00  0.00     0.254 C 
HETATM    4  N4  UNL     1      -9.585  17.435  28.962  1.00  0.00    -0.350 N 
ATOM      5  H4  UNL     1      -8.758  17.949  28.661  1.00  0.00     0.163 HD
HETATM    6  N8  UNL     1     -11.493  16.366  28.190  1.00  0.00    -0.336 NA
ENDROOT
BRANCH   1   7
HETATM    7  C11 UNL     1      -9.569  16.330  25.816  1.00  0.00     0.123 C 
BRANCH   7   8
HETATM    8  C10 UNL     1      -9.437  16.755  24.355  1.00  0.00     0.020 C 
BRANCH   8   9
HETATM    9  C9  UNL     1      -8.004  16.402  23.889  1.00  0.00     0.003 C 
BRANCH   9  10
HETATM   10  C8  UNL     1      -7.122  17.506  24.319  1.00  0.00     0.028 C 
BRANCH  10  11
HETATM   11  C7  UNL     1      -5.989  17.180  25.233  1.00  0.00     0.239 C 
BRANCH  11  12
HETATM   12  N2  UNL     1      -5.971  17.812  26.495  1.00  0.00    -0.049 N 
HETATM   13  C5  UNL     1      -6.405  16.901  27.578  1.00  0.00     0.275 C 
BRANCH  12  14
HETATM   14  C4  UNL     1      -4.641  18.213  26.821  1.00  0.00     0.259 C 
BRANCH  14  15
HETATM   15  C3  UNL     1      -4.070  19.436  26.220  1.00  0.00     0.150 C 
BRANCH  15  16
HETATM   16  N1  UNL     1      -2.915  19.038  25.380  1.00  0.00    -0.360 N 
HETATM   17  C2  UNL     1      -2.893  19.088  23.990  1.00  0.00     0.213 C 
HETATM   18  C1  UNL     1      -1.671  18.665  23.257  1.00  0.00     0.117 C 
HETATM   19  O1  UNL     1      -3.884  19.483  23.339  1.00  0.00    -0.274 OA
ATOM     20  H1  UNL     1      -2.077  18.704  25.856  1.00  0.00     0.162 HD
ENDBRANCH  15  16
ENDBRANCH  14  15
ENDBRANCH  12  14
BRANCH  12  21
HETATM   21  C6  UNL     1      -6.843  18.967  26.595  1.00  0.00     0.401 C 
BRANCH  21  22
HETATM   22  O2  UNL     1      -7.529  19.056  27.767  1.00  0.00    -0.374 OA
ATOM     23  H2  UNL     1      -8.406  19.411  27.684  1.00  0.00     0.211 HD
ENDBRANCH  21  22
ENDBRANCH  12  21
ENDBRANCH  11  12
ENDBRANCH  10  11
ENDBRANCH   9  10
ENDBRANCH   8   9
ENDBRANCH   7   8
ENDBRANCH   1   7
BRANCH   4  24
HETATM   24  C13 UNL     1      -9.742  17.243  30.367  1.00  0.00     0.125 C 
BRANCH  24  25
HETATM   25  C14 UNL     1      -8.917  16.049  30.793  1.00  0.00     0.039 C 
BRANCH  25  26
HETATM   26  C15 UNL     1      -8.340  16.328  32.152  1.00  0.00     0.123 C 
BRANCH  26  27
HETATM   27  N5  UNL     1      -9.364  16.846  33.014  1.00  0.00    -0.367 N 
HETATM   28  C16 UNL     1      -9.623  16.238  34.116  1.00  0.00     0.196 C 
HETATM   29  N6  UNL     1      -8.898  15.080  34.452  1.00  0.00    -0.067 NA
HETATM   30  N7  UNL     1     -10.632  16.751  34.960  1.00  0.00    -0.067 NA
ATOM     31  H5  UNL     1      -9.879  17.688  32.756  1.00  0.00     0.161 HD
ENDBRANCH  26  27
ENDBRANCH  25  26
ENDBRANCH  24  25
ENDBRANCH   4  24
BRANCH   6  32
HETATM   32  C17 UNL     1     -12.496  15.754  28.342  1.00  0.00     0.262 A 
HETATM   33  N9  UNL     1     -13.534  15.610  27.465  1.00  0.00    -0.324 N 
HETATM   34  C18 UNL     1     -14.472  14.839  27.993  1.00  0.00     0.119 A 
ATOM     35  H9  UNL     1     -13.580  16.035  26.539  1.00  0.00     0.169 HD
HETATM   36  C19 UNL     1     -14.061  14.460  29.235  1.00  0.00     0.052 A 
HETATM   37  N12 UNL     1     -12.872  15.008  29.450  1.00  0.00    -0.317 N 
ATOM     38  H12 UNL     1     -12.320  14.899  30.301  1.00  0.00     0.170 HD
BRANCH  36  39
HETATM   39  C20 UNL     1     -14.795  13.579  30.176  1.00  0.00     0.227 C 
BRANCH  39  40
HETATM   40  O3  UNL     1     -15.033  14.131  31.396  1.00  0.00    -0.369 OA
BRANCH  40  41
HETATM   41  C21 UNL     1     -14.206  13.561  32.434  1.00  0.00     0.236 C 
BRANCH  41  42
HETATM   42  C22 UNL     1     -13.713  12.303  31.812  1.00  0.00     0.277 C 
BRANCH  42  43
HETATM   43  N10 UNL     1     -13.899  11.058  32.459  1.00  0.00    -0.076 N 
HETATM   44  C23 UNL     1     -13.306   9.914  31.854  1.00  0.00     0.271 C 
HETATM   45  C24 UNL     1     -13.324  11.132  33.833  1.00  0.00     0.271 C 
HETATM   46  C25 UNL     1     -15.307  10.814  32.694  1.00  0.00     0.271 C 
ENDBRANCH  42  43
ENDBRANCH  41  42
BRANCH  41  47
HETATM   47  C26 UNL     1     -13.188  14.603  32.697  1.00  0.00     0.261 C 
HETATM   48  N11 UNL     1     -11.866  14.490  32.254  1.00  0.00    -0.060 NA
HETATM   49  O4  UNL     1     -13.501  15.648  33.349  1.00  0.00    -0.274 OA
ENDBRANCH  41  47
ENDBRANCH  40  41
ENDBRANCH  39  40
ENDBRANCH  36  39
ENDBRANCH   6  32
TORSDOF 22
ENDMDL
MODEL 5
REMARK VINA RESULT: -7.867816439      2.264     11.808
REMARK  22 active torsions:
REMARK  status: ('A' for Active; 'I' for Inactive)
REMARK       I    between atoms: C2_2  and  N1_4 
REMARK    1  A    between atoms: N1_4  and  C3_6 
REMARK    2  A    between atoms: C3_6  and  C4_7 
REMARK    3  A    between atoms: C4_7  and  N2_8 
REMARK    4  A    between atoms: N2_8  and  C6_10 
REMARK    5  A    between atoms: N2_8  and  C7_13 
REMARK    6  A    between atoms: C6_10  and  O2_11 
REMARK    7  A    between atoms: C7_13  and  C8_14 
REMARK    8  A    between atoms: C8_14  and  C9_15 
REMARK    9  A    between atoms: C9_15  and  C10_16 
REMARK   10  A    between atoms: C10_16  and  C11_17 
REMARK   11  A    between atoms: C11_17  and  N3_18 
REMARK       I    between atoms: N3_18  and  C12_20 
REMARK       I    between atoms: C12_20  and  N8_31 
REMARK   12  A    between atoms: N4_21  and  C13_23 
REMARK   13  A    between atoms: C13_23  and  C14_24 
REMARK   14  A    between atoms: C14_24  and  C15_25 
REMARK   15  A    between atoms: C15_25  and  N5_26 
REMARK   16  A    between atoms: N8_31  and  C17_32 
REMARK   17  A    between atoms: C19_36  and  C20_37 
REMARK   18  A    between atoms: C20_37  and  O3_38 
REMARK   19  A    between atoms: O3_38  and  C21_39 
REMARK   20  A    between atoms: C21_39  and  C22_40 
REMARK   21  A    between atoms: C21_39  and  C26_45 
REMARK   22  A    between atoms: C22_40  and  N10_41 
ROOT
HETATM    1  N3  UNL     1     -10.712  16.942  28.004  1.00  0.00    -0.351 N 
ATOM      2  H3  UNL     1     -11.656  17.320  28.081  1.00  0.00     0.163 HD
HETATM    3  C12 UNL     1      -9.917  17.129  26.788  1.00  0.00     0.254 C 
HETATM    4  N4  UNL     1     -10.398  16.531  25.762  1.00  0.00    -0.350 N 
ATOM      5  H4  UNL     1     -11.259  16.003  25.903  1.00  0.00     0.163 HD
HETATM    6  N8  UNL     1      -8.837  17.865  26.840  1.00  0.00    -0.336 NA
ENDROOT
BRANCH   1   7
HETATM    7  C11 UNL     1     -10.121  16.217  29.071  1.00  0.00     0.123 C 
BRANCH   7   8
HETATM    8  C10 UNL     1      -9.822  17.067  30.303  1.00  0.00     0.020 C 
BRANCH   8   9
HETATM    9  C9  UNL     1      -8.410  16.686  30.808  1.00  0.00     0.003 C 
BRANCH   9  10
HETATM   10  C8  UNL     1      -8.540  16.328  32.235  1.00  0.00     0.028 C 
BRANCH  10  11
HETATM   11  C7  UNL     1      -9.492  15.238  32.599  1.00  0.00     0.239 C 
BRANCH  11  12
HETATM   12  N2  UNL     1     -10.259  15.410  33.771  1.00  0.00    -0.049 N 
HETATM   13  C5  UNL     1     -10.013  16.722  34.408  1.00  0.00     0.275 C 
BRANCH  12  14
HETATM   14  C4  UNL     1     -11.650  15.376  33.453  1.00  0.00     0.259 C 
BRANCH  14  15
HETATM   15  C3  UNL     1     -12.097  14.860  32.143  1.00  0.00     0.150 C 
BRANCH  15  16
HETATM   16  N1  UNL     1     -12.642  13.497  32.348  1.00  0.00    -0.360 N 
HETATM   17  C2  UNL     1     -13.983  13.207  32.579  1.00  0.00     0.213 C 
HETATM   18  C1  UNL     1     -14.410  11.796  32.765  1.00  0.00     0.117 C 
HETATM   19  O1  UNL     1     -14.842  14.113  32.632  1.00  0.00    -0.274 OA
ATOM     20  H1  UNL     1     -11.987  12.716  32.318  1.00  0.00     0.162 HD
ENDBRANCH  15  16
ENDBRANCH  14  15
ENDBRANCH  12  14
BRANCH  12  21
HETATM   21  C6  UNL     1      -9.994  14.427  34.805  1.00  0.00     0.401 C 
BRANCH  21  22
HETATM   22  O2  UNL     1     -10.824  13.348  34.784  1.00  0.00    -0.374 OA
ATOM     23  H2  UNL     1     -11.039  13.001  35.641  1.00  0.00     0.211 HD
ENDBRANCH  21  22
ENDBRANCH  12  21
ENDBRANCH  11  12
ENDBRANCH  10  11
ENDBRANCH   9  10
ENDBRANCH   8   9
ENDBRANCH   7   8
ENDBRANCH   1   7
BRANCH   4  24
HETATM   24  C13 UNL     1      -9.854  16.525  24.444  1.00  0.00     0.125 C 
BRANCH  24  25
HETATM   25  C14 UNL     1      -8.911  15.350  24.308  1.00  0.00     0.039 C 
BRANCH  25  26
HETATM   26  C15 UNL     1      -8.688  15.082  22.846  1.00  0.00     0.123 C 
BRANCH  26  27
HETATM   27  N5  UNL     1      -8.316  16.299  22.184  1.00  0.00    -0.367 N 
HETATM   28  C16 UNL     1      -9.016  16.711  21.188  1.00  0.00     0.196 C 
HETATM   29  N6  UNL     1     -10.132  15.960  20.772  1.00  0.00    -0.067 NA
HETATM   30  N7  UNL     1      -8.644  17.908  20.537  1.00  0.00    -0.067 NA
ATOM     31  H5  UNL     1      -7.505  16.831  22.499  1.00  0.00     0.161 HD
ENDBRANCH  26  27
ENDBRANCH  25  26
ENDBRANCH  24  25
ENDBRANCH   4  24
BRANCH   6  32
HETATM   32  C17 UNL     1      -7.850  18.520  26.874  1.00  0.00     0.262 A 
HETATM   33  N9  UNL     1      -7.624  19.665  27.585  1.00  0.00    -0.324 N 
HETATM   34  C18 UNL     1      -6.391  20.096  27.372  1.00  0.00     0.119 A 
ATOM     35  H9  UNL     1      -8.307  20.121  28.191  1.00  0.00     0.169 HD
HETATM   36  C19 UNL     1      -5.781  19.234  26.512  1.00  0.00     0.052 A 
HETATM   37  N12 UNL     1      -6.655  18.283  26.209  1.00  0.00    -0.317 N 
ATOM     38  H12 UNL     1      -6.477  17.499  25.582  1.00  0.00     0.170 HD
BRANCH  36  39
HETATM   39  C20 UNL     1      -4.387  19.324  26.015  1.00  0.00     0.227 C 
BRANCH  39  40
HETATM   40  O3  UNL     1      -4.105  18.494  24.974  1.00  0.00    -0.369 OA
BRANCH  40  41
HETATM   41  C21 UNL     1      -3.819  19.211  23.754  1.00  0.00     0.236 C 
BRANCH  41  42
HETATM   42  C22 UNL     1      -3.087  18.203  22.940  1.00  0.00     0.277 C 
BRANCH  42  43
HETATM   43  N10 UNL     1      -1.677  18.254  22.826  1.00  0.00    -0.076 N 
HETATM   44  C23 UNL     1      -1.020  19.390  23.378  1.00  0.00     0.271 C 
HETATM   45  C24 UNL     1      -1.090  17.071  23.518  1.00  0.00     0.271 C 
HETATM   46  C25 UNL     1      -1.274  18.076  21.447  1.00  0.00     0.271 C 
ENDBRANCH  42  43
ENDBRANCH  41  42
BRANCH  41  47
HETATM   47  C26 UNL     1      -5.151  19.617  23.252  1.00  0.00     0.261 C 
HETATM   48  N11 UNL     1      -6.156  18.689  22.960  1.00  0.00    -0.060 NA
HETATM   49  O4  UNL     1      -5.415  20.846  23.070  1.00  0.00    -0.274 OA
ENDBRANCH  41  47
ENDBRANCH  40  41
ENDBRANCH  39  40
ENDBRANCH  36  39
ENDBRANCH   6  32
TORSDOF 22
ENDMDL
