MODEL 1
REMARK VINA RESULT: -8.609040870      0.000      0.000
REMARK  21 active torsions:
REMARK  status: ('A' for Active; 'I' for Inactive)
REMARK       I    between atoms: N2_3  and  C2_5 
REMARK       I    between atoms: C2_5  and  N10_49 
REMARK       I    between atoms: N3_6  and  C3_8 
REMARK       I    between atoms: C3_8  and  N5_12 
REMARK    1  A    between atoms: N5_12  and  C4_14 
REMARK    2  A    between atoms: C4_14  and  C5_15 
REMARK    3  A    between atoms: C5_15  and  C6_16 
REMARK    4  A    between atoms: C6_16  and  C7_17 
REMARK    5  A    between atoms: C7_17  and  C8_18 
REMARK    6  A    between atoms: C8_18  and  C9_19 
REMARK       I    between atoms: C9_19  and  N6_21 
REMARK    7  A    between atoms: N6_21  and  C10_23 
REMARK    8  A    between atoms: C10_23  and  C11_24 
REMARK    9  A    between atoms: C11_24  and  C12_25 
REMARK   10  A    between atoms: C12_25  and  C13_26 
REMARK   11  A    between atoms: C13_26  and  C14_27 
REMARK   12  A    between atoms: C14_27  and  C15_28 
REMARK       I    between atoms: C15_28  and  N7_30 
REMARK   13  A    between atoms: N7_30  and  C16_32 
REMARK   14  A    between atoms: C16_32  and  C17_33 
REMARK   15  A    between atoms: C16_32  and  C18_36 
REMARK   16  A    between atoms: C17_33  and  O3_34 
REMARK   17  A    between atoms: C18_36  and  C19_37 
REMARK   18  A    between atoms: C19_37  and  C20_38 
REMARK   19  A    between atoms: C20_38  and  C21_39 
REMARK   20  A    between atoms: C21_39  and  N8_40 
REMARK   21  A    between atoms: N10_49  and  N11_51 
ROOT
HETATM    1  N1  UNL     1      -5.277  17.089  26.811  1.00  0.00    -0.171 NA
HETATM    2  C1  UNL     1      -5.953  17.745  26.132  1.00  0.00     0.196 C 
HETATM    3  N2  UNL     1      -6.759  18.549  25.328  1.00  0.00    -0.124 N 
ATOM      4  H2  UNL     1      -7.499  19.090  25.776  1.00  0.00     0.197 HD
HETATM    5  C2  UNL     1      -6.606  18.657  23.912  1.00  0.00     0.721 C 
HETATM    6  N3  UNL     1      -7.398  17.967  23.179  1.00  0.00    -0.021 N 
ATOM      7  H3  UNL     1      -8.094  17.378  23.634  1.00  0.00     0.203 HD
HETATM    8  C3  UNL     1      -7.347  17.988  21.776  1.00  0.00     0.686 C 
HETATM    9  N4  UNL     1      -6.286  18.301  21.139  1.00  0.00    -0.234 N 
ATOM     10  H41 UNL     1      -6.249  18.316  20.120  1.00  0.00     0.174 HD
ATOM     11  H42 UNL     1      -5.437  18.550  21.647  1.00  0.00     0.174 HD
HETATM   12  N5  UNL     1      -8.534  17.641  21.065  1.00  0.00    -0.226 N 
ATOM     13  H5  UNL     1      -9.310  18.292  20.953  1.00  0.00     0.177 HD
HETATM   14  N10 UNL     1      -5.629  19.485  23.316  1.00  0.00    -0.117 N 
ATOM     15  H10 UNL     1      -4.700  19.112  23.120  1.00  0.00     0.207 HD
ENDROOT
BRANCH  14  16
HETATM   16  N11 UNL     1      -5.924  20.805  22.997  1.00  0.00    -0.235 N 
HETATM   17  N12 UNL     1      -5.937  21.670  23.926  1.00  0.00    -0.330 N 
ATOM     18 2H12 UNL     1      -5.734  21.385  24.885  1.00  0.00     0.178 HD
ATOM     19 1H12 UNL     1      -6.154  22.639  23.692  1.00  0.00     0.178 HD
ATOM     20  H11 UNL     1      -6.125  21.074  22.034  1.00  0.00     0.208 HD
ENDBRANCH  14  16
BRANCH  12  21
HETATM   21  C4  UNL     1      -8.564  16.292  20.507  1.00  0.00     0.138 C 
BRANCH  21  22
HETATM   22  C5  UNL     1      -7.850  15.388  21.474  1.00  0.00     0.020 C 
BRANCH  22  23
HETATM   23  C6  UNL     1      -8.886  14.857  22.464  1.00  0.00     0.002 C 
BRANCH  23  24
HETATM   24  C7  UNL     1      -8.433  15.043  23.867  1.00  0.00     0.009 C 
BRANCH  24  25
HETATM   25  C8  UNL     1      -9.549  15.160  24.830  1.00  0.00     0.103 C 
BRANCH  25  26
HETATM   26  C9  UNL     1      -9.449  16.309  25.730  1.00  0.00     0.217 C 
HETATM   27  O1  UNL     1      -9.484  17.494  25.368  1.00  0.00    -0.274 OA
HETATM   28  N6  UNL     1      -9.295  16.060  27.138  1.00  0.00    -0.361 N 
ATOM     29  H6  UNL     1      -9.266  15.094  27.465  1.00  0.00     0.162 HD
BRANCH  28  30
HETATM   30  C10 UNL     1      -9.180  17.126  28.110  1.00  0.00     0.122 C 
BRANCH  30  31
HETATM   31  C11 UNL     1      -8.407  16.632  29.328  1.00  0.00     0.020 C 
BRANCH  31  32
HETATM   32  C12 UNL     1      -9.173  16.990  30.575  1.00  0.00     0.002 C 
BRANCH  32  33
HETATM   33  C13 UNL     1      -9.041  15.965  31.654  1.00  0.00     0.009 C 
BRANCH  33  34
HETATM   34  C14 UNL     1      -8.904  16.661  32.981  1.00  0.00     0.103 C 
BRANCH  34  35
HETATM   35  C15 UNL     1     -10.063  16.299  33.830  1.00  0.00     0.217 C 
HETATM   36  O2  UNL     1     -10.355  17.054  34.790  1.00  0.00    -0.274 OA
HETATM   37  N7  UNL     1     -10.816  15.118  33.551  1.00  0.00    -0.354 N 
ATOM     38  H7  UNL     1     -10.543  14.530  32.762  1.00  0.00     0.162 HD
BRANCH  37  39
HETATM   39  C16 UNL     1     -11.956  14.731  34.356  1.00  0.00     0.108 C 
BRANCH  39  40
HETATM   40  C17 UNL     1     -11.369  13.746  35.396  1.00  0.00     0.189 C 
BRANCH  40  41
HETATM   41  O3  UNL     1     -11.394  12.454  34.877  1.00  0.00    -0.399 OA
ATOM     42  H3  UNL     1     -12.295  12.183  34.747  1.00  0.00     0.209 HD
ENDBRANCH  40  41
ENDBRANCH  39  40
BRANCH  39  43
HETATM   43  C18 UNL     1     -12.991  13.953  33.594  1.00  0.00     0.027 C 
BRANCH  43  44
HETATM   44  C19 UNL     1     -12.789  13.952  32.102  1.00  0.00     0.004 C 
BRANCH  44  45
HETATM   45  C20 UNL     1     -13.304  12.677  31.470  1.00  0.00     0.020 C 
BRANCH  45  46
HETATM   46  C21 UNL     1     -12.491  12.283  30.256  1.00  0.00     0.126 C 
BRANCH  46  47
HETATM   47  N8  UNL     1     -13.034  13.020  29.121  1.00  0.00    -0.343 N 
HETATM   48  C22 UNL     1     -14.447  12.869  28.776  1.00  0.00     0.146 C 
HETATM   49  C23 UNL     1     -15.054  14.259  28.786  1.00  0.00     0.143 C 
HETATM   50  N9  UNL     1     -14.358  15.023  27.753  1.00  0.00    -0.351 N 
HETATM   51  C24 UNL     1     -12.950  14.946  27.602  1.00  0.00     0.309 C 
ATOM     52  H9  UNL     1     -14.897  15.623  27.129  1.00  0.00     0.162 HD
HETATM   53  O4  UNL     1     -12.318  15.752  26.877  1.00  0.00    -0.262 OA
HETATM   54  C25 UNL     1     -12.250  13.885  28.327  1.00  0.00     0.311 C 
HETATM   55  O5  UNL     1     -11.014  13.715  28.275  1.00  0.00    -0.262 OA
ENDBRANCH  46  47
ENDBRANCH  45  46
ENDBRANCH  44  45
ENDBRANCH  43  44
ENDBRANCH  39  43
ENDBRANCH  37  39
ENDBRANCH  34  35
ENDBRANCH  33  34
ENDBRANCH  32  33
ENDBRANCH  31  32
ENDBRANCH  30  31
ENDBRANCH  28  30
ENDBRANCH  25  26
ENDBRANCH  24  25
ENDBRANCH  23  24
ENDBRANCH  22  23
ENDBRANCH  21  22
ENDBRANCH  12  21
TORSDOF 21
ENDMDL
MODEL 2
REMARK VINA RESULT: -8.510608741      2.849     10.850
REMARK  21 active torsions:
REMARK  status: ('A' for Active; 'I' for Inactive)
REMARK       I    between atoms: N2_3  and  C2_5 
REMARK       I    between atoms: C2_5  and  N10_49 
REMARK       I    between atoms: N3_6  and  C3_8 
REMARK       I    between atoms: C3_8  and  N5_12 
REMARK    1  A    between atoms: N5_12  and  C4_14 
REMARK    2  A    between atoms: C4_14  and  C5_15 
REMARK    3  A    between atoms: C5_15  and  C6_16 
REMARK    4  A    between atoms: C6_16  and  C7_17 
REMARK    5  A    between atoms: C7_17  and  C8_18 
REMARK    6  A    between atoms: C8_18  and  C9_19 
REMARK       I    between atoms: C9_19  and  N6_21 
REMARK    7  A    between atoms: N6_21  and  C10_23 
REMARK    8  A    between atoms: C10_23  and  C11_24 
REMARK    9  A    between atoms: C11_24  and  C12_25 
REMARK   10  A    between atoms: C12_25  and  C13_26 
REMARK   11  A    between atoms: C13_26  and  C14_27 
REMARK   12  A    between atoms: C14_27  and  C15_28 
REMARK       I    between atoms: C15_28  and  N7_30 
REMARK   13  A    between atoms: N7_30  and  C16_32 
REMARK   14  A    between atoms: C16_32  and  C17_33 
REMARK   15  A    between atoms: C16_32  and  C18_36 
REMARK   16  A    between atoms: C17_33  and  O3_34 
REMARK   17  A    between atoms: C18_36  and  C19_37 
REMARK   18  A    between atoms: C19_37  and  C20_38 
REMARK   19  A    between atoms: C20_38  and  C21_39 
REMARK   20  A    between atoms: C21_39  and  N8_40 
REMARK   21  A    between atoms: N10_49  and  N11_51 
ROOT
HETATM    1  N1  UNL     1     -13.898  12.712  26.130  1.00  0.00    -0.171 NA
HETATM    2  C1  UNL     1     -14.136  13.406  27.030  1.00  0.00     0.196 C 
HETATM    3  N2  UNL     1     -14.443  14.237  28.105  1.00  0.00    -0.124 N 
ATOM      4  H2  UNL     1     -14.966  15.093  27.919  1.00  0.00     0.197 HD
HETATM    5  C2  UNL     1     -14.064  13.957  29.454  1.00  0.00     0.721 C 
HETATM    6  N3  UNL     1     -13.028  14.556  29.912  1.00  0.00    -0.021 N 
ATOM      7  H3  UNL     1     -12.526  15.198  29.300  1.00  0.00     0.203 HD
HETATM    8  C3  UNL     1     -12.556  14.364  31.220  1.00  0.00     0.686 C 
HETATM    9  N4  UNL     1     -12.805  13.304  31.884  1.00  0.00    -0.234 N 
ATOM     10  H41 UNL     1     -12.462  13.165  32.835  1.00  0.00     0.174 HD
ATOM     11  H42 UNL     1     -13.366  12.559  31.470  1.00  0.00     0.174 HD
HETATM   12  N5  UNL     1     -11.772  15.406  31.801  1.00  0.00    -0.226 N 
ATOM     13  H5  UNL     1     -12.191  16.256  32.176  1.00  0.00     0.177 HD
HETATM   14  N10 UNL     1     -14.785  13.061  30.273  1.00  0.00    -0.117 N 
ATOM     15  H10 UNL     1     -14.539  12.071  30.280  1.00  0.00     0.207 HD
ENDROOT
BRANCH  14  16
HETATM   16  N11 UNL     1     -15.829  13.518  31.069  1.00  0.00    -0.235 N 
HETATM   17  N12 UNL     1     -16.656  14.346  30.575  1.00  0.00    -0.330 N 
ATOM     18 2H12 UNL     1     -16.542  14.660  29.611  1.00  0.00     0.178 HD
ATOM     19 1H12 UNL     1     -17.421  14.681  31.160  1.00  0.00     0.178 HD
ATOM     20  H11 UNL     1     -15.929  13.194  32.031  1.00  0.00     0.208 HD
ENDBRANCH  14  16
BRANCH  12  21
HETATM   21  C4  UNL     1     -10.331  15.174  31.822  1.00  0.00     0.138 C 
BRANCH  21  22
HETATM   22  C5  UNL     1      -9.658  16.519  31.844  1.00  0.00     0.020 C 
BRANCH  22  23
HETATM   23  C6  UNL     1      -8.969  16.715  30.494  1.00  0.00     0.002 C 
BRANCH  23  24
HETATM   24  C7  UNL     1      -9.870  17.392  29.525  1.00  0.00     0.009 C 
BRANCH  24  25
HETATM   25  C8  UNL     1     -10.232  16.540  28.371  1.00  0.00     0.103 C 
BRANCH  25  26
HETATM   26  C9  UNL     1      -9.773  17.051  27.080  1.00  0.00     0.217 C 
HETATM   27  O1  UNL     1      -9.628  18.252  26.807  1.00  0.00    -0.274 OA
HETATM   28  N6  UNL     1      -9.468  16.104  26.042  1.00  0.00    -0.361 N 
ATOM     29  H6  UNL     1      -9.576  15.109  26.239  1.00  0.00     0.162 HD
BRANCH  28  30
HETATM   30  C10 UNL     1      -9.014  16.506  24.728  1.00  0.00     0.122 C 
BRANCH  30  31
HETATM   31  C11 UNL     1      -8.037  15.471  24.180  1.00  0.00     0.020 C 
BRANCH  31  32
HETATM   32  C12 UNL     1      -8.624  14.849  22.939  1.00  0.00     0.002 C 
BRANCH  32  33
HETATM   33  C13 UNL     1      -9.564  15.761  22.220  1.00  0.00     0.009 C 
BRANCH  33  34
HETATM   34  C14 UNL     1      -9.103  15.922  20.797  1.00  0.00     0.103 C 
BRANCH  34  35
HETATM   35  C15 UNL     1      -8.126  17.034  20.737  1.00  0.00     0.217 C 
HETATM   36  O2  UNL     1      -8.561  18.196  20.541  1.00  0.00    -0.274 OA
HETATM   37  N7  UNL     1      -6.731  16.773  20.897  1.00  0.00    -0.354 N 
ATOM     38  H7  UNL     1      -6.420  15.814  21.051  1.00  0.00     0.162 HD
BRANCH  37  39
HETATM   39  C16 UNL     1      -5.745  17.835  20.846  1.00  0.00     0.108 C 
BRANCH  39  40
HETATM   40  C17 UNL     1      -4.571  17.222  20.044  1.00  0.00     0.189 C 
BRANCH  40  41
HETATM   41  O3  UNL     1      -4.289  15.950  20.534  1.00  0.00    -0.399 OA
ATOM     42  H3  UNL     1      -3.483  15.977  21.037  1.00  0.00     0.209 HD
ENDBRANCH  40  41
ENDBRANCH  39  40
BRANCH  39  43
HETATM   43  C18 UNL     1      -5.180  18.191  22.192  1.00  0.00     0.027 C 
BRANCH  43  44
HETATM   44  C19 UNL     1      -6.016  19.168  22.974  1.00  0.00     0.004 C 
BRANCH  44  45
HETATM   45  C20 UNL     1      -5.156  20.173  23.711  1.00  0.00     0.020 C 
BRANCH  45  46
HETATM   46  C21 UNL     1      -4.088  19.497  24.542  1.00  0.00     0.126 C 
BRANCH  46  47
HETATM   47  N8  UNL     1      -4.719  19.075  25.787  1.00  0.00    -0.343 N 
HETATM   48  C22 UNL     1      -5.030  20.074  26.809  1.00  0.00     0.146 C 
HETATM   49  C23 UNL     1      -6.515  19.962  27.096  1.00  0.00     0.143 C 
HETATM   50  N9  UNL     1      -6.735  18.615  27.620  1.00  0.00    -0.351 N 
HETATM   51  C24 UNL     1      -6.116  17.484  27.029  1.00  0.00     0.309 C 
ATOM     52  H9  UNL     1      -7.347  18.487  28.425  1.00  0.00     0.162 HD
HETATM   53  O4  UNL     1      -6.462  16.313  27.320  1.00  0.00    -0.262 OA
HETATM   54  C25 UNL     1      -5.048  17.730  26.059  1.00  0.00     0.311 C 
HETATM   55  O5  UNL     1      -4.429  16.818  25.472  1.00  0.00    -0.262 OA
ENDBRANCH  46  47
ENDBRANCH  45  46
ENDBRANCH  44  45
ENDBRANCH  43  44
ENDBRANCH  39  43
ENDBRANCH  37  39
ENDBRANCH  34  35
ENDBRANCH  33  34
ENDBRANCH  32  33
ENDBRANCH  31  32
ENDBRANCH  30  31
ENDBRANCH  28  30
ENDBRANCH  25  26
ENDBRANCH  24  25
ENDBRANCH  23  24
ENDBRANCH  22  23
ENDBRANCH  21  22
ENDBRANCH  12  21
TORSDOF 21
ENDMDL
MODEL 3
REMARK VINA RESULT: -8.445793090      2.659     10.420
REMARK  21 active torsions:
REMARK  status: ('A' for Active; 'I' for Inactive)
REMARK       I    between atoms: N2_3  and  C2_5 
REMARK       I    between atoms: C2_5  and  N10_49 
REMARK       I    between atoms: N3_6  and  C3_8 
REMARK       I    between atoms: C3_8  and  N5_12 
REMARK    1  A    between atoms: N5_12  and  C4_14 
REMARK    2  A    between atoms: C4_14  and  C5_15 
REMARK    3  A    between atoms: C5_15  and  C6_16 
REMARK    4  A    between atoms: C6_16  and  C7_17 
REMARK    5  A    between atoms: C7_17  and  C8_18 
REMARK    6  A    between atoms: C8_18  and  C9_19 
REMARK       I    between atoms: C9_19  and  N6_21 
REMARK    7  A    between atoms: N6_21  and  C10_23 
REMARK    8  A    between atoms: C10_23  and  C11_24 
REMARK    9  A    between atoms: C11_24  and  C12_25 
REMARK   10  A    between atoms: C12_25  and  C13_26 
REMARK   11  A    between atoms: C13_26  and  C14_27 
REMARK   12  A    between atoms: C14_27  and  C15_28 
REMARK       I    between atoms: C15_28  and  N7_30 
REMARK   13  A    between atoms: N7_30  and  C16_32 
REMARK   14  A    between atoms: C16_32  and  C17_33 
REMARK   15  A    between atoms: C16_32  and  C18_36 
REMARK   16  A    between atoms: C17_33  and  O3_34 
REMARK   17  A    between atoms: C18_36  and  C19_37 
REMARK   18  A    between atoms: C19_37  and  C20_38 
REMARK   19  A    between atoms: C20_38  and  C21_39 
REMARK   20  A    between atoms: C21_39  and  N8_40 
REMARK   21  A    between atoms: N10_49  and  N11_51 
ROOT
HETATM    1  N1  UNL     1      -9.198  17.593  30.340  1.00  0.00    -0.171 NA
HETATM    2  C1  UNL     1      -9.614  16.532  30.562  1.00  0.00     0.196 C 
HETATM    3  N2  UNL     1     -10.095  15.255  30.841  1.00  0.00    -0.124 N 
ATOM      4  H2  UNL     1      -9.502  14.456  30.615  1.00  0.00     0.197 HD
HETATM    5  C2  UNL     1     -11.374  15.001  31.426  1.00  0.00     0.721 C 
HETATM    6  N3  UNL     1     -12.325  14.662  30.639  1.00  0.00    -0.021 N 
ATOM      7  H3  UNL     1     -12.130  14.588  29.641  1.00  0.00     0.203 HD
HETATM    8  C3  UNL     1     -13.626  14.387  31.092  1.00  0.00     0.686 C 
HETATM    9  N4  UNL     1     -14.081  14.868  32.182  1.00  0.00    -0.234 N 
ATOM     10  H41 UNL     1     -15.026  14.669  32.512  1.00  0.00     0.174 HD
ATOM     11  H42 UNL     1     -13.496  15.472  32.760  1.00  0.00     0.174 HD
HETATM   12  N5  UNL     1     -14.444  13.541  30.285  1.00  0.00    -0.226 N 
ATOM     13  H5  UNL     1     -14.334  12.528  30.275  1.00  0.00     0.177 HD
HETATM   14  N10 UNL     1     -11.608  15.113  32.814  1.00  0.00    -0.117 N 
ATOM     15  H10 UNL     1     -11.901  16.007  33.208  1.00  0.00     0.207 HD
ENDROOT
BRANCH  14  16
HETATM   16  N11 UNL     1     -11.439  14.014  33.648  1.00  0.00    -0.235 N 
HETATM   17  N12 UNL     1     -10.398  13.950  34.371  1.00  0.00    -0.330 N 
ATOM     18 2H12 UNL     1      -9.707  14.699  34.328  1.00  0.00     0.178 HD
ATOM     19 1H12 UNL     1     -10.274  13.143  34.982  1.00  0.00     0.178 HD
ATOM     20  H11 UNL     1     -12.140  13.273  33.678  1.00  0.00     0.208 HD
ENDBRANCH  14  16
BRANCH  12  21
HETATM   21  C4  UNL     1     -15.449  14.222  29.474  1.00  0.00     0.138 C 
BRANCH  21  22
HETATM   22  C5  UNL     1     -14.800  14.592  28.169  1.00  0.00     0.020 C 
BRANCH  22  23
HETATM   23  C6  UNL     1     -14.190  13.322  27.578  1.00  0.00     0.002 C 
BRANCH  23  24
HETATM   24  C7  UNL     1     -12.981  13.632  26.772  1.00  0.00     0.009 C 
BRANCH  24  25
HETATM   25  C8  UNL     1     -11.720  13.226  27.430  1.00  0.00     0.103 C 
BRANCH  25  26
HETATM   26  C9  UNL     1     -10.622  14.177  27.263  1.00  0.00     0.217 C 
HETATM   27  O1  UNL     1      -9.639  14.259  28.014  1.00  0.00    -0.274 OA
HETATM   28  N6  UNL     1     -10.674  15.090  26.153  1.00  0.00    -0.361 N 
ATOM     29  H6  UNL     1     -11.470  15.044  25.517  1.00  0.00     0.162 HD
BRANCH  28  30
HETATM   30  C10 UNL     1      -9.642  16.074  25.904  1.00  0.00     0.122 C 
BRANCH  30  31
HETATM   31  C11 UNL     1      -8.713  15.578  24.800  1.00  0.00     0.020 C 
BRANCH  31  32
HETATM   32  C12 UNL     1      -9.441  15.640  23.481  1.00  0.00     0.002 C 
BRANCH  32  33
HETATM   33  C13 UNL     1      -8.627  15.120  22.342  1.00  0.00     0.009 C 
BRANCH  33  34
HETATM   34  C14 UNL     1      -8.950  15.912  21.104  1.00  0.00     0.103 C 
BRANCH  34  35
HETATM   35  C15 UNL     1      -7.992  17.037  20.995  1.00  0.00     0.217 C 
HETATM   36  O2  UNL     1      -8.376  18.091  20.431  1.00  0.00    -0.274 OA
HETATM   37  N7  UNL     1      -6.671  16.907  21.521  1.00  0.00    -0.354 N 
ATOM     38  H7  UNL     1      -6.398  16.031  21.969  1.00  0.00     0.162 HD
BRANCH  37  39
HETATM   39  C16 UNL     1      -5.705  17.984  21.436  1.00  0.00     0.108 C 
BRANCH  39  40
HETATM   40  C17 UNL     1      -4.460  17.327  20.793  1.00  0.00     0.189 C 
BRANCH  40  41
HETATM   41  O3  UNL     1      -4.732  15.989  20.520  1.00  0.00    -0.399 OA
ATOM     42  H3  UNL     1      -4.661  15.836  19.585  1.00  0.00     0.209 HD
ENDBRANCH  40  41
ENDBRANCH  39  40
BRANCH  39  43
HETATM   43  C18 UNL     1      -5.255  18.492  22.777  1.00  0.00     0.027 C 
BRANCH  43  44
HETATM   44  C19 UNL     1      -5.751  19.872  23.113  1.00  0.00     0.004 C 
BRANCH  44  45
HETATM   45  C20 UNL     1      -5.041  20.440  24.324  1.00  0.00     0.020 C 
BRANCH  45  46
HETATM   46  C21 UNL     1      -4.198  19.395  25.023  1.00  0.00     0.126 C 
BRANCH  46  47
HETATM   47  N8  UNL     1      -4.943  18.962  26.199  1.00  0.00    -0.343 N 
HETATM   48  C22 UNL     1      -5.459  19.965  27.131  1.00  0.00     0.146 C 
HETATM   49  C23 UNL     1      -6.954  19.736  27.241  1.00  0.00     0.143 C 
HETATM   50  N9  UNL     1      -7.129  18.394  27.792  1.00  0.00    -0.351 N 
HETATM   51  C24 UNL     1      -6.352  17.300  27.331  1.00  0.00     0.309 C 
ATOM     52  H9  UNL     1      -7.824  18.241  28.523  1.00  0.00     0.162 HD
HETATM   53  O4  UNL     1      -6.635  16.115  27.629  1.00  0.00    -0.262 OA
HETATM   54  C25 UNL     1      -5.194  17.604  26.488  1.00  0.00     0.311 C 
HETATM   55  O5  UNL     1      -4.435  16.729  26.021  1.00  0.00    -0.262 OA
ENDBRANCH  46  47
ENDBRANCH  45  46
ENDBRANCH  44  45
ENDBRANCH  43  44
ENDBRANCH  39  43
ENDBRANCH  37  39
ENDBRANCH  34  35
ENDBRANCH  33  34
ENDBRANCH  32  33
ENDBRANCH  31  32
ENDBRANCH  30  31
ENDBRANCH  28  30
ENDBRANCH  25  26
ENDBRANCH  24  25
ENDBRANCH  23  24
ENDBRANCH  22  23
ENDBRANCH  21  22
ENDBRANCH  12  21
TORSDOF 21
ENDMDL
MODEL 4
REMARK VINA RESULT: -8.312234815      2.732     10.610
REMARK  21 active torsions:
REMARK  status: ('A' for Active; 'I' for Inactive)
REMARK       I    between atoms: N2_3  and  C2_5 
REMARK       I    between atoms: C2_5  and  N10_49 
REMARK       I    between atoms: N3_6  and  C3_8 
REMARK       I    between atoms: C3_8  and  N5_12 
REMARK    1  A    between atoms: N5_12  and  C4_14 
REMARK    2  A    between atoms: C4_14  and  C5_15 
REMARK    3  A    between atoms: C5_15  and  C6_16 
REMARK    4  A    between atoms: C6_16  and  C7_17 
REMARK    5  A    between atoms: C7_17  and  C8_18 
REMARK    6  A    between atoms: C8_18  and  C9_19 
REMARK       I    between atoms: C9_19  and  N6_21 
REMARK    7  A    between atoms: N6_21  and  C10_23 
REMARK    8  A    between atoms: C10_23  and  C11_24 
REMARK    9  A    between atoms: C11_24  and  C12_25 
REMARK   10  A    between atoms: C12_25  and  C13_26 
REMARK   11  A    between atoms: C13_26  and  C14_27 
REMARK   12  A    between atoms: C14_27  and  C15_28 
REMARK       I    between atoms: C15_28  and  N7_30 
REMARK   13  A    between atoms: N7_30  and  C16_32 
REMARK   14  A    between atoms: C16_32  and  C17_33 
REMARK   15  A    between atoms: C16_32  and  C18_36 
REMARK   16  A    between atoms: C17_33  and  O3_34 
REMARK   17  A    between atoms: C18_36  and  C19_37 
REMARK   18  A    between atoms: C19_37  and  C20_38 
REMARK   19  A    between atoms: C20_38  and  C21_39 
REMARK   20  A    between atoms: C21_39  and  N8_40 
REMARK   21  A    between atoms: N10_49  and  N11_51 
ROOT
HETATM    1  N1  UNL     1      -9.276  16.548  31.376  1.00  0.00    -0.171 NA
HETATM    2  C1  UNL     1      -9.991  15.641  31.490  1.00  0.00     0.196 C 
HETATM    3  N2  UNL     1     -10.841  14.549  31.646  1.00  0.00    -0.124 N 
ATOM      4  H2  UNL     1     -10.423  13.632  31.807  1.00  0.00     0.197 HD
HETATM    5  C2  UNL     1     -12.267  14.641  31.592  1.00  0.00     0.721 C 
HETATM    6  N3  UNL     1     -12.837  14.313  30.494  1.00  0.00    -0.021 N 
ATOM      7  H3  UNL     1     -12.256  14.004  29.715  1.00  0.00     0.203 HD
HETATM    8  C3  UNL     1     -14.229  14.361  30.316  1.00  0.00     0.686 C 
HETATM    9  N4  UNL     1     -14.977  15.125  31.013  1.00  0.00    -0.234 N 
ATOM     10  H41 UNL     1     -15.988  15.161  30.884  1.00  0.00     0.174 HD
ATOM     11  H42 UNL     1     -14.570  15.728  31.729  1.00  0.00     0.174 HD
HETATM   12  N5  UNL     1     -14.799  13.519  29.316  1.00  0.00    -0.226 N 
ATOM     13  H5  UNL     1     -14.947  12.521  29.465  1.00  0.00     0.177 HD
HETATM   14  N10 UNL     1     -13.040  15.073  32.692  1.00  0.00    -0.117 N 
ATOM     15  H10 UNL     1     -13.246  16.065  32.808  1.00  0.00     0.207 HD
ENDROOT
BRANCH  14  16
HETATM   16  N11 UNL     1     -13.520  14.155  33.619  1.00  0.00    -0.235 N 
HETATM   17  N12 UNL     1     -12.847  13.944  34.674  1.00  0.00    -0.330 N 
ATOM     18 2H12 UNL     1     -11.972  14.446  34.824  1.00  0.00     0.178 HD
ATOM     19 1H12 UNL     1     -13.200  13.270  35.354  1.00  0.00     0.178 HD
ATOM     20  H11 UNL     1     -14.398  13.661  33.454  1.00  0.00     0.208 HD
ENDBRANCH  14  16
BRANCH  12  21
HETATM   21  C4  UNL     1     -15.158  14.179  28.064  1.00  0.00     0.138 C 
BRANCH  21  22
HETATM   22  C5  UNL     1     -13.907  14.807  27.511  1.00  0.00     0.020 C 
BRANCH  22  23
HETATM   23  C6  UNL     1     -13.052  13.689  26.917  1.00  0.00     0.002 C 
BRANCH  23  24
HETATM   24  C7  UNL     1     -11.615  14.069  26.891  1.00  0.00     0.009 C 
BRANCH  24  25
HETATM   25  C8  UNL     1     -11.318  15.283  27.680  1.00  0.00     0.103 C 
BRANCH  25  26
HETATM   26  C9  UNL     1     -10.221  16.092  27.149  1.00  0.00     0.217 C 
HETATM   27  O1  UNL     1      -9.202  16.403  27.783  1.00  0.00    -0.274 OA
HETATM   28  N6  UNL     1     -10.320  16.569  25.796  1.00  0.00    -0.361 N 
ATOM     29  H6  UNL     1     -11.146  16.326  25.250  1.00  0.00     0.162 HD
BRANCH  28  30
HETATM   30  C10 UNL     1      -9.294  17.382  25.179  1.00  0.00     0.122 C 
BRANCH  30  31
HETATM   31  C11 UNL     1      -8.373  16.501  24.342  1.00  0.00     0.020 C 
BRANCH  31  32
HETATM   32  C12 UNL     1      -9.210  15.542  23.534  1.00  0.00     0.002 C 
BRANCH  32  33
HETATM   33  C13 UNL     1      -8.500  15.026  22.325  1.00  0.00     0.009 C 
BRANCH  33  34
HETATM   34  C14 UNL     1      -8.950  15.805  21.119  1.00  0.00     0.103 C 
BRANCH  34  35
HETATM   35  C15 UNL     1      -8.018  16.938  20.909  1.00  0.00     0.217 C 
HETATM   36  O2  UNL     1      -8.488  18.021  20.483  1.00  0.00    -0.274 OA
HETATM   37  N7  UNL     1      -6.626  16.782  21.189  1.00  0.00    -0.354 N 
ATOM     38  H7  UNL     1      -6.286  15.883  21.531  1.00  0.00     0.162 HD
BRANCH  37  39
HETATM   39  C16 UNL     1      -5.684  17.866  20.998  1.00  0.00     0.108 C 
BRANCH  39  40
HETATM   40  C17 UNL     1      -4.472  17.197  20.306  1.00  0.00     0.189 C 
BRANCH  40  41
HETATM   41  O3  UNL     1      -4.690  15.824  20.216  1.00  0.00    -0.399 OA
ATOM     42  H3  UNL     1      -3.879  15.391  19.977  1.00  0.00     0.209 HD
ENDBRANCH  40  41
ENDBRANCH  39  40
BRANCH  39  43
HETATM   43  C18 UNL     1      -5.158  18.435  22.286  1.00  0.00     0.027 C 
BRANCH  43  44
HETATM   44  C19 UNL     1      -3.685  18.218  22.501  1.00  0.00     0.004 C 
BRANCH  44  45
HETATM   45  C20 UNL     1      -3.411  17.491  23.800  1.00  0.00     0.020 C 
BRANCH  45  46
HETATM   46  C21 UNL     1      -3.371  18.441  24.978  1.00  0.00     0.126 C 
BRANCH  46  47
HETATM   47  N8  UNL     1      -4.668  18.357  25.639  1.00  0.00    -0.343 N 
HETATM   48  C22 UNL     1      -5.228  17.044  25.957  1.00  0.00     0.146 C 
HETATM   49  C23 UNL     1      -5.502  17.033  27.449  1.00  0.00     0.143 C 
HETATM   50  N9  UNL     1      -6.491  18.080  27.698  1.00  0.00    -0.351 N 
HETATM   51  C24 UNL     1      -6.386  19.354  27.081  1.00  0.00     0.309 C 
ATOM     52  H9  UNL     1      -7.270  17.891  28.327  1.00  0.00     0.162 HD
HETATM   53  O4  UNL     1      -7.090  20.325  27.448  1.00  0.00    -0.262 OA
HETATM   54  C25 UNL     1      -5.420  19.498  25.991  1.00  0.00     0.311 C 
HETATM   55  O5  UNL     1      -5.236  20.567  25.372  1.00  0.00    -0.262 OA
ENDBRANCH  46  47
ENDBRANCH  45  46
ENDBRANCH  44  45
ENDBRANCH  43  44
ENDBRANCH  39  43
ENDBRANCH  37  39
ENDBRANCH  34  35
ENDBRANCH  33  34
ENDBRANCH  32  33
ENDBRANCH  31  32
ENDBRANCH  30  31
ENDBRANCH  28  30
ENDBRANCH  25  26
ENDBRANCH  24  25
ENDBRANCH  23  24
ENDBRANCH  22  23
ENDBRANCH  21  22
ENDBRANCH  12  21
TORSDOF 21
ENDMDL
MODEL 5
REMARK VINA RESULT: -8.268865736      1.510      3.246
REMARK  21 active torsions:
REMARK  status: ('A' for Active; 'I' for Inactive)
REMARK       I    between atoms: N2_3  and  C2_5 
REMARK       I    between atoms: C2_5  and  N10_49 
REMARK       I    between atoms: N3_6  and  C3_8 
REMARK       I    between atoms: C3_8  and  N5_12 
REMARK    1  A    between atoms: N5_12  and  C4_14 
REMARK    2  A    between atoms: C4_14  and  C5_15 
REMARK    3  A    between atoms: C5_15  and  C6_16 
REMARK    4  A    between atoms: C6_16  and  C7_17 
REMARK    5  A    between atoms: C7_17  and  C8_18 
REMARK    6  A    between atoms: C8_18  and  C9_19 
REMARK       I    between atoms: C9_19  and  N6_21 
REMARK    7  A    between atoms: N6_21  and  C10_23 
REMARK    8  A    between atoms: C10_23  and  C11_24 
REMARK    9  A    between atoms: C11_24  and  C12_25 
REMARK   10  A    between atoms: C12_25  and  C13_26 
REMARK   11  A    between atoms: C13_26  and  C14_27 
REMARK   12  A    between atoms: C14_27  and  C15_28 
REMARK       I    between atoms: C15_28  and  N7_30 
REMARK   13  A    between atoms: N7_30  and  C16_32 
REMARK   14  A    between atoms: C16_32  and  C17_33 
REMARK   15  A    between atoms: C16_32  and  C18_36 
REMARK   16  A    between atoms: C17_33  and  O3_34 
REMARK   17  A    between atoms: C18_36  and  C19_37 
REMARK   18  A    between atoms: C19_37  and  C20_38 
REMARK   19  A    between atoms: C20_38  and  C21_39 
REMARK   20  A    between atoms: C21_39  and  N8_40 
REMARK   21  A    between atoms: N10_49  and  N11_51 
ROOT
HETATM    1  N1  UNL     1      -9.724  15.412  24.753  1.00  0.00    -0.171 NA
HETATM    2  C1  UNL     1      -8.851  15.576  24.005  1.00  0.00     0.196 C 
HETATM    3  N2  UNL     1      -7.814  15.761  23.094  1.00  0.00    -0.124 N 
ATOM      4  H2  UNL     1      -7.365  14.934  22.700  1.00  0.00     0.197 HD
HETATM    5  C2  UNL     1      -7.346  17.046  22.679  1.00  0.00     0.721 C 
HETATM    6  N3  UNL     1      -6.286  17.495  23.238  1.00  0.00    -0.021 N 
ATOM      7  H3  UNL     1      -5.827  16.923  23.947  1.00  0.00     0.203 HD
HETATM    8  C3  UNL     1      -5.727  18.743  22.917  1.00  0.00     0.686 C 
HETATM    9  N4  UNL     1      -6.422  19.691  22.420  1.00  0.00    -0.234 N 
ATOM     10  H41 UNL     1      -6.016  20.598  22.187  1.00  0.00     0.174 HD
ATOM     11  H42 UNL     1      -7.417  19.557  22.240  1.00  0.00     0.174 HD
HETATM   12  N5  UNL     1      -4.335  18.930  23.168  1.00  0.00    -0.226 N 
ATOM     13  H5  UNL     1      -3.616  18.554  22.551  1.00  0.00     0.177 HD
HETATM   14  N10 UNL     1      -8.006  17.811  21.692  1.00  0.00    -0.117 N 
ATOM     15  H10 UNL     1      -8.742  18.463  21.965  1.00  0.00     0.207 HD
ENDROOT
BRANCH  14  16
HETATM   16  N11 UNL     1      -7.662  17.681  20.352  1.00  0.00    -0.235 N 
HETATM   17  N12 UNL     1      -7.415  16.522  19.895  1.00  0.00    -0.330 N 
ATOM     18 2H12 UNL     1      -7.473  15.712  20.513  1.00  0.00     0.178 HD
ATOM     19 1H12 UNL     1      -7.161  16.427  18.911  1.00  0.00     0.178 HD
ATOM     20  H11 UNL     1      -7.608  18.501  19.747  1.00  0.00     0.208 HD
ENDBRANCH  14  16
BRANCH  12  21
HETATM   21  C4  UNL     1      -4.007  19.695  24.367  1.00  0.00     0.138 C 
BRANCH  21  22
HETATM   22  C5  UNL     1      -3.864  18.717  25.501  1.00  0.00     0.020 C 
BRANCH  22  23
HETATM   23  C6  UNL     1      -4.470  19.360  26.747  1.00  0.00     0.002 C 
BRANCH  23  24
HETATM   24  C7  UNL     1      -5.251  18.372  27.536  1.00  0.00     0.009 C 
BRANCH  24  25
HETATM   25  C8  UNL     1      -5.762  17.248  26.721  1.00  0.00     0.103 C 
BRANCH  25  26
HETATM   26  C9  UNL     1      -6.989  16.642  27.236  1.00  0.00     0.217 C 
HETATM   27  O1  UNL     1      -7.258  15.433  27.175  1.00  0.00    -0.274 OA
HETATM   28  N6  UNL     1      -7.963  17.498  27.857  1.00  0.00    -0.361 N 
ATOM     29  H6  UNL     1      -7.767  18.497  27.924  1.00  0.00     0.162 HD
BRANCH  28  30
HETATM   30  C10 UNL     1      -9.212  16.999  28.391  1.00  0.00     0.122 C 
BRANCH  30  31
HETATM   31  C11 UNL     1      -8.933  16.027  29.533  1.00  0.00     0.020 C 
BRANCH  31  32
HETATM   32  C12 UNL     1      -9.089  16.752  30.845  1.00  0.00     0.002 C 
BRANCH  32  33
HETATM   33  C13 UNL     1      -9.050  15.837  32.025  1.00  0.00     0.009 C 
BRANCH  33  34
HETATM   34  C14 UNL     1      -9.038  16.658  33.286  1.00  0.00     0.103 C 
BRANCH  34  35
HETATM   35  C15 UNL     1     -10.231  16.308  34.092  1.00  0.00     0.217 C 
HETATM   36  O2  UNL     1     -10.515  17.034  35.077  1.00  0.00    -0.274 OA
HETATM   37  N7  UNL     1     -11.024  15.172  33.745  1.00  0.00    -0.354 N 
ATOM     38  H7  UNL     1     -10.756  14.608  32.938  1.00  0.00     0.162 HD
BRANCH  37  39
HETATM   39  C16 UNL     1     -12.199  14.800  34.507  1.00  0.00     0.108 C 
BRANCH  39  40
HETATM   40  C17 UNL     1     -11.689  13.706  35.477  1.00  0.00     0.189 C 
BRANCH  40  41
HETATM   41  O3  UNL     1     -10.761  12.901  34.821  1.00  0.00    -0.399 OA
ATOM     42  H3  UNL     1     -10.600  12.120  35.337  1.00  0.00     0.209 HD
ENDBRANCH  40  41
ENDBRANCH  39  40
BRANCH  39  43
HETATM   43  C18 UNL     1     -13.267  14.146  33.677  1.00  0.00     0.027 C 
BRANCH  43  44
HETATM   44  C19 UNL     1     -13.038  14.236  32.193  1.00  0.00     0.004 C 
BRANCH  44  45
HETATM   45  C20 UNL     1     -14.341  14.393  31.436  1.00  0.00     0.020 C 
BRANCH  45  46
HETATM   46  C21 UNL     1     -14.566  13.257  30.463  1.00  0.00     0.126 C 
BRANCH  46  47
HETATM   47  N8  UNL     1     -13.896  13.620  29.219  1.00  0.00    -0.343 N 
HETATM   48  C22 UNL     1     -14.595  14.458  28.245  1.00  0.00     0.146 C 
HETATM   49  C23 UNL     1     -13.715  15.668  27.994  1.00  0.00     0.143 C 
HETATM   50  N9  UNL     1     -12.468  15.162  27.425  1.00  0.00    -0.351 N 
HETATM   51  C24 UNL     1     -11.829  14.012  27.954  1.00  0.00     0.309 C 
ATOM     52  H9  UNL     1     -12.048  15.646  26.631  1.00  0.00     0.162 HD
HETATM   53  O4  UNL     1     -10.659  13.695  27.628  1.00  0.00    -0.262 OA
HETATM   54  C25 UNL     1     -12.587  13.196  28.905  1.00  0.00     0.311 C 
HETATM   55  O5  UNL     1     -12.134  12.163  29.440  1.00  0.00    -0.262 OA
ENDBRANCH  46  47
ENDBRANCH  45  46
ENDBRANCH  44  45
ENDBRANCH  43  44
ENDBRANCH  39  43
ENDBRANCH  37  39
ENDBRANCH  34  35
ENDBRANCH  33  34
ENDBRANCH  32  33
ENDBRANCH  31  32
ENDBRANCH  30  31
ENDBRANCH  28  30
ENDBRANCH  25  26
ENDBRANCH  24  25
ENDBRANCH  23  24
ENDBRANCH  22  23
ENDBRANCH  21  22
ENDBRANCH  12  21
TORSDOF 21
ENDMDL
