MODEL 1
REMARK VINA RESULT: -7.561184937      0.000      0.000
REMARK  23 active torsions:
REMARK  status: ('A' for Active; 'I' for Inactive)
REMARK    1  A    between atoms: C2_2  and  N1_3 
REMARK    2  A    between atoms: N1_3  and  C3_4 
REMARK    3  A    between atoms: N1_3  and  C5_6 
REMARK    4  A    between atoms: C5_6  and  C6_7 
REMARK    5  A    between atoms: C6_7  and  C7_8 
REMARK    6  A    between atoms: C7_8  and  N2_9 
REMARK    7  A    between atoms: N2_9  and  C8_10 
REMARK    8  A    between atoms: C8_10  and  O1_11 
REMARK    9  A    between atoms: C8_10  and  C9_13 
REMARK   10  A    between atoms: C11_17  and  N4_18 
REMARK   11  A    between atoms: N4_18  and  C12_20 
REMARK   12  A    between atoms: C12_20  and  C13_21 
REMARK   13  A    between atoms: C12_20  and  C18_32 
REMARK   14  A    between atoms: C13_21  and  C14_22 
REMARK   15  A    between atoms: C14_22  and  C15_23 
REMARK   16  A    between atoms: C15_23  and  C16_24 
REMARK   17  A    between atoms: C16_24  and  N5_25 
REMARK       I    between atoms: N5_25  and  C17_27 
REMARK   18  A    between atoms: C18_32  and  C19_33 
REMARK   19  A    between atoms: C18_32  and  N9_40 
REMARK   20  A    between atoms: C20_34  and  C21_35 
REMARK   21  A    between atoms: C21_35  and  N8_36 
REMARK   22  A    between atoms: N9_40  and  S1_42 
REMARK   23  A    between atoms: S1_42  and  N10_43 
ROOT
HETATM    1  C12 UNL     1     -10.898  15.935  30.291  1.00  0.00     0.126 C 
ENDROOT
BRANCH   1   2
HETATM    2  N4  UNL     1     -11.119  16.690  29.109  1.00  0.00    -0.219 N 
ATOM      3  H4  UNL     1     -11.901  17.340  29.195  1.00  0.00     0.178 HD
BRANCH   2   4
HETATM    4  C11 UNL     1     -10.565  16.738  27.978  1.00  0.00     0.681 A 
HETATM    5  N3  UNL     1     -10.063  17.961  27.578  1.00  0.00    -0.201 N 
HETATM    6  C10 UNL     1      -9.417  18.090  26.417  1.00  0.00     0.129 A 
ATOM      7  H3  UNL     1     -10.188  18.777  28.177  1.00  0.00     0.183 HD
HETATM    8  C9  UNL     1      -9.191  17.034  25.526  1.00  0.00     0.113 A 
HETATM    9  C25 UNL     1      -9.695  15.848  25.945  1.00  0.00     0.276 A 
HETATM   10  N11 UNL     1     -10.361  15.723  27.139  1.00  0.00    -0.155 N 
HETATM   11  O4  UNL     1      -9.559  14.817  25.228  1.00  0.00    -0.267 OA
ATOM     12  H11 UNL     1     -10.719  14.803  27.398  1.00  0.00     0.187 HD
BRANCH   8  13
HETATM   13  C8  UNL     1      -8.456  17.315  24.311  1.00  0.00     0.230 C 
BRANCH  13  14
HETATM   14  N2  UNL     1      -7.162  17.842  24.130  1.00  0.00    -0.396 NA
BRANCH  14  15
HETATM   15  C7  UNL     1      -5.939  18.326  23.957  1.00  0.00     0.159 C 
BRANCH  15  16
HETATM   16  C6  UNL     1      -4.806  17.695  24.717  1.00  0.00     0.079 C 
BRANCH  16  17
HETATM   17  C5  UNL     1      -4.226  18.477  25.829  1.00  0.00     0.133 C 
BRANCH  17  18
HETATM   18  N1  UNL     1      -4.985  18.486  27.036  1.00  0.00    -0.374 N 
BRANCH  18  19
HETATM   19  C2  UNL     1      -5.178  19.697  27.682  1.00  0.00     0.058 C 
HETATM   20  C1  UNL     1      -6.519  20.313  27.367  1.00  0.00     0.055 C 
ENDBRANCH  18  19
BRANCH  18  21
HETATM   21  C3  UNL     1      -5.116  17.254  27.668  1.00  0.00     0.058 C 
HETATM   22  C4  UNL     1      -6.529  16.803  27.972  1.00  0.00     0.055 C 
ENDBRANCH  18  21
ENDBRANCH  17  18
ENDBRANCH  16  17
ENDBRANCH  15  16
ENDBRANCH  14  15
ENDBRANCH  13  14
BRANCH  13  23
HETATM   23  O1  UNL     1      -9.139  17.018  23.218  1.00  0.00    -0.335 OA
ATOM     24  H1  UNL     1      -9.025  17.593  22.470  1.00  0.00     0.220 HD
ENDBRANCH  13  23
ENDBRANCH   8  13
ENDBRANCH   2   4
ENDBRANCH   1   2
BRANCH   1  25
HETATM   25  C13 UNL     1      -9.458  15.629  30.444  1.00  0.00     0.028 C 
BRANCH  25  26
HETATM   26  C14 UNL     1      -8.893  15.442  31.794  1.00  0.00     0.004 C 
BRANCH  26  27
HETATM   27  C15 UNL     1      -8.745  16.755  32.573  1.00  0.00     0.020 C 
BRANCH  27  28
HETATM   28  C16 UNL     1      -9.118  16.508  34.004  1.00  0.00     0.122 C 
BRANCH  28  29
HETATM   29  N5  UNL     1      -9.509  15.126  34.162  1.00  0.00    -0.365 N 
HETATM   30  C17 UNL     1     -10.738  14.842  34.838  1.00  0.00     0.181 C 
HETATM   31  N6  UNL     1     -11.085  13.651  35.169  1.00  0.00    -0.374 N 
HETATM   32  N7  UNL     1     -11.611  15.906  35.169  1.00  0.00    -0.064 NA
ATOM     33  H62 UNL     1     -10.456  12.884  34.930  1.00  0.00     0.158 HD
ATOM     34  H61 UNL     1     -11.961  13.448  35.650  1.00  0.00     0.158 HD
ATOM     35  H5  UNL     1      -8.924  14.372  33.802  1.00  0.00     0.162 HD
ENDBRANCH  28  29
ENDBRANCH  27  28
ENDBRANCH  26  27
ENDBRANCH  25  26
ENDBRANCH   1  25
BRANCH   1  36
HETATM   36  C18 UNL     1     -11.806  14.788  30.348  1.00  0.00     0.140 C 
BRANCH  36  37
HETATM   37  C19 UNL     1     -12.475  14.513  31.695  1.00  0.00    -0.002 C 
HETATM   38  C20 UNL     1     -13.535  13.564  31.847  1.00  0.00    -0.001 C 
BRANCH  38  39
HETATM   39  C21 UNL     1     -13.521  12.139  31.579  1.00  0.00     0.263 C 
BRANCH  39  40
HETATM   40  N8  UNL     1     -14.161  11.422  32.723  1.00  0.00    -0.075 N 
HETATM   41  C22 UNL     1     -13.420  10.168  32.934  1.00  0.00     0.272 C 
HETATM   42  C23 UNL     1     -14.127  12.177  33.928  1.00  0.00     0.272 C 
HETATM   43  C24 UNL     1     -15.518  11.053  32.404  1.00  0.00     0.272 C 
ENDBRANCH  39  40
ENDBRANCH  38  39
ENDBRANCH  36  37
BRANCH  36  44
HETATM   44  N9  UNL     1     -12.949  15.041  29.441  1.00  0.00    -0.293 N 
ATOM     45  H9  UNL     1     -13.624  15.791  29.587  1.00  0.00     0.174 HD
BRANCH  44  46
HETATM   46  S1  UNL     1     -13.025  13.957  28.129  1.00  0.00     0.313 S 
HETATM   47  O2  UNL     1     -13.219  14.743  26.863  1.00  0.00    -0.183 OA
HETATM   48  O3  UNL     1     -11.775  13.140  28.055  1.00  0.00    -0.183 OA
BRANCH  46  49
HETATM   49  N10 UNL     1     -14.354  12.868  28.245  1.00  0.00    -0.312 N 
ATOM     50 2H10 UNL     1     -15.325  13.179  28.241  1.00  0.00     0.170 HD
ATOM     51 1H10 UNL     1     -14.058  11.894  28.316  1.00  0.00     0.170 HD
ENDBRANCH  46  49
ENDBRANCH  44  46
ENDBRANCH  36  44
ENDBRANCH   1  36
TORSDOF 23
ENDMDL
MODEL 2
REMARK VINA RESULT: -7.526835446      2.008      2.929
REMARK  23 active torsions:
REMARK  status: ('A' for Active; 'I' for Inactive)
REMARK    1  A    between atoms: C2_2  and  N1_3 
REMARK    2  A    between atoms: N1_3  and  C3_4 
REMARK    3  A    between atoms: N1_3  and  C5_6 
REMARK    4  A    between atoms: C5_6  and  C6_7 
REMARK    5  A    between atoms: C6_7  and  C7_8 
REMARK    6  A    between atoms: C7_8  and  N2_9 
REMARK    7  A    between atoms: N2_9  and  C8_10 
REMARK    8  A    between atoms: C8_10  and  O1_11 
REMARK    9  A    between atoms: C8_10  and  C9_13 
REMARK   10  A    between atoms: C11_17  and  N4_18 
REMARK   11  A    between atoms: N4_18  and  C12_20 
REMARK   12  A    between atoms: C12_20  and  C13_21 
REMARK   13  A    between atoms: C12_20  and  C18_32 
REMARK   14  A    between atoms: C13_21  and  C14_22 
REMARK   15  A    between atoms: C14_22  and  C15_23 
REMARK   16  A    between atoms: C15_23  and  C16_24 
REMARK   17  A    between atoms: C16_24  and  N5_25 
REMARK       I    between atoms: N5_25  and  C17_27 
REMARK   18  A    between atoms: C18_32  and  C19_33 
REMARK   19  A    between atoms: C18_32  and  N9_40 
REMARK   20  A    between atoms: C20_34  and  C21_35 
REMARK   21  A    between atoms: C21_35  and  N8_36 
REMARK   22  A    between atoms: N9_40  and  S1_42 
REMARK   23  A    between atoms: S1_42  and  N10_43 
ROOT
HETATM    1  C12 UNL     1     -10.293  15.460  30.228  1.00  0.00     0.126 C 
ENDROOT
BRANCH   1   2
HETATM    2  N4  UNL     1      -9.370  15.441  29.150  1.00  0.00    -0.219 N 
ATOM      3  H4  UNL     1      -9.292  14.522  28.712  1.00  0.00     0.178 HD
BRANCH   2   4
HETATM    4  C11 UNL     1      -8.626  16.304  28.612  1.00  0.00     0.681 A 
HETATM    5  N3  UNL     1      -9.233  17.457  28.155  1.00  0.00    -0.201 N 
HETATM    6  C10 UNL     1      -8.513  18.445  27.619  1.00  0.00     0.129 A 
ATOM      7  H3  UNL     1     -10.246  17.555  28.229  1.00  0.00     0.183 HD
HETATM    8  C9  UNL     1      -7.121  18.408  27.475  1.00  0.00     0.113 A 
HETATM    9  C25 UNL     1      -6.553  17.266  27.931  1.00  0.00     0.276 A 
HETATM   10  N11 UNL     1      -7.300  16.253  28.480  1.00  0.00    -0.155 N 
HETATM   11  O4  UNL     1      -5.303  17.110  27.856  1.00  0.00    -0.267 OA
ATOM     12  H11 UNL     1      -6.815  15.416  28.803  1.00  0.00     0.187 HD
BRANCH   8  13
HETATM   13  C8  UNL     1      -6.467  19.562  26.893  1.00  0.00     0.230 C 
BRANCH  13  14
HETATM   14  N2  UNL     1      -5.564  19.650  25.815  1.00  0.00    -0.396 NA
BRANCH  14  15
HETATM   15  C7  UNL     1      -4.706  19.726  24.807  1.00  0.00     0.159 C 
BRANCH  15  16
HETATM   16  C6  UNL     1      -4.904  18.813  23.629  1.00  0.00     0.079 C 
BRANCH  16  17
HETATM   17  C5  UNL     1      -5.806  17.657  23.820  1.00  0.00     0.133 C 
BRANCH  17  18
HETATM   18  N1  UNL     1      -7.058  17.735  23.142  1.00  0.00    -0.374 N 
BRANCH  18  19
HETATM   19  C2  UNL     1      -7.126  18.474  21.971  1.00  0.00     0.058 C 
HETATM   20  C1  UNL     1      -7.865  17.749  20.872  1.00  0.00     0.055 C 
ENDBRANCH  18  19
BRANCH  18  21
HETATM   21  C3  UNL     1      -8.173  17.415  23.909  1.00  0.00     0.058 C 
HETATM   22  C4  UNL     1      -8.140  16.076  24.613  1.00  0.00     0.055 C 
ENDBRANCH  18  21
ENDBRANCH  17  18
ENDBRANCH  16  17
ENDBRANCH  15  16
ENDBRANCH  14  15
ENDBRANCH  13  14
BRANCH  13  23
HETATM   23  O1  UNL     1      -6.794  20.694  27.494  1.00  0.00    -0.335 OA
ATOM     24  H1  UNL     1      -7.713  20.821  27.701  1.00  0.00     0.220 HD
ENDBRANCH  13  23
ENDBRANCH   8  13
ENDBRANCH   2   4
ENDBRANCH   1   2
BRANCH   1  25
HETATM   25  C13 UNL     1      -9.605  15.140  31.500  1.00  0.00     0.028 C 
BRANCH  25  26
HETATM   26  C14 UNL     1      -8.958  16.221  32.268  1.00  0.00     0.004 C 
BRANCH  26  27
HETATM   27  C15 UNL     1      -8.735  15.863  33.743  1.00  0.00     0.020 C 
BRANCH  27  28
HETATM   28  C16 UNL     1      -9.775  16.561  34.567  1.00  0.00     0.122 C 
BRANCH  28  29
HETATM   29  N5  UNL     1     -10.349  15.624  35.505  1.00  0.00    -0.365 N 
HETATM   30  C17 UNL     1     -11.709  15.222  35.316  1.00  0.00     0.181 C 
HETATM   31  N6  UNL     1     -12.350  14.526  36.184  1.00  0.00    -0.374 N 
HETATM   32  N7  UNL     1     -12.389  15.606  34.135  1.00  0.00    -0.064 NA
ATOM     33  H62 UNL     1     -11.860  14.249  37.034  1.00  0.00     0.158 HD
ATOM     34  H61 UNL     1     -13.320  14.239  36.049  1.00  0.00     0.158 HD
ATOM     35  H5  UNL     1      -9.798  15.258  36.282  1.00  0.00     0.162 HD
ENDBRANCH  28  29
ENDBRANCH  27  28
ENDBRANCH  26  27
ENDBRANCH  25  26
ENDBRANCH   1  25
BRANCH   1  36
HETATM   36  C18 UNL     1     -11.470  14.647  29.916  1.00  0.00     0.140 C 
BRANCH  36  37
HETATM   37  C19 UNL     1     -12.231  14.061  31.106  1.00  0.00    -0.002 C 
HETATM   38  C20 UNL     1     -13.205  13.023  30.959  1.00  0.00    -0.001 C 
BRANCH  38  39
HETATM   39  C21 UNL     1     -13.030  11.685  30.431  1.00  0.00     0.263 C 
BRANCH  39  40
HETATM   40  N8  UNL     1     -13.587  10.699  31.406  1.00  0.00    -0.075 N 
HETATM   41  C22 UNL     1     -12.780   9.471  31.309  1.00  0.00     0.272 C 
HETATM   42  C23 UNL     1     -13.536  11.170  32.747  1.00  0.00     0.272 C 
HETATM   43  C24 UNL     1     -14.937  10.337  31.056  1.00  0.00     0.272 C 
ENDBRANCH  39  40
ENDBRANCH  38  39
ENDBRANCH  36  37
BRANCH  36  44
HETATM   44  N9  UNL     1     -12.477  15.506  29.252  1.00  0.00    -0.293 N 
ATOM     45  H9  UNL     1     -12.987  16.247  29.734  1.00  0.00     0.174 HD
BRANCH  44  46
HETATM   46  S1  UNL     1     -12.701  15.137  27.604  1.00  0.00     0.313 S 
HETATM   47  O2  UNL     1     -11.490  15.588  26.838  1.00  0.00    -0.183 OA
HETATM   48  O3  UNL     1     -12.922  13.669  27.424  1.00  0.00    -0.183 OA
BRANCH  46  49
HETATM   49  N10 UNL     1     -14.054  15.954  26.920  1.00  0.00    -0.312 N 
ATOM     50 2H10 UNL     1     -14.811  16.339  27.485  1.00  0.00     0.170 HD
ATOM     51 1H10 UNL     1     -14.007  16.006  25.902  1.00  0.00     0.170 HD
ENDBRANCH  46  49
ENDBRANCH  44  46
ENDBRANCH  36  44
ENDBRANCH   1  36
TORSDOF 23
ENDMDL
MODEL 3
REMARK VINA RESULT: -7.476630623      2.132      9.234
REMARK  23 active torsions:
REMARK  status: ('A' for Active; 'I' for Inactive)
REMARK    1  A    between atoms: C2_2  and  N1_3 
REMARK    2  A    between atoms: N1_3  and  C3_4 
REMARK    3  A    between atoms: N1_3  and  C5_6 
REMARK    4  A    between atoms: C5_6  and  C6_7 
REMARK    5  A    between atoms: C6_7  and  C7_8 
REMARK    6  A    between atoms: C7_8  and  N2_9 
REMARK    7  A    between atoms: N2_9  and  C8_10 
REMARK    8  A    between atoms: C8_10  and  O1_11 
REMARK    9  A    between atoms: C8_10  and  C9_13 
REMARK   10  A    between atoms: C11_17  and  N4_18 
REMARK   11  A    between atoms: N4_18  and  C12_20 
REMARK   12  A    between atoms: C12_20  and  C13_21 
REMARK   13  A    between atoms: C12_20  and  C18_32 
REMARK   14  A    between atoms: C13_21  and  C14_22 
REMARK   15  A    between atoms: C14_22  and  C15_23 
REMARK   16  A    between atoms: C15_23  and  C16_24 
REMARK   17  A    between atoms: C16_24  and  N5_25 
REMARK       I    between atoms: N5_25  and  C17_27 
REMARK   18  A    between atoms: C18_32  and  C19_33 
REMARK   19  A    between atoms: C18_32  and  N9_40 
REMARK   20  A    between atoms: C20_34  and  C21_35 
REMARK   21  A    between atoms: C21_35  and  N8_36 
REMARK   22  A    between atoms: N9_40  and  S1_42 
REMARK   23  A    between atoms: S1_42  and  N10_43 
ROOT
HETATM    1  C12 UNL     1      -9.453  16.088  29.799  1.00  0.00     0.126 C 
ENDROOT
BRANCH   1   2
HETATM    2  N4  UNL     1     -10.839  15.827  29.641  1.00  0.00    -0.219 N 
ATOM      3  H4  UNL     1     -11.293  16.476  28.998  1.00  0.00     0.178 HD
BRANCH   2   4
HETATM    4  C11 UNL     1     -11.635  14.973  30.116  1.00  0.00     0.681 A 
HETATM    5  N3  UNL     1     -11.811  13.810  29.392  1.00  0.00    -0.201 N 
HETATM    6  C10 UNL     1     -12.597  12.831  29.847  1.00  0.00     0.129 A 
ATOM      7  H3  UNL     1     -11.335  13.698  28.497  1.00  0.00     0.183 HD
HETATM    8  C9  UNL     1     -13.290  12.887  31.062  1.00  0.00     0.113 A 
HETATM    9  C25 UNL     1     -13.099  14.038  31.749  1.00  0.00     0.276 A 
HETATM   10  N11 UNL     1     -12.292  15.042  31.274  1.00  0.00    -0.155 N 
HETATM   11  O4  UNL     1     -13.673  14.211  32.861  1.00  0.00    -0.267 OA
ATOM     12  H11 UNL     1     -12.189  15.887  31.837  1.00  0.00     0.187 HD
BRANCH   8  13
HETATM   13  C8  UNL     1     -14.091  11.741  31.440  1.00  0.00     0.230 C 
BRANCH  13  14
HETATM   14  N2  UNL     1     -13.735  10.384  31.571  1.00  0.00    -0.396 NA
BRANCH  14  15
HETATM   15  C7  UNL     1     -13.401   9.108  31.707  1.00  0.00     0.159 C 
BRANCH  15  16
HETATM   16  C6  UNL     1     -13.802   8.394  32.968  1.00  0.00     0.079 C 
BRANCH  16  17
HETATM   17  C5  UNL     1     -12.914   8.553  34.140  1.00  0.00     0.133 C 
BRANCH  17  18
HETATM   18  N1  UNL     1     -13.510   9.158  35.285  1.00  0.00    -0.374 N 
BRANCH  18  19
HETATM   19  C2  UNL     1     -13.991  10.453  35.168  1.00  0.00     0.058 C 
HETATM   20  C1  UNL     1     -12.887  11.464  34.969  1.00  0.00     0.055 C 
ENDBRANCH  18  19
BRANCH  18  21
HETATM   21  C3  UNL     1     -13.195   8.568  36.504  1.00  0.00     0.058 C 
HETATM   22  C4  UNL     1     -11.759   8.701  36.962  1.00  0.00     0.055 C 
ENDBRANCH  18  21
ENDBRANCH  17  18
ENDBRANCH  16  17
ENDBRANCH  15  16
ENDBRANCH  14  15
ENDBRANCH  13  14
BRANCH  13  23
HETATM   23  O1  UNL     1     -15.350  12.056  31.695  1.00  0.00    -0.335 OA
ATOM     24  H1  UNL     1     -15.982  11.897  31.003  1.00  0.00     0.220 HD
ENDBRANCH  13  23
ENDBRANCH   8  13
ENDBRANCH   2   4
ENDBRANCH   1   2
BRANCH   1  25
HETATM   25  C13 UNL     1      -9.233  17.037  30.914  1.00  0.00     0.028 C 
BRANCH  25  26
HETATM   26  C14 UNL     1      -8.602  16.561  32.160  1.00  0.00     0.004 C 
BRANCH  26  27
HETATM   27  C15 UNL     1      -8.883  15.081  32.452  1.00  0.00     0.020 C 
BRANCH  27  28
HETATM   28  C16 UNL     1      -8.927  14.887  33.938  1.00  0.00     0.122 C 
BRANCH  28  29
HETATM   29  N5  UNL     1     -10.244  14.432  34.320  1.00  0.00    -0.365 N 
HETATM   30  C17 UNL     1     -11.107  15.348  35.002  1.00  0.00     0.181 C 
HETATM   31  N6  UNL     1     -12.224  14.987  35.522  1.00  0.00    -0.374 N 
HETATM   32  N7  UNL     1     -10.723  16.705  35.123  1.00  0.00    -0.064 NA
ATOM     33  H62 UNL     1     -12.500  14.009  35.436  1.00  0.00     0.158 HD
ATOM     34  H61 UNL     1     -12.839  15.640  36.008  1.00  0.00     0.158 HD
ATOM     35  H5  UNL     1     -10.551  13.482  34.110  1.00  0.00     0.162 HD
ENDBRANCH  28  29
ENDBRANCH  27  28
ENDBRANCH  26  27
ENDBRANCH  25  26
ENDBRANCH   1  25
BRANCH   1  36
HETATM   36  C18 UNL     1      -8.846  16.453  28.518  1.00  0.00     0.140 C 
BRANCH  36  37
HETATM   37  C19 UNL     1      -7.335  16.688  28.521  1.00  0.00    -0.002 C 
HETATM   38  C20 UNL     1      -6.600  16.976  27.327  1.00  0.00    -0.001 C 
BRANCH  38  39
HETATM   39  C21 UNL     1      -6.758  18.090  26.412  1.00  0.00     0.263 C 
BRANCH  39  40
HETATM   40  N8  UNL     1      -5.776  19.157  26.771  1.00  0.00    -0.075 N 
HETATM   41  C22 UNL     1      -5.238  19.708  25.516  1.00  0.00     0.272 C 
HETATM   42  C23 UNL     1      -6.366  20.216  27.515  1.00  0.00     0.272 C 
HETATM   43  C24 UNL     1      -4.657  18.604  27.493  1.00  0.00     0.272 C 
ENDBRANCH  39  40
ENDBRANCH  38  39
ENDBRANCH  36  37
BRANCH  36  44
HETATM   44  N9  UNL     1      -9.017  15.326  27.573  1.00  0.00    -0.293 N 
ATOM     45  H9  UNL     1      -8.543  14.429  27.679  1.00  0.00     0.174 HD
BRANCH  44  46
HETATM   46  S1  UNL     1     -10.085  15.673  26.291  1.00  0.00     0.313 S 
HETATM   47  O2  UNL     1      -9.523  15.096  25.023  1.00  0.00    -0.183 OA
HETATM   48  O3  UNL     1     -11.439  15.107  26.573  1.00  0.00    -0.183 OA
BRANCH  46  49
HETATM   49  N10 UNL     1     -10.273  17.364  26.026  1.00  0.00    -0.312 N 
ATOM     50 2H10 UNL     1      -9.611  17.915  25.478  1.00  0.00     0.170 HD
ATOM     51 1H10 UNL     1     -11.109  17.742  26.473  1.00  0.00     0.170 HD
ENDBRANCH  46  49
ENDBRANCH  44  46
ENDBRANCH  36  44
ENDBRANCH   1  36
TORSDOF 23
ENDMDL
MODEL 4
REMARK VINA RESULT: -7.440389121      4.111      8.123
REMARK  23 active torsions:
REMARK  status: ('A' for Active; 'I' for Inactive)
REMARK    1  A    between atoms: C2_2  and  N1_3 
REMARK    2  A    between atoms: N1_3  and  C3_4 
REMARK    3  A    between atoms: N1_3  and  C5_6 
REMARK    4  A    between atoms: C5_6  and  C6_7 
REMARK    5  A    between atoms: C6_7  and  C7_8 
REMARK    6  A    between atoms: C7_8  and  N2_9 
REMARK    7  A    between atoms: N2_9  and  C8_10 
REMARK    8  A    between atoms: C8_10  and  O1_11 
REMARK    9  A    between atoms: C8_10  and  C9_13 
REMARK   10  A    between atoms: C11_17  and  N4_18 
REMARK   11  A    between atoms: N4_18  and  C12_20 
REMARK   12  A    between atoms: C12_20  and  C13_21 
REMARK   13  A    between atoms: C12_20  and  C18_32 
REMARK   14  A    between atoms: C13_21  and  C14_22 
REMARK   15  A    between atoms: C14_22  and  C15_23 
REMARK   16  A    between atoms: C15_23  and  C16_24 
REMARK   17  A    between atoms: C16_24  and  N5_25 
REMARK       I    between atoms: N5_25  and  C17_27 
REMARK   18  A    between atoms: C18_32  and  C19_33 
REMARK   19  A    between atoms: C18_32  and  N9_40 
REMARK   20  A    between atoms: C20_34  and  C21_35 
REMARK   21  A    between atoms: C21_35  and  N8_36 
REMARK   22  A    between atoms: N9_40  and  S1_42 
REMARK   23  A    between atoms: S1_42  and  N10_43 
ROOT
HETATM    1  C12 UNL     1      -8.605  16.247  24.755  1.00  0.00     0.126 C 
ENDROOT
BRANCH   1   2
HETATM    2  N4  UNL     1      -7.859  17.454  24.736  1.00  0.00    -0.219 N 
ATOM      3  H4  UNL     1      -8.449  18.285  24.779  1.00  0.00     0.178 HD
BRANCH   2   4
HETATM    4  C11 UNL     1      -6.630  17.729  24.678  1.00  0.00     0.681 A 
HETATM    5  N3  UNL     1      -5.974  17.420  23.502  1.00  0.00    -0.201 N 
HETATM    6  C10 UNL     1      -4.685  17.723  23.337  1.00  0.00     0.129 A 
ATOM      7  H3  UNL     1      -6.482  16.954  22.751  1.00  0.00     0.183 HD
HETATM    8  C9  UNL     1      -3.902  18.363  24.305  1.00  0.00     0.113 A 
HETATM    9  C25 UNL     1      -4.571  18.653  25.446  1.00  0.00     0.276 A 
HETATM   10  N11 UNL     1      -5.897  18.336  25.611  1.00  0.00    -0.155 N 
HETATM   11  O4  UNL     1      -3.974  19.230  26.398  1.00  0.00    -0.267 OA
ATOM     12  H11 UNL     1      -6.345  18.579  26.495  1.00  0.00     0.187 HD
BRANCH   8  13
HETATM   13  C8  UNL     1      -2.519  18.649  23.980  1.00  0.00     0.230 C 
BRANCH  13  14
HETATM   14  N2  UNL     1      -1.429  17.777  23.793  1.00  0.00    -0.396 NA
BRANCH  14  15
HETATM   15  C7  UNL     1      -0.410  16.946  23.616  1.00  0.00     0.159 C 
BRANCH  15  16
HETATM   16  C6  UNL     1      -0.706  15.518  23.252  1.00  0.00     0.079 C 
BRANCH  16  17
HETATM   17  C5  UNL     1      -1.203  14.640  24.333  1.00  0.00     0.133 C 
BRANCH  17  18
HETATM   18  N1  UNL     1      -0.555  13.375  24.444  1.00  0.00    -0.374 N 
BRANCH  18  19
HETATM   19  C2  UNL     1      -0.017  13.018  25.671  1.00  0.00     0.058 C 
HETATM   20  C1  UNL     1       1.393  13.525  25.853  1.00  0.00     0.055 C 
ENDBRANCH  18  19
BRANCH  18  21
HETATM   21  C3  UNL     1      -0.164  12.797  23.242  1.00  0.00     0.058 C 
HETATM   22  C4  UNL     1      -0.138  11.284  23.203  1.00  0.00     0.055 C 
ENDBRANCH  18  21
ENDBRANCH  17  18
ENDBRANCH  16  17
ENDBRANCH  15  16
ENDBRANCH  14  15
ENDBRANCH  13  14
BRANCH  13  23
HETATM   23  O1  UNL     1      -2.280  19.943  23.846  1.00  0.00    -0.335 OA
ATOM     24  H1  UNL     1      -2.738  20.528  24.439  1.00  0.00     0.220 HD
ENDBRANCH  13  23
ENDBRANCH   8  13
ENDBRANCH   2   4
ENDBRANCH   1   2
BRANCH   1  25
HETATM   25  C13 UNL     1      -9.430  16.133  23.531  1.00  0.00     0.028 C 
BRANCH  25  26
HETATM   26  C14 UNL     1      -9.145  15.059  22.560  1.00  0.00     0.004 C 
BRANCH  26  27
HETATM   27  C15 UNL     1      -9.842  15.267  21.209  1.00  0.00     0.020 C 
BRANCH  27  28
HETATM   28  C16 UNL     1      -9.573  16.665  20.741  1.00  0.00     0.122 C 
BRANCH  28  29
HETATM   29  N5  UNL     1      -8.314  16.696  20.032  1.00  0.00    -0.365 N 
HETATM   30  C17 UNL     1      -7.388  17.742  20.342  1.00  0.00     0.181 C 
HETATM   31  N6  UNL     1      -6.323  17.946  19.654  1.00  0.00    -0.374 N 
HETATM   32  N7  UNL     1      -7.646  18.597  21.440  1.00  0.00    -0.064 NA
ATOM     33  H62 UNL     1      -6.136  17.330  18.863  1.00  0.00     0.158 HD
ATOM     34  H61 UNL     1      -5.662  18.691  19.875  1.00  0.00     0.158 HD
ATOM     35  H5  UNL     1      -8.092  15.991  19.330  1.00  0.00     0.162 HD
ENDBRANCH  28  29
ENDBRANCH  27  28
ENDBRANCH  26  27
ENDBRANCH  25  26
ENDBRANCH   1  25
BRANCH   1  36
HETATM   36  C18 UNL     1      -9.320  16.101  26.025  1.00  0.00     0.140 C 
BRANCH  36  37
HETATM   37  C19 UNL     1     -10.530  15.165  26.024  1.00  0.00    -0.002 C 
HETATM   38  C20 UNL     1     -11.018  14.541  27.215  1.00  0.00    -0.001 C 
BRANCH  38  39
HETATM   39  C21 UNL     1     -11.519  15.163  28.425  1.00  0.00     0.263 C 
BRANCH  39  40
HETATM   40  N8  UNL     1     -12.549  14.273  29.040  1.00  0.00    -0.075 N 
HETATM   41  C22 UNL     1     -12.305  14.244  30.491  1.00  0.00     0.272 C 
HETATM   42  C23 UNL     1     -13.875  14.735  28.813  1.00  0.00     0.272 C 
HETATM   43  C24 UNL     1     -12.406  12.919  28.568  1.00  0.00     0.272 C 
ENDBRANCH  39  40
ENDBRANCH  38  39
ENDBRANCH  36  37
BRANCH  36  44
HETATM   44  N9  UNL     1      -8.408  15.484  27.015  1.00  0.00    -0.293 N 
ATOM     45  H9  UNL     1      -8.187  14.489  27.029  1.00  0.00     0.174 HD
BRANCH  44  46
HETATM   46  S1  UNL     1      -7.763  16.601  28.128  1.00  0.00     0.313 S 
HETATM   47  O2  UNL     1      -6.264  16.507  28.094  1.00  0.00    -0.183 OA
HETATM   48  O3  UNL     1      -8.212  17.987  27.795  1.00  0.00    -0.183 OA
BRANCH  46  49
HETATM   49  N10 UNL     1      -8.243  16.273  29.749  1.00  0.00    -0.312 N 
ATOM     50 2H10 UNL     1      -8.631  16.987  30.366  1.00  0.00     0.170 HD
ATOM     51 1H10 UNL     1      -8.095  15.298  30.013  1.00  0.00     0.170 HD
ENDBRANCH  46  49
ENDBRANCH  44  46
ENDBRANCH  36  44
ENDBRANCH   1  36
TORSDOF 23
ENDMDL
MODEL 5
REMARK VINA RESULT: -7.400841488      1.845      3.035
REMARK  23 active torsions:
REMARK  status: ('A' for Active; 'I' for Inactive)
REMARK    1  A    between atoms: C2_2  and  N1_3 
REMARK    2  A    between atoms: N1_3  and  C3_4 
REMARK    3  A    between atoms: N1_3  and  C5_6 
REMARK    4  A    between atoms: C5_6  and  C6_7 
REMARK    5  A    between atoms: C6_7  and  C7_8 
REMARK    6  A    between atoms: C7_8  and  N2_9 
REMARK    7  A    between atoms: N2_9  and  C8_10 
REMARK    8  A    between atoms: C8_10  and  O1_11 
REMARK    9  A    between atoms: C8_10  and  C9_13 
REMARK   10  A    between atoms: C11_17  and  N4_18 
REMARK   11  A    between atoms: N4_18  and  C12_20 
REMARK   12  A    between atoms: C12_20  and  C13_21 
REMARK   13  A    between atoms: C12_20  and  C18_32 
REMARK   14  A    between atoms: C13_21  and  C14_22 
REMARK   15  A    between atoms: C14_22  and  C15_23 
REMARK   16  A    between atoms: C15_23  and  C16_24 
REMARK   17  A    between atoms: C16_24  and  N5_25 
REMARK       I    between atoms: N5_25  and  C17_27 
REMARK   18  A    between atoms: C18_32  and  C19_33 
REMARK   19  A    between atoms: C18_32  and  N9_40 
REMARK   20  A    between atoms: C20_34  and  C21_35 
REMARK   21  A    between atoms: C21_35  and  N8_36 
REMARK   22  A    between atoms: N9_40  and  S1_42 
REMARK   23  A    between atoms: S1_42  and  N10_43 
ROOT
HETATM    1  C12 UNL     1     -10.910  15.179  30.396  1.00  0.00     0.126 C 
ENDROOT
BRANCH   1   2
HETATM    2  N4  UNL     1      -9.899  15.087  29.404  1.00  0.00    -0.219 N 
ATOM      3  H4  UNL     1      -9.596  14.128  29.236  1.00  0.00     0.178 HD
BRANCH   2   4
HETATM    4  C11 UNL     1      -9.292  15.926  28.685  1.00  0.00     0.681 A 
HETATM    5  N3  UNL     1      -7.911  15.894  28.717  1.00  0.00    -0.201 N 
HETATM    6  C10 UNL     1      -7.189  16.713  27.948  1.00  0.00     0.129 A 
ATOM      7  H3  UNL     1      -7.437  15.236  29.335  1.00  0.00     0.183 HD
HETATM    8  C9  UNL     1      -7.744  17.648  27.066  1.00  0.00     0.113 A 
HETATM    9  C25 UNL     1      -9.098  17.657  27.057  1.00  0.00     0.276 A 
HETATM   10  N11 UNL     1      -9.835  16.813  27.852  1.00  0.00    -0.155 N 
HETATM   11  O4  UNL     1      -9.719  18.458  26.305  1.00  0.00    -0.267 OA
ATOM     12  H11 UNL     1     -10.852  16.869  27.803  1.00  0.00     0.187 HD
BRANCH   8  13
HETATM   13  C8  UNL     1      -6.838  18.458  26.278  1.00  0.00     0.230 C 
BRANCH  13  14
HETATM   14  N2  UNL     1      -6.064  18.124  25.149  1.00  0.00    -0.396 NA
BRANCH  14  15
HETATM   15  C7  UNL     1      -5.332  17.821  24.085  1.00  0.00     0.159 C 
BRANCH  15  16
HETATM   16  C6  UNL     1      -5.961  17.944  22.726  1.00  0.00     0.079 C 
BRANCH  16  17
HETATM   17  C5  UNL     1      -7.416  18.203  22.681  1.00  0.00     0.133 C 
BRANCH  17  18
HETATM   18  N1  UNL     1      -8.231  17.079  22.357  1.00  0.00    -0.374 N 
BRANCH  18  19
HETATM   19  C2  UNL     1      -8.516  16.836  21.022  1.00  0.00     0.058 C 
HETATM   20  C1  UNL     1      -9.885  16.233  20.823  1.00  0.00     0.055 C 
ENDBRANCH  18  19
BRANCH  18  21
HETATM   21  C3  UNL     1      -8.993  16.573  23.404  1.00  0.00     0.058 C 
HETATM   22  C4  UNL     1      -8.412  15.387  24.143  1.00  0.00     0.055 C 
ENDBRANCH  18  21
ENDBRANCH  17  18
ENDBRANCH  16  17
ENDBRANCH  15  16
ENDBRANCH  14  15
ENDBRANCH  13  14
BRANCH  13  23
HETATM   23  O1  UNL     1      -6.749  19.703  26.716  1.00  0.00    -0.335 OA
ATOM     24  H1  UNL     1      -7.132  19.887  27.566  1.00  0.00     0.220 HD
ENDBRANCH  13  23
ENDBRANCH   8  13
ENDBRANCH   2   4
ENDBRANCH   1   2
BRANCH   1  25
HETATM   25  C13 UNL     1     -10.319  15.041  31.747  1.00  0.00     0.028 C 
BRANCH  25  26
HETATM   26  C14 UNL     1      -9.326  16.029  32.211  1.00  0.00     0.004 C 
BRANCH  26  27
HETATM   27  C15 UNL     1      -8.888  15.808  33.664  1.00  0.00     0.020 C 
BRANCH  27  28
HETATM   28  C16 UNL     1      -9.861  16.503  34.569  1.00  0.00     0.122 C 
BRANCH  28  29
HETATM   29  N5  UNL     1     -10.404  15.549  35.508  1.00  0.00    -0.365 N 
HETATM   30  C17 UNL     1     -11.772  15.156  35.361  1.00  0.00     0.181 C 
HETATM   31  N6  UNL     1     -12.384  14.445  36.238  1.00  0.00    -0.374 N 
HETATM   32  N7  UNL     1     -12.494  15.567  34.215  1.00  0.00    -0.064 NA
ATOM     33  H62 UNL     1     -11.864  14.149  37.064  1.00  0.00     0.158 HD
ATOM     34  H61 UNL     1     -13.359  14.165  36.134  1.00  0.00     0.158 HD
ATOM     35  H5  UNL     1      -9.826  15.165  36.256  1.00  0.00     0.162 HD
ENDBRANCH  28  29
ENDBRANCH  27  28
ENDBRANCH  26  27
ENDBRANCH  25  26
ENDBRANCH   1  25
BRANCH   1  36
HETATM   36  C18 UNL     1     -12.020  14.275  30.088  1.00  0.00     0.140 C 
BRANCH  36  37
HETATM   37  C19 UNL     1     -12.734  13.638  31.282  1.00  0.00    -0.002 C 
HETATM   38  C20 UNL     1     -13.530  12.456  31.158  1.00  0.00    -0.001 C 
BRANCH  38  39
HETATM   39  C21 UNL     1     -13.129  11.135  30.713  1.00  0.00     0.263 C 
BRANCH  39  40
HETATM   40  N8  UNL     1     -13.644  10.118  31.678  1.00  0.00    -0.075 N 
HETATM   41  C22 UNL     1     -12.877   8.879  31.472  1.00  0.00     0.272 C 
HETATM   42  C23 UNL     1     -13.494  10.525  33.033  1.00  0.00     0.272 C 
HETATM   43  C24 UNL     1     -15.024   9.803  31.404  1.00  0.00     0.272 C 
ENDBRANCH  39  40
ENDBRANCH  38  39
ENDBRANCH  36  37
BRANCH  36  44
HETATM   44  N9  UNL     1     -13.090  15.049  29.419  1.00  0.00    -0.293 N 
ATOM     45  H9  UNL     1     -13.630  15.777  29.885  1.00  0.00     0.174 HD
BRANCH  44  46
HETATM   46  S1  UNL     1     -13.331  14.604  27.792  1.00  0.00     0.313 S 
HETATM   47  O2  UNL     1     -14.141  15.672  27.113  1.00  0.00    -0.183 OA
HETATM   48  O3  UNL     1     -12.017  14.421  27.102  1.00  0.00    -0.183 OA
BRANCH  46  49
HETATM   49  N10 UNL     1     -14.213  13.134  27.630  1.00  0.00    -0.312 N 
ATOM     50 2H10 UNL     1     -15.186  13.039  27.920  1.00  0.00     0.170 HD
ATOM     51 1H10 UNL     1     -13.656  12.386  27.216  1.00  0.00     0.170 HD
ENDBRANCH  46  49
ENDBRANCH  44  46
ENDBRANCH  36  44
ENDBRANCH   1  36
TORSDOF 23
ENDMDL
