MODEL 1
REMARK VINA RESULT: -8.702796879      0.000      0.000
REMARK  21 active torsions:
REMARK  status: ('A' for Active; 'I' for Inactive)
REMARK       I    between atoms: C1_2  and  N8_32 
REMARK       I    between atoms: N2_3  and  C2_5 
REMARK    1  A    between atoms: C2_5  and  C3_7 
REMARK    2  A    between atoms: C3_7  and  N3_8 
REMARK    3  A    between atoms: N3_8  and  O2_9 
REMARK    4  A    between atoms: N3_8  and  C4_11 
REMARK    5  A    between atoms: C4_11  and  C5_12 
REMARK    6  A    between atoms: C5_12  and  C6_13 
REMARK    7  A    between atoms: C6_13  and  N4_14 
REMARK    8  A    between atoms: N4_14  and  C7_17 
REMARK    9  A    between atoms: C7_17  and  C8_18 
REMARK   10  A    between atoms: C8_18  and  N5_19 
REMARK       I    between atoms: N5_19  and  C9_21 
REMARK   11  A    between atoms: C9_21  and  C10_23 
REMARK   12  A    between atoms: C10_23  and  C11_24 
REMARK   13  A    between atoms: N8_32  and  C14_34 
REMARK   14  A    between atoms: C14_34  and  C15_35 
REMARK   15  A    between atoms: C15_35  and  C16_36 
REMARK   16  A    between atoms: C16_36  and  C17_37 
REMARK   17  A    between atoms: C17_37  and  N9_38 
REMARK       I    between atoms: N9_38  and  C18_40 
REMARK   18  A    between atoms: C18_40  and  C19_42 
REMARK   19  A    between atoms: C19_42  and  N10_43 
REMARK       I    between atoms: N10_43  and  C20_45 
REMARK   20  A    between atoms: C20_45  and  C21_47 
REMARK   21  A    between atoms: C21_47  and  C22_48 
ROOT
HETATM    1  N1  UNL     1      -8.050  14.446  27.341  1.00  0.00    -0.063 NA
HETATM    2  C1  UNL     1      -8.950  15.407  27.845  1.00  0.00     0.191 C 
HETATM    3  N2  UNL     1      -9.497  16.294  27.144  1.00  0.00    -0.297 N 
ATOM      4  H2  UNL     1     -10.127  16.924  27.642  1.00  0.00     0.171 HD
HETATM    5  C2  UNL     1      -9.362  16.525  25.810  1.00  0.00     0.265 C 
HETATM    6  O1  UNL     1      -8.662  17.537  25.442  1.00  0.00    -0.267 OA
HETATM    7  N8  UNL     1      -9.263  15.404  29.250  1.00  0.00    -0.364 N 
ATOM      8  H8  UNL     1     -10.016  14.823  29.617  1.00  0.00     0.162 HD
ENDROOT
BRANCH   5   9
HETATM    9  C3  UNL     1      -9.936  15.734  24.714  1.00  0.00     0.196 C 
BRANCH   9  10
HETATM   10  N3  UNL     1      -9.034  15.220  23.768  1.00  0.00    -0.246 N 
BRANCH  10  11
HETATM   11  O2  UNL     1      -7.857  15.135  24.217  1.00  0.00    -0.284 OA
ATOM     12  H2  UNL     1      -7.414  14.343  23.934  1.00  0.00     0.245 HD
ENDBRANCH  10  11
BRANCH  10  13
HETATM   13  C4  UNL     1      -9.207  14.811  22.438  1.00  0.00     0.097 C 
BRANCH  13  14
HETATM   14  C5  UNL     1      -9.918  15.659  21.458  1.00  0.00     0.074 C 
BRANCH  14  15
HETATM   15  C6  UNL     1      -9.214  16.831  20.909  1.00  0.00     0.237 C 
BRANCH  15  16
HETATM   16  N4  UNL     1      -8.012  16.456  20.140  1.00  0.00    -0.073 N 
ATOM     17  H42 UNL     1      -7.851  15.449  20.167  1.00  0.00     0.277 HD
ATOM     18  H41 UNL     1      -8.161  16.567  19.137  1.00  0.00     0.277 HD
BRANCH  16  19
HETATM   19  C7  UNL     1      -6.841  17.192  20.588  1.00  0.00     0.251 C 
BRANCH  19  20
HETATM   20  C8  UNL     1      -7.236  17.957  21.824  1.00  0.00     0.150 C 
BRANCH  20  21
HETATM   21  N5  UNL     1      -6.540  17.493  22.992  1.00  0.00    -0.359 N 
HETATM   22  C9  UNL     1      -5.356  18.122  23.420  1.00  0.00     0.223 C 
HETATM   23  O3  UNL     1      -4.903  19.098  22.772  1.00  0.00    -0.273 OA
ATOM     24  H5  UNL     1      -6.908  16.700  23.517  1.00  0.00     0.162 HD
BRANCH  22  25
HETATM   25  C10 UNL     1      -4.619  17.639  24.647  1.00  0.00     0.161 C 
BRANCH  25  26
HETATM   26  C11 UNL     1      -5.366  18.099  25.845  1.00  0.00     0.038 A 
HETATM   27  C12 UNL     1      -5.687  17.395  26.983  1.00  0.00     0.118 A 
HETATM   28  N6  UNL     1      -6.377  18.178  27.838  1.00  0.00    -0.317 N 
HETATM   29  C13 UNL     1      -6.493  19.373  27.245  1.00  0.00     0.324 A 
ATOM     30  H6  UNL     1      -6.738  17.912  28.754  1.00  0.00     0.170 HD
HETATM   31  O4  UNL     1      -7.071  20.363  27.733  1.00  0.00    -0.247 OA
HETATM   32  N7  UNL     1      -5.889  19.337  26.051  1.00  0.00    -0.311 N 
ATOM     33  H7  UNL     1      -5.831  20.117  25.397  1.00  0.00     0.170 HD
ENDBRANCH  25  26
ENDBRANCH  22  25
ENDBRANCH  20  21
ENDBRANCH  19  20
ENDBRANCH  16  19
ENDBRANCH  15  16
ENDBRANCH  14  15
ENDBRANCH  13  14
ENDBRANCH  10  13
ENDBRANCH   9  10
ENDBRANCH   5   9
BRANCH   7  34
HETATM   34  C14 UNL     1      -8.491  16.239  30.115  1.00  0.00     0.122 C 
BRANCH  34  35
HETATM   35  C15 UNL     1      -9.302  16.668  31.298  1.00  0.00     0.021 C 
BRANCH  35  36
HETATM   36  C16 UNL     1      -8.486  16.799  32.551  1.00  0.00     0.021 C 
BRANCH  36  37
HETATM   37  C17 UNL     1      -8.761  15.664  33.521  1.00  0.00     0.122 C 
BRANCH  37  38
HETATM   38  N9  UNL     1     -10.074  15.072  33.252  1.00  0.00    -0.360 N 
HETATM   39  C18 UNL     1     -11.208  15.414  34.015  1.00  0.00     0.235 C 
HETATM   40  O5  UNL     1     -11.052  16.268  34.974  1.00  0.00    -0.272 OA
ATOM     41  H9  UNL     1     -10.170  14.396  32.494  1.00  0.00     0.162 HD
BRANCH  39  42
HETATM   42  C19 UNL     1     -12.573  14.914  33.855  1.00  0.00     0.225 C 
BRANCH  42  43
HETATM   43  N10 UNL     1     -12.724  14.030  32.739  1.00  0.00    -0.352 N 
HETATM   44  C20 UNL     1     -14.003  13.776  32.202  1.00  0.00     0.222 C 
HETATM   45  O6  UNL     1     -15.004  14.321  32.702  1.00  0.00    -0.273 OA
ATOM     46  H10 UNL     1     -11.904  13.582  32.331  1.00  0.00     0.162 HD
BRANCH  44  47
HETATM   47  C21 UNL     1     -14.147  12.865  31.055  1.00  0.00     0.141 C 
BRANCH  47  48
HETATM   48  C22 UNL     1     -13.644  13.408  29.798  1.00  0.00    -0.050 A 
HETATM   49  C23 UNL     1     -14.259  14.474  29.183  1.00  0.00     0.007 A 
HETATM   50  C24 UNL     1     -13.765  14.980  27.972  1.00  0.00     0.001 A 
HETATM   51  C25 UNL     1     -12.664  14.414  27.395  1.00  0.00     0.000 A 
HETATM   52  C26 UNL     1     -12.034  13.346  27.996  1.00  0.00     0.001 A 
HETATM   53  C27 UNL     1     -12.540  12.854  29.201  1.00  0.00     0.007 A 
ENDBRANCH  47  48
ENDBRANCH  44  47
ENDBRANCH  42  43
ENDBRANCH  39  42
ENDBRANCH  37  38
ENDBRANCH  36  37
ENDBRANCH  35  36
ENDBRANCH  34  35
ENDBRANCH   7  34
TORSDOF 21
ENDMDL
MODEL 2
REMARK VINA RESULT: -8.610370862      1.349      1.640
REMARK  21 active torsions:
REMARK  status: ('A' for Active; 'I' for Inactive)
REMARK       I    between atoms: C1_2  and  N8_32 
REMARK       I    between atoms: N2_3  and  C2_5 
REMARK    1  A    between atoms: C2_5  and  C3_7 
REMARK    2  A    between atoms: C3_7  and  N3_8 
REMARK    3  A    between atoms: N3_8  and  O2_9 
REMARK    4  A    between atoms: N3_8  and  C4_11 
REMARK    5  A    between atoms: C4_11  and  C5_12 
REMARK    6  A    between atoms: C5_12  and  C6_13 
REMARK    7  A    between atoms: C6_13  and  N4_14 
REMARK    8  A    between atoms: N4_14  and  C7_17 
REMARK    9  A    between atoms: C7_17  and  C8_18 
REMARK   10  A    between atoms: C8_18  and  N5_19 
REMARK       I    between atoms: N5_19  and  C9_21 
REMARK   11  A    between atoms: C9_21  and  C10_23 
REMARK   12  A    between atoms: C10_23  and  C11_24 
REMARK   13  A    between atoms: N8_32  and  C14_34 
REMARK   14  A    between atoms: C14_34  and  C15_35 
REMARK   15  A    between atoms: C15_35  and  C16_36 
REMARK   16  A    between atoms: C16_36  and  C17_37 
REMARK   17  A    between atoms: C17_37  and  N9_38 
REMARK       I    between atoms: N9_38  and  C18_40 
REMARK   18  A    between atoms: C18_40  and  C19_42 
REMARK   19  A    between atoms: C19_42  and  N10_43 
REMARK       I    between atoms: N10_43  and  C20_45 
REMARK   20  A    between atoms: C20_45  and  C21_47 
REMARK   21  A    between atoms: C21_47  and  C22_48 
ROOT
HETATM    1  N1  UNL     1      -8.572  15.448  28.442  1.00  0.00    -0.063 NA
HETATM    2  C1  UNL     1      -9.333  16.508  28.975  1.00  0.00     0.191 C 
HETATM    3  N2  UNL     1      -9.551  17.589  28.374  1.00  0.00    -0.297 N 
ATOM      4  H2  UNL     1     -10.119  18.269  28.880  1.00  0.00     0.171 HD
HETATM    5  C2  UNL     1      -9.132  17.972  27.137  1.00  0.00     0.265 C 
HETATM    6  O1  UNL     1      -8.184  18.837  27.064  1.00  0.00    -0.267 OA
HETATM    7  N8  UNL     1      -9.890  16.376  30.295  1.00  0.00    -0.364 N 
ATOM      8  H8  UNL     1     -10.801  15.937  30.438  1.00  0.00     0.162 HD
ENDROOT
BRANCH   5   9
HETATM    9  C3  UNL     1      -9.646  17.502  25.845  1.00  0.00     0.196 C 
BRANCH   9  10
HETATM   10  N3  UNL     1      -8.699  17.006  24.933  1.00  0.00    -0.246 N 
BRANCH  10  11
HETATM   11  O2  UNL     1      -8.030  17.924  24.380  1.00  0.00    -0.284 OA
ATOM     12  H2  UNL     1      -7.286  17.591  23.893  1.00  0.00     0.245 HD
ENDBRANCH  10  11
BRANCH  10  13
HETATM   13  C4  UNL     1      -8.388  15.700  24.526  1.00  0.00     0.097 C 
BRANCH  13  14
HETATM   14  C5  UNL     1      -9.155  15.023  23.460  1.00  0.00     0.074 C 
BRANCH  14  15
HETATM   15  C6  UNL     1      -9.045  15.541  22.085  1.00  0.00     0.237 C 
BRANCH  15  16
HETATM   16  N4  UNL     1      -7.666  15.937  21.741  1.00  0.00    -0.073 N 
ATOM     17  H42 UNL     1      -7.072  15.977  22.570  1.00  0.00     0.277 HD
ATOM     18  H41 UNL     1      -7.181  15.197  21.234  1.00  0.00     0.277 HD
BRANCH  16  19
HETATM   19  C7  UNL     1      -7.638  17.190  21.007  1.00  0.00     0.251 C 
BRANCH  19  20
HETATM   20  C8  UNL     1      -6.245  17.751  21.128  1.00  0.00     0.150 C 
BRANCH  20  21
HETATM   21  N5  UNL     1      -6.166  18.799  22.108  1.00  0.00    -0.359 N 
HETATM   22  C9  UNL     1      -5.079  18.869  22.999  1.00  0.00     0.223 C 
HETATM   23  O3  UNL     1      -4.168  18.006  22.936  1.00  0.00    -0.273 OA
ATOM     24  H5  UNL     1      -6.906  19.499  22.160  1.00  0.00     0.162 HD
BRANCH  22  25
HETATM   25  C10 UNL     1      -4.990  19.967  24.032  1.00  0.00     0.161 C 
BRANCH  25  26
HETATM   26  C11 UNL     1      -5.056  19.341  25.377  1.00  0.00     0.038 A 
HETATM   27  C12 UNL     1      -4.891  19.929  26.610  1.00  0.00     0.118 A 
HETATM   28  N6  UNL     1      -5.029  19.010  27.588  1.00  0.00    -0.317 N 
HETATM   29  C13 UNL     1      -5.281  17.845  26.978  1.00  0.00     0.324 A 
ATOM     30  H6  UNL     1      -4.956  19.171  28.592  1.00  0.00     0.170 HD
HETATM   31  O4  UNL     1      -5.468  16.758  27.557  1.00  0.00    -0.247 OA
HETATM   32  N7  UNL     1      -5.301  18.032  25.653  1.00  0.00    -0.311 N 
ATOM     33  H7  UNL     1      -5.473  17.306  24.958  1.00  0.00     0.170 HD
ENDBRANCH  25  26
ENDBRANCH  22  25
ENDBRANCH  20  21
ENDBRANCH  19  20
ENDBRANCH  16  19
ENDBRANCH  15  16
ENDBRANCH  14  15
ENDBRANCH  13  14
ENDBRANCH  10  13
ENDBRANCH   9  10
ENDBRANCH   5   9
BRANCH   7  34
HETATM   34  C14 UNL     1      -9.135  16.875  31.400  1.00  0.00     0.122 C 
BRANCH  34  35
HETATM   35  C15 UNL     1      -8.589  15.748  32.220  1.00  0.00     0.021 C 
BRANCH  35  36
HETATM   36  C16 UNL     1      -8.497  16.079  33.682  1.00  0.00     0.021 C 
BRANCH  36  37
HETATM   37  C17 UNL     1      -9.267  15.084  34.532  1.00  0.00     0.122 C 
BRANCH  37  38
HETATM   38  N9  UNL     1     -10.450  14.606  33.810  1.00  0.00    -0.360 N 
HETATM   39  C18 UNL     1     -11.741  15.078  34.116  1.00  0.00     0.235 C 
HETATM   40  O5  UNL     1     -11.854  15.949  35.066  1.00  0.00    -0.272 OA
ATOM     41  H9  UNL     1     -10.335  13.914  33.069  1.00  0.00     0.162 HD
BRANCH  39  42
HETATM   42  C19 UNL     1     -13.002  14.700  33.477  1.00  0.00     0.225 C 
BRANCH  42  43
HETATM   43  N10 UNL     1     -12.821  13.977  32.255  1.00  0.00    -0.352 N 
HETATM   44  C20 UNL     1     -13.933  13.419  31.590  1.00  0.00     0.222 C 
HETATM   45  O6  UNL     1     -15.073  13.555  32.068  1.00  0.00    -0.273 OA
ATOM     46  H10 UNL     1     -11.886  13.864  31.864  1.00  0.00     0.162 HD
BRANCH  44  47
HETATM   47  C21 UNL     1     -13.736  12.677  30.334  1.00  0.00     0.141 C 
BRANCH  47  48
HETATM   48  C22 UNL     1     -13.337  13.511  29.206  1.00  0.00    -0.050 A 
HETATM   49  C23 UNL     1     -14.141  14.532  28.753  1.00  0.00     0.007 A 
HETATM   50  C24 UNL     1     -13.743  15.322  27.664  1.00  0.00     0.001 A 
HETATM   51  C25 UNL     1     -12.550  15.079  27.045  1.00  0.00     0.000 A 
HETATM   52  C26 UNL     1     -11.732  14.061  27.484  1.00  0.00     0.001 A 
HETATM   53  C27 UNL     1     -12.143  13.284  28.569  1.00  0.00     0.007 A 
ENDBRANCH  47  48
ENDBRANCH  44  47
ENDBRANCH  42  43
ENDBRANCH  39  42
ENDBRANCH  37  38
ENDBRANCH  36  37
ENDBRANCH  35  36
ENDBRANCH  34  35
ENDBRANCH   7  34
TORSDOF 21
ENDMDL
MODEL 3
REMARK VINA RESULT: -8.575097039      2.008     10.551
REMARK  21 active torsions:
REMARK  status: ('A' for Active; 'I' for Inactive)
REMARK       I    between atoms: C1_2  and  N8_32 
REMARK       I    between atoms: N2_3  and  C2_5 
REMARK    1  A    between atoms: C2_5  and  C3_7 
REMARK    2  A    between atoms: C3_7  and  N3_8 
REMARK    3  A    between atoms: N3_8  and  O2_9 
REMARK    4  A    between atoms: N3_8  and  C4_11 
REMARK    5  A    between atoms: C4_11  and  C5_12 
REMARK    6  A    between atoms: C5_12  and  C6_13 
REMARK    7  A    between atoms: C6_13  and  N4_14 
REMARK    8  A    between atoms: N4_14  and  C7_17 
REMARK    9  A    between atoms: C7_17  and  C8_18 
REMARK   10  A    between atoms: C8_18  and  N5_19 
REMARK       I    between atoms: N5_19  and  C9_21 
REMARK   11  A    between atoms: C9_21  and  C10_23 
REMARK   12  A    between atoms: C10_23  and  C11_24 
REMARK   13  A    between atoms: N8_32  and  C14_34 
REMARK   14  A    between atoms: C14_34  and  C15_35 
REMARK   15  A    between atoms: C15_35  and  C16_36 
REMARK   16  A    between atoms: C16_36  and  C17_37 
REMARK   17  A    between atoms: C17_37  and  N9_38 
REMARK       I    between atoms: N9_38  and  C18_40 
REMARK   18  A    between atoms: C18_40  and  C19_42 
REMARK   19  A    between atoms: C19_42  and  N10_43 
REMARK       I    between atoms: N10_43  and  C20_45 
REMARK   20  A    between atoms: C20_45  and  C21_47 
REMARK   21  A    between atoms: C21_47  and  C22_48 
ROOT
HETATM    1  N1  UNL     1      -7.948  14.522  27.360  1.00  0.00    -0.063 NA
HETATM    2  C1  UNL     1      -8.991  15.086  26.595  1.00  0.00     0.191 C 
HETATM    3  N2  UNL     1     -10.208  14.989  26.887  1.00  0.00    -0.297 N 
ATOM      4  H2  UNL     1     -10.855  15.446  26.243  1.00  0.00     0.171 HD
HETATM    5  C2  UNL     1     -10.780  14.355  27.947  1.00  0.00     0.265 C 
HETATM    6  O1  UNL     1     -11.376  13.238  27.731  1.00  0.00    -0.267 OA
HETATM    7  N8  UNL     1      -8.666  15.807  25.393  1.00  0.00    -0.364 N 
ATOM      8  H8  UNL     1      -8.442  16.802  25.423  1.00  0.00     0.162 HD
ENDROOT
BRANCH   5   9
HETATM    9  C3  UNL     1     -10.794  14.808  29.344  1.00  0.00     0.196 C 
BRANCH   9  10
HETATM   10  N3  UNL     1     -10.840  16.196  29.556  1.00  0.00    -0.246 N 
BRANCH  10  11
HETATM   11  O2  UNL     1     -11.739  16.762  28.873  1.00  0.00    -0.284 OA
ATOM     12  H2  UNL     1     -12.548  16.877  29.357  1.00  0.00     0.245 HD
ENDBRANCH  10  11
BRANCH  10  13
HETATM   13  C4  UNL     1     -10.068  17.044  30.363  1.00  0.00     0.097 C 
BRANCH  13  14
HETATM   14  C5  UNL     1      -8.758  16.615  30.897  1.00  0.00     0.074 C 
BRANCH  14  15
HETATM   15  C6  UNL     1      -8.609  16.482  32.356  1.00  0.00     0.237 C 
BRANCH  15  16
HETATM   16  N4  UNL     1      -9.833  15.969  33.002  1.00  0.00    -0.073 N 
ATOM     17  H42 UNL     1     -10.374  16.722  33.426  1.00  0.00     0.277 HD
ATOM     18  H41 UNL     1     -10.514  15.653  32.312  1.00  0.00     0.277 HD
BRANCH  16  19
HETATM   19  C7  UNL     1      -9.531  14.926  33.967  1.00  0.00     0.251 C 
BRANCH  19  20
HETATM   20  C8  UNL     1     -10.700  14.834  34.912  1.00  0.00     0.150 C 
BRANCH  20  21
HETATM   21  N5  UNL     1     -11.695  13.904  34.454  1.00  0.00    -0.359 N 
HETATM   22  C9  UNL     1     -12.831  14.354  33.755  1.00  0.00     0.223 C 
HETATM   23  O3  UNL     1     -12.976  15.581  33.531  1.00  0.00    -0.273 OA
ATOM     24  H5  UNL     1     -11.577  12.908  34.637  1.00  0.00     0.162 HD
BRANCH  22  25
HETATM   25  C10 UNL     1     -13.881  13.382  33.271  1.00  0.00     0.161 C 
BRANCH  25  26
HETATM   26  C11 UNL     1     -13.925  13.450  31.789  1.00  0.00     0.038 A 
HETATM   27  C12 UNL     1     -13.760  12.435  30.874  1.00  0.00     0.118 A 
HETATM   28  N6  UNL     1     -13.872  12.916  29.618  1.00  0.00    -0.317 N 
HETATM   29  C13 UNL     1     -14.108  14.229  29.736  1.00  0.00     0.324 A 
ATOM     30  H6  UNL     1     -13.794  12.384  28.752  1.00  0.00     0.170 HD
HETATM   31  O4  UNL     1     -14.271  15.016  28.785  1.00  0.00    -0.247 OA
HETATM   32  N7  UNL     1     -14.143  14.559  31.032  1.00  0.00    -0.311 N 
ATOM     33  H7  UNL     1     -14.307  15.497  31.397  1.00  0.00     0.170 HD
ENDBRANCH  25  26
ENDBRANCH  22  25
ENDBRANCH  20  21
ENDBRANCH  19  20
ENDBRANCH  16  19
ENDBRANCH  15  16
ENDBRANCH  14  15
ENDBRANCH  13  14
ENDBRANCH  10  13
ENDBRANCH   9  10
ENDBRANCH   5   9
BRANCH   7  34
HETATM   34  C14 UNL     1      -8.668  15.092  24.156  1.00  0.00     0.122 C 
BRANCH  34  35
HETATM   35  C15 UNL     1      -9.290  15.914  23.071  1.00  0.00     0.021 C 
BRANCH  35  36
HETATM   36  C16 UNL     1      -9.119  15.309  21.707  1.00  0.00     0.021 C 
BRANCH  36  37
HETATM   37  C17 UNL     1      -8.471  16.282  20.739  1.00  0.00     0.122 C 
BRANCH  37  38
HETATM   38  N9  UNL     1      -7.039  16.406  21.024  1.00  0.00    -0.360 N 
HETATM   39  C18 UNL     1      -6.472  17.627  21.438  1.00  0.00     0.235 C 
HETATM   40  O5  UNL     1      -7.259  18.647  21.553  1.00  0.00    -0.272 OA
ATOM     41  H9  UNL     1      -6.438  15.588  20.920  1.00  0.00     0.162 HD
BRANCH  39  42
HETATM   42  C19 UNL     1      -5.071  17.893  21.765  1.00  0.00     0.225 C 
BRANCH  42  43
HETATM   43  N10 UNL     1      -4.765  17.694  23.148  1.00  0.00    -0.352 N 
HETATM   44  C20 UNL     1      -3.905  18.586  23.821  1.00  0.00     0.222 C 
HETATM   45  O6  UNL     1      -3.408  19.548  23.208  1.00  0.00    -0.273 OA
ATOM     46  H10 UNL     1      -5.171  16.904  23.650  1.00  0.00     0.162 HD
BRANCH  44  47
HETATM   47  C21 UNL     1      -3.597  18.372  25.245  1.00  0.00     0.141 C 
BRANCH  47  48
HETATM   48  C22 UNL     1      -4.717  18.634  26.142  1.00  0.00    -0.050 A 
HETATM   49  C23 UNL     1      -5.111  19.920  26.434  1.00  0.00     0.007 A 
HETATM   50  C24 UNL     1      -6.188  20.154  27.302  1.00  0.00     0.001 A 
HETATM   51  C25 UNL     1      -6.853  19.102  27.864  1.00  0.00     0.000 A 
HETATM   52  C26 UNL     1      -6.473  17.807  27.582  1.00  0.00     0.001 A 
HETATM   53  C27 UNL     1      -5.398  17.592  26.716  1.00  0.00     0.007 A 
ENDBRANCH  47  48
ENDBRANCH  44  47
ENDBRANCH  42  43
ENDBRANCH  39  42
ENDBRANCH  37  38
ENDBRANCH  36  37
ENDBRANCH  35  36
ENDBRANCH  34  35
ENDBRANCH   7  34
TORSDOF 21
ENDMDL
MODEL 4
REMARK VINA RESULT: -8.430888957      1.582      3.819
REMARK  21 active torsions:
REMARK  status: ('A' for Active; 'I' for Inactive)
REMARK       I    between atoms: C1_2  and  N8_32 
REMARK       I    between atoms: N2_3  and  C2_5 
REMARK    1  A    between atoms: C2_5  and  C3_7 
REMARK    2  A    between atoms: C3_7  and  N3_8 
REMARK    3  A    between atoms: N3_8  and  O2_9 
REMARK    4  A    between atoms: N3_8  and  C4_11 
REMARK    5  A    between atoms: C4_11  and  C5_12 
REMARK    6  A    between atoms: C5_12  and  C6_13 
REMARK    7  A    between atoms: C6_13  and  N4_14 
REMARK    8  A    between atoms: N4_14  and  C7_17 
REMARK    9  A    between atoms: C7_17  and  C8_18 
REMARK   10  A    between atoms: C8_18  and  N5_19 
REMARK       I    between atoms: N5_19  and  C9_21 
REMARK   11  A    between atoms: C9_21  and  C10_23 
REMARK   12  A    between atoms: C10_23  and  C11_24 
REMARK   13  A    between atoms: N8_32  and  C14_34 
REMARK   14  A    between atoms: C14_34  and  C15_35 
REMARK   15  A    between atoms: C15_35  and  C16_36 
REMARK   16  A    between atoms: C16_36  and  C17_37 
REMARK   17  A    between atoms: C17_37  and  N9_38 
REMARK       I    between atoms: N9_38  and  C18_40 
REMARK   18  A    between atoms: C18_40  and  C19_42 
REMARK   19  A    between atoms: C19_42  and  N10_43 
REMARK       I    between atoms: N10_43  and  C20_45 
REMARK   20  A    between atoms: C20_45  and  C21_47 
REMARK   21  A    between atoms: C21_47  and  C22_48 
ROOT
HETATM    1  N1  UNL     1     -10.368  14.280  27.549  1.00  0.00    -0.063 NA
HETATM    2  C1  UNL     1     -11.009  15.476  27.166  1.00  0.00     0.191 C 
HETATM    3  N2  UNL     1     -10.437  16.593  27.109  1.00  0.00    -0.297 N 
ATOM      4  H2  UNL     1     -11.023  17.375  26.816  1.00  0.00     0.171 HD
HETATM    5  C2  UNL     1      -9.139  16.898  27.385  1.00  0.00     0.265 C 
HETATM    6  O1  UNL     1      -8.886  17.515  28.483  1.00  0.00    -0.267 OA
HETATM    7  N8  UNL     1     -12.408  15.446  26.832  1.00  0.00    -0.364 N 
ATOM      8  H8  UNL     1     -12.715  15.231  25.883  1.00  0.00     0.162 HD
ENDROOT
BRANCH   5   9
HETATM    9  C3  UNL     1      -7.965  16.595  26.557  1.00  0.00     0.196 C 
BRANCH   9  10
HETATM   10  N3  UNL     1      -8.184  16.469  25.175  1.00  0.00    -0.246 N 
BRANCH  10  11
HETATM   11  O2  UNL     1      -8.404  17.578  24.614  1.00  0.00    -0.284 OA
ATOM     12  H2  UNL     1      -9.279  17.906  24.783  1.00  0.00     0.245 HD
ENDBRANCH  10  11
BRANCH  10  13
HETATM   13  C4  UNL     1      -8.216  15.347  24.333  1.00  0.00     0.097 C 
BRANCH  13  14
HETATM   14  C5  UNL     1      -9.364  15.090  23.439  1.00  0.00     0.074 C 
BRANCH  14  15
HETATM   15  C6  UNL     1      -9.186  15.312  21.993  1.00  0.00     0.237 C 
BRANCH  15  16
HETATM   16  N4  UNL     1      -7.927  16.016  21.684  1.00  0.00    -0.073 N 
ATOM     17  H42 UNL     1      -7.336  16.105  22.510  1.00  0.00     0.277 HD
ATOM     18  H41 UNL     1      -7.310  15.442  21.109  1.00  0.00     0.277 HD
BRANCH  16  19
HETATM   19  C7  UNL     1      -8.175  17.309  21.068  1.00  0.00     0.251 C 
BRANCH  19  20
HETATM   20  C8  UNL     1      -7.003  18.196  21.398  1.00  0.00     0.150 C 
BRANCH  20  21
HETATM   21  N5  UNL     1      -6.203  17.663  22.465  1.00  0.00    -0.359 N 
HETATM   22  C9  UNL     1      -5.390  18.507  23.245  1.00  0.00     0.223 C 
HETATM   23  O3  UNL     1      -5.364  19.739  23.003  1.00  0.00    -0.273 OA
ATOM     24  H5  UNL     1      -6.224  16.662  22.661  1.00  0.00     0.162 HD
BRANCH  22  25
HETATM   25  C10 UNL     1      -4.546  17.952  24.369  1.00  0.00     0.161 C 
BRANCH  25  26
HETATM   26  C11 UNL     1      -4.956  18.623  25.628  1.00  0.00     0.038 A 
HETATM   27  C12 UNL     1      -4.322  18.626  26.849  1.00  0.00     0.118 A 
HETATM   28  N6  UNL     1      -5.024  19.358  27.739  1.00  0.00    -0.317 N 
HETATM   29  C13 UNL     1      -6.098  19.818  27.084  1.00  0.00     0.324 A 
ATOM     30  H6  UNL     1      -4.783  19.528  28.715  1.00  0.00     0.170 HD
HETATM   31  O4  UNL     1      -6.986  20.538  27.580  1.00  0.00    -0.247 OA
HETATM   32  N7  UNL     1      -6.067  19.385  25.819  1.00  0.00    -0.311 N 
ATOM     33  H7  UNL     1      -6.767  19.593  25.108  1.00  0.00     0.170 HD
ENDBRANCH  25  26
ENDBRANCH  22  25
ENDBRANCH  20  21
ENDBRANCH  19  20
ENDBRANCH  16  19
ENDBRANCH  15  16
ENDBRANCH  14  15
ENDBRANCH  13  14
ENDBRANCH  10  13
ENDBRANCH   9  10
ENDBRANCH   5   9
BRANCH   7  34
HETATM   34  C14 UNL     1     -13.354  15.724  27.865  1.00  0.00     0.122 C 
BRANCH  34  35
HETATM   35  C15 UNL     1     -14.452  14.706  27.865  1.00  0.00     0.021 C 
BRANCH  35  36
HETATM   36  C16 UNL     1     -14.030  13.390  27.278  1.00  0.00     0.021 C 
BRANCH  36  37
HETATM   37  C17 UNL     1     -13.432  12.473  28.330  1.00  0.00     0.122 C 
BRANCH  37  38
HETATM   38  N9  UNL     1     -13.942  12.822  29.659  1.00  0.00    -0.360 N 
HETATM   39  C18 UNL     1     -13.611  12.062  30.798  1.00  0.00     0.235 C 
HETATM   40  O5  UNL     1     -12.842  11.035  30.635  1.00  0.00    -0.272 OA
ATOM     41  H9  UNL     1     -14.551  13.633  29.761  1.00  0.00     0.162 HD
BRANCH  39  42
HETATM   42  C19 UNL     1     -14.036  12.297  32.179  1.00  0.00     0.225 C 
BRANCH  42  43
HETATM   43  N10 UNL     1     -13.036  12.939  32.977  1.00  0.00    -0.352 N 
HETATM   44  C20 UNL     1     -13.175  14.296  33.333  1.00  0.00     0.222 C 
HETATM   45  O6  UNL     1     -14.170  14.938  32.950  1.00  0.00    -0.273 OA
ATOM     46  H10 UNL     1     -12.220  12.413  33.289  1.00  0.00     0.162 HD
BRANCH  44  47
HETATM   47  C21 UNL     1     -12.141  14.947  34.154  1.00  0.00     0.141 C 
BRANCH  47  48
HETATM   48  C22 UNL     1     -10.942  15.323  33.412  1.00  0.00    -0.050 A 
HETATM   49  C23 UNL     1     -10.965  15.471  32.045  1.00  0.00     0.007 A 
HETATM   50  C24 UNL     1      -9.802  15.829  31.348  1.00  0.00     0.001 A 
HETATM   51  C25 UNL     1      -8.635  16.032  32.027  1.00  0.00     0.000 A 
HETATM   52  C26 UNL     1      -8.592  15.888  33.397  1.00  0.00     0.001 A 
HETATM   53  C27 UNL     1      -9.759  15.531  34.076  1.00  0.00     0.007 A 
ENDBRANCH  47  48
ENDBRANCH  44  47
ENDBRANCH  42  43
ENDBRANCH  39  42
ENDBRANCH  37  38
ENDBRANCH  36  37
ENDBRANCH  35  36
ENDBRANCH  34  35
ENDBRANCH   7  34
TORSDOF 21
ENDMDL
MODEL 5
REMARK VINA RESULT: -8.352839456      1.689      3.745
REMARK  21 active torsions:
REMARK  status: ('A' for Active; 'I' for Inactive)
REMARK       I    between atoms: C1_2  and  N8_32 
REMARK       I    between atoms: N2_3  and  C2_5 
REMARK    1  A    between atoms: C2_5  and  C3_7 
REMARK    2  A    between atoms: C3_7  and  N3_8 
REMARK    3  A    between atoms: N3_8  and  O2_9 
REMARK    4  A    between atoms: N3_8  and  C4_11 
REMARK    5  A    between atoms: C4_11  and  C5_12 
REMARK    6  A    between atoms: C5_12  and  C6_13 
REMARK    7  A    between atoms: C6_13  and  N4_14 
REMARK    8  A    between atoms: N4_14  and  C7_17 
REMARK    9  A    between atoms: C7_17  and  C8_18 
REMARK   10  A    between atoms: C8_18  and  N5_19 
REMARK       I    between atoms: N5_19  and  C9_21 
REMARK   11  A    between atoms: C9_21  and  C10_23 
REMARK   12  A    between atoms: C10_23  and  C11_24 
REMARK   13  A    between atoms: N8_32  and  C14_34 
REMARK   14  A    between atoms: C14_34  and  C15_35 
REMARK   15  A    between atoms: C15_35  and  C16_36 
REMARK   16  A    between atoms: C16_36  and  C17_37 
REMARK   17  A    between atoms: C17_37  and  N9_38 
REMARK       I    between atoms: N9_38  and  C18_40 
REMARK   18  A    between atoms: C18_40  and  C19_42 
REMARK   19  A    between atoms: C19_42  and  N10_43 
REMARK       I    between atoms: N10_43  and  C20_45 
REMARK   20  A    between atoms: C20_45  and  C21_47 
REMARK   21  A    between atoms: C21_47  and  C22_48 
ROOT
HETATM    1  N1  UNL     1      -9.094  14.470  27.955  1.00  0.00    -0.063 NA
HETATM    2  C1  UNL     1     -10.380  14.633  27.399  1.00  0.00     0.191 C 
HETATM    3  N2  UNL     1     -10.643  15.416  26.454  1.00  0.00    -0.297 N 
ATOM      4  H2  UNL     1     -11.617  15.433  26.151  1.00  0.00     0.171 HD
HETATM    5  C2  UNL     1      -9.801  16.245  25.778  1.00  0.00     0.265 C 
HETATM    6  O1  UNL     1      -9.870  17.504  26.025  1.00  0.00    -0.267 OA
HETATM    7  N8  UNL     1     -11.479  13.879  27.943  1.00  0.00    -0.364 N 
ATOM      8  H8  UNL     1     -11.688  12.939  27.604  1.00  0.00     0.162 HD
ENDROOT
BRANCH   5   9
HETATM    9  C3  UNL     1      -8.797  15.861  24.778  1.00  0.00     0.196 C 
BRANCH   9  10
HETATM   10  N3  UNL     1      -8.728  16.652  23.618  1.00  0.00    -0.246 N 
BRANCH  10  11
HETATM   11  O2  UNL     1      -8.098  17.730  23.802  1.00  0.00    -0.284 OA
ATOM     12  H2  UNL     1      -8.076  18.278  23.027  1.00  0.00     0.245 HD
ENDBRANCH  10  11
BRANCH  10  13
HETATM   13  C4  UNL     1      -9.242  16.462  22.327  1.00  0.00     0.097 C 
BRANCH  13  14
HETATM   14  C5  UNL     1      -8.355  16.409  21.146  1.00  0.00     0.074 C 
BRANCH  14  15
HETATM   15  C6  UNL     1      -8.040  17.669  20.452  1.00  0.00     0.237 C 
BRANCH  15  16
HETATM   16  N4  UNL     1      -6.904  18.382  21.067  1.00  0.00    -0.073 N 
ATOM     17  H42 UNL     1      -6.722  19.269  20.598  1.00  0.00     0.277 HD
ATOM     18  H41 UNL     1      -7.144  18.738  21.992  1.00  0.00     0.277 HD
BRANCH  16  19
HETATM   19  C7  UNL     1      -5.713  17.552  21.110  1.00  0.00     0.251 C 
BRANCH  19  20
HETATM   20  C8  UNL     1      -4.761  18.180  22.095  1.00  0.00     0.150 C 
BRANCH  20  21
HETATM   21  N5  UNL     1      -4.939  17.663  23.424  1.00  0.00    -0.359 N 
HETATM   22  C9  UNL     1      -4.432  18.356  24.538  1.00  0.00     0.223 C 
HETATM   23  O3  UNL     1      -3.817  19.438  24.368  1.00  0.00    -0.273 OA
ATOM     24  H5  UNL     1      -5.438  16.784  23.561  1.00  0.00     0.162 HD
BRANCH  22  25
HETATM   25  C10 UNL     1      -4.615  17.818  25.938  1.00  0.00     0.161 C 
BRANCH  25  26
HETATM   26  C11 UNL     1      -5.662  18.629  26.611  1.00  0.00     0.038 A 
HETATM   27  C12 UNL     1      -6.915  18.243  27.027  1.00  0.00     0.118 A 
HETATM   28  N6  UNL     1      -7.559  19.283  27.596  1.00  0.00    -0.317 N 
HETATM   29  C13 UNL     1      -6.718  20.324  27.540  1.00  0.00     0.324 A 
ATOM     30  H6  UNL     1      -8.500  19.278  27.989  1.00  0.00     0.170 HD
HETATM   31  O4  UNL     1      -6.962  21.467  27.971  1.00  0.00    -0.247 OA
HETATM   32  N7  UNL     1      -5.577  19.942  26.953  1.00  0.00    -0.311 N 
ATOM     33  H7  UNL     1      -4.770  20.543  26.789  1.00  0.00     0.170 HD
ENDBRANCH  25  26
ENDBRANCH  22  25
ENDBRANCH  20  21
ENDBRANCH  19  20
ENDBRANCH  16  19
ENDBRANCH  15  16
ENDBRANCH  14  15
ENDBRANCH  13  14
ENDBRANCH  10  13
ENDBRANCH   9  10
ENDBRANCH   5   9
BRANCH   7  34
HETATM   34  C14 UNL     1     -12.268  14.482  28.968  1.00  0.00     0.122 C 
BRANCH  34  35
HETATM   35  C15 UNL     1     -12.460  13.537  30.114  1.00  0.00     0.021 C 
BRANCH  35  36
HETATM   36  C16 UNL     1     -12.798  12.143  29.672  1.00  0.00     0.021 C 
BRANCH  36  37
HETATM   37  C17 UNL     1     -13.605  11.402  30.723  1.00  0.00     0.122 C 
BRANCH  37  38
HETATM   38  N9  UNL     1     -13.215  11.838  32.066  1.00  0.00    -0.360 N 
HETATM   39  C18 UNL     1     -14.168  12.033  33.085  1.00  0.00     0.235 C 
HETATM   40  O5  UNL     1     -15.411  11.820  32.795  1.00  0.00    -0.272 OA
ATOM     41  H9  UNL     1     -12.229  12.005  32.269  1.00  0.00     0.162 HD
BRANCH  39  42
HETATM   42  C19 UNL     1     -13.924  12.454  34.465  1.00  0.00     0.225 C 
BRANCH  42  43
HETATM   43  N10 UNL     1     -13.279  13.728  34.561  1.00  0.00    -0.352 N 
HETATM   44  C20 UNL     1     -11.956  13.820  35.039  1.00  0.00     0.222 C 
HETATM   45  O6  UNL     1     -11.348  12.789  35.380  1.00  0.00    -0.273 OA
ATOM     46  H10 UNL     1     -13.779  14.573  34.283  1.00  0.00     0.162 HD
BRANCH  44  47
HETATM   47  C21 UNL     1     -11.302  15.135  35.134  1.00  0.00     0.141 C 
BRANCH  47  48
HETATM   48  C22 UNL     1     -10.392  15.429  34.032  1.00  0.00    -0.050 A 
HETATM   49  C23 UNL     1      -9.032  15.487  34.226  1.00  0.00     0.007 A 
HETATM   50  C24 UNL     1      -8.172  15.775  33.155  1.00  0.00     0.001 A 
HETATM   51  C25 UNL     1      -8.685  16.000  31.910  1.00  0.00     0.000 A 
HETATM   52  C26 UNL     1     -10.046  15.946  31.697  1.00  0.00     0.001 A 
HETATM   53  C27 UNL     1     -10.887  15.659  32.773  1.00  0.00     0.007 A 
ENDBRANCH  47  48
ENDBRANCH  44  47
ENDBRANCH  42  43
ENDBRANCH  39  42
ENDBRANCH  37  38
ENDBRANCH  36  37
ENDBRANCH  35  36
ENDBRANCH  34  35
ENDBRANCH   7  34
TORSDOF 21
ENDMDL
