MODEL 1
REMARK VINA RESULT: -8.560535068      0.000      0.000
REMARK  20 active torsions:
REMARK  status: ('A' for Active; 'I' for Inactive)
REMARK    1  A    between atoms: N1_1  and  C1_5 
REMARK    2  A    between atoms: C1_5  and  C2_6 
REMARK    3  A    between atoms: C2_6  and  C3_7 
REMARK    4  A    between atoms: C3_7  and  C4_8 
REMARK    5  A    between atoms: C4_8  and  N2_9 
REMARK    6  A    between atoms: C7_14  and  C8_15 
REMARK    7  A    between atoms: C8_15  and  C9_16 
REMARK    8  A    between atoms: C9_16  and  C10_17 
REMARK    9  A    between atoms: C9_16  and  N4_19 
REMARK       I    between atoms: N4_19  and  C11_21 
REMARK   10  A    between atoms: C11_21  and  C12_23 
REMARK       I    between atoms: C12_23  and  N5_25 
REMARK   11  A    between atoms: N5_25  and  C13_27 
REMARK   12  A    between atoms: C13_27  and  C14_28 
REMARK   13  A    between atoms: C14_28  and  N6_29 
REMARK   14  A    between atoms: C14_28  and  C16_33 
REMARK   15  A    between atoms: N6_29  and  C15_31 
REMARK       I    between atoms: C16_33  and  N7_35 
REMARK   16  A    between atoms: N7_35  and  C17_37 
REMARK   17  A    between atoms: C17_37  and  C18_38 
REMARK       I    between atoms: C18_38  and  N8_40 
REMARK   18  A    between atoms: N8_40  and  C19_42 
REMARK   19  A    between atoms: C19_42  and  C20_43 
REMARK   20  A    between atoms: C20_43  and  C21_44 
ROOT
HETATM    1  C13 UNL     1     -10.354  15.112  26.085  1.00  0.00     0.158 C 
ENDROOT
BRANCH   1   2
HETATM    2  N5  UNL     1      -9.156  15.433  25.350  1.00  0.00    -0.350 N 
HETATM    3  C12 UNL     1      -8.855  16.786  25.103  1.00  0.00     0.309 C 
HETATM    4  O3  UNL     1      -9.624  17.703  25.520  1.00  0.00    -0.262 OA
ATOM      5  H5  UNL     1      -8.537  14.694  25.015  1.00  0.00     0.162 HD
BRANCH   3   6
HETATM    6  C11 UNL     1      -7.627  17.123  24.350  1.00  0.00     0.309 C 
HETATM    7  N4  UNL     1      -7.764  17.528  23.026  1.00  0.00    -0.342 N 
ATOM      8  H4  UNL     1      -8.730  17.570  22.701  1.00  0.00     0.163 HD
HETATM    9  O2  UNL     1      -6.555  17.014  24.980  1.00  0.00    -0.262 OA
BRANCH   7  10
HETATM   10  C9  UNL     1      -6.795  17.899  22.030  1.00  0.00     0.152 C 
BRANCH  10  11
HETATM   11  C8  UNL     1      -6.099  19.207  22.364  1.00  0.00     0.091 C 
BRANCH  11  12
HETATM   12  C7  UNL     1      -4.708  18.993  22.801  1.00  0.00     0.032 A 
HETATM   13  N2  UNL     1      -4.206  19.460  23.962  1.00  0.00    -0.297 N 
HETATM   14  N3  UNL     1      -2.931  19.114  24.028  1.00  0.00    -0.310 N 
HETATM   15  C5  UNL     1      -2.581  18.423  22.924  1.00  0.00     0.109 A 
ATOM     16  H3  UNL     1      -2.304  19.337  24.801  1.00  0.00     0.186 HD
HETATM   17  C6  UNL     1      -3.687  18.325  22.117  1.00  0.00     0.045 A 
BRANCH  13  18
HETATM   18  C4  UNL     1      -4.968  20.223  24.960  1.00  0.00     0.149 C 
BRANCH  18  19
HETATM   19  C3  UNL     1      -4.904  19.552  26.294  1.00  0.00     0.023 C 
BRANCH  19  20
HETATM   20  C2  UNL     1      -5.345  20.373  27.456  1.00  0.00     0.029 C 
BRANCH  20  21
HETATM   21  C1  UNL     1      -6.834  20.487  27.610  1.00  0.00     0.229 C 
BRANCH  21  22
HETATM   22  N1  UNL     1      -7.431  19.193  27.329  1.00  0.00    -0.079 N 
ATOM     23  H13 UNL     1      -6.889  18.650  26.657  1.00  0.00     0.274 HD
ATOM     24  H12 UNL     1      -7.360  18.551  28.119  1.00  0.00     0.274 HD
ATOM     25  H11 UNL     1      -8.395  19.337  27.027  1.00  0.00     0.274 HD
ENDBRANCH  21  22
ENDBRANCH  20  21
ENDBRANCH  19  20
ENDBRANCH  18  19
ENDBRANCH  13  18
ENDBRANCH  11  12
ENDBRANCH  10  11
BRANCH  10  26
HETATM   26  C10 UNL     1      -7.548  18.079  20.770  1.00  0.00     0.256 C 
HETATM   27  O1  UNL     1      -8.763  18.077  20.705  1.00  0.00    -0.305 OA
ENDBRANCH  10  26
ENDBRANCH   7  10
ENDBRANCH   3   6
ENDBRANCH   1   2
BRANCH   1  28
HETATM   28  C14 UNL     1     -10.141  14.866  27.539  1.00  0.00     0.193 C 
BRANCH  28  29
HETATM   29  N6  UNL     1      -9.587  15.958  28.276  1.00  0.00    -0.353 N 
ATOM     30  H6  UNL     1     -10.185  16.759  28.477  1.00  0.00     0.162 HD
BRANCH  29  31
HETATM   31  C15 UNL     1      -8.246  15.986  28.745  1.00  0.00     0.349 C 
HETATM   32  O4  UNL     1      -7.288  16.003  27.956  1.00  0.00    -0.284 OA
ENDBRANCH  29  31
ENDBRANCH  28  29
BRANCH  28  33
HETATM   33  C16 UNL     1     -11.454  14.454  28.141  1.00  0.00     0.242 C 
HETATM   34  O5  UNL     1     -12.138  15.333  28.747  1.00  0.00    -0.271 OA
HETATM   35  N7  UNL     1     -11.949  13.126  28.058  1.00  0.00    -0.350 N 
ATOM     36  H7  UNL     1     -11.404  12.421  27.562  1.00  0.00     0.163 HD
BRANCH  35  37
HETATM   37  C17 UNL     1     -13.180  12.761  28.646  1.00  0.00     0.225 C 
BRANCH  37  38
HETATM   38  C18 UNL     1     -13.172  12.522  30.126  1.00  0.00     0.238 C 
HETATM   39  O6  UNL     1     -12.822  11.320  30.407  1.00  0.00    -0.271 OA
HETATM   40  N8  UNL     1     -13.504  13.506  31.041  1.00  0.00    -0.339 N 
ATOM     41  H8  UNL     1     -13.756  14.391  30.603  1.00  0.00     0.167 HD
BRANCH  40  42
HETATM   42  C19 UNL     1     -13.568  13.547  32.445  1.00  0.00     0.068 C 
BRANCH  42  43
HETATM   43  C20 UNL     1     -13.444  14.823  33.157  1.00  0.00     0.085 C 
BRANCH  43  44
HETATM   44  C21 UNL     1     -12.251  15.063  33.943  1.00  0.00    -0.025 A 
HETATM   45  C22 UNL     1     -12.072  14.883  35.323  1.00  0.00     0.096 A 
HETATM   46  N9  UNL     1     -10.800  15.157  35.613  1.00  0.00    -0.365 N 
HETATM   47  C23 UNL     1     -10.117  15.510  34.514  1.00  0.00     0.042 A 
ATOM     48  H9  UNL     1     -10.398  15.105  36.549  1.00  0.00     0.165 HD
HETATM   49  C24 UNL     1      -8.779  15.874  34.347  1.00  0.00     0.030 A 
HETATM   50  C28 UNL     1     -10.995  15.458  33.476  1.00  0.00    -0.002 A 
HETATM   51  C25 UNL     1      -8.338  16.191  33.081  1.00  0.00     0.002 A 
HETATM   52  C26 UNL     1      -9.226  16.139  32.026  1.00  0.00     0.001 A 
HETATM   53  C27 UNL     1     -10.538  15.781  32.205  1.00  0.00     0.014 A 
ENDBRANCH  43  44
ENDBRANCH  42  43
ENDBRANCH  40  42
ENDBRANCH  37  38
ENDBRANCH  35  37
ENDBRANCH  28  33
ENDBRANCH   1  28
TORSDOF 20
ENDMDL
MODEL 2
REMARK VINA RESULT: -8.516787515      2.196      4.300
REMARK  20 active torsions:
REMARK  status: ('A' for Active; 'I' for Inactive)
REMARK    1  A    between atoms: N1_1  and  C1_5 
REMARK    2  A    between atoms: C1_5  and  C2_6 
REMARK    3  A    between atoms: C2_6  and  C3_7 
REMARK    4  A    between atoms: C3_7  and  C4_8 
REMARK    5  A    between atoms: C4_8  and  N2_9 
REMARK    6  A    between atoms: C7_14  and  C8_15 
REMARK    7  A    between atoms: C8_15  and  C9_16 
REMARK    8  A    between atoms: C9_16  and  C10_17 
REMARK    9  A    between atoms: C9_16  and  N4_19 
REMARK       I    between atoms: N4_19  and  C11_21 
REMARK   10  A    between atoms: C11_21  and  C12_23 
REMARK       I    between atoms: C12_23  and  N5_25 
REMARK   11  A    between atoms: N5_25  and  C13_27 
REMARK   12  A    between atoms: C13_27  and  C14_28 
REMARK   13  A    between atoms: C14_28  and  N6_29 
REMARK   14  A    between atoms: C14_28  and  C16_33 
REMARK   15  A    between atoms: N6_29  and  C15_31 
REMARK       I    between atoms: C16_33  and  N7_35 
REMARK   16  A    between atoms: N7_35  and  C17_37 
REMARK   17  A    between atoms: C17_37  and  C18_38 
REMARK       I    between atoms: C18_38  and  N8_40 
REMARK   18  A    between atoms: N8_40  and  C19_42 
REMARK   19  A    between atoms: C19_42  and  C20_43 
REMARK   20  A    between atoms: C20_43  and  C21_44 
ROOT
HETATM    1  C13 UNL     1     -12.198  14.543  27.281  1.00  0.00     0.158 C 
ENDROOT
BRANCH   1   2
HETATM    2  N5  UNL     1     -11.383  15.732  27.244  1.00  0.00    -0.350 N 
HETATM    3  C12 UNL     1      -9.982  15.592  27.260  1.00  0.00     0.309 C 
HETATM    4  O3  UNL     1      -9.449  14.444  27.306  1.00  0.00    -0.262 OA
ATOM      5  H5  UNL     1     -11.813  16.656  27.208  1.00  0.00     0.162 HD
BRANCH   3   6
HETATM    6  C11 UNL     1      -9.140  16.808  27.222  1.00  0.00     0.309 C 
HETATM    7  N4  UNL     1      -7.855  16.696  26.699  1.00  0.00    -0.342 N 
ATOM      8  H4  UNL     1      -7.620  15.760  26.368  1.00  0.00     0.163 HD
HETATM    9  O2  UNL     1      -9.665  17.848  27.670  1.00  0.00    -0.262 OA
BRANCH   7  10
HETATM   10  C9  UNL     1      -6.796  17.656  26.539  1.00  0.00     0.152 C 
BRANCH  10  11
HETATM   11  C8  UNL     1      -5.932  17.362  25.324  1.00  0.00     0.091 C 
BRANCH  11  12
HETATM   12  C7  UNL     1      -5.844  18.521  24.418  1.00  0.00     0.032 A 
HETATM   13  N2  UNL     1      -6.586  18.658  23.301  1.00  0.00    -0.297 N 
HETATM   14  N3  UNL     1      -6.240  19.792  22.714  1.00  0.00    -0.310 N 
HETATM   15  C5  UNL     1      -5.277  20.408  23.429  1.00  0.00     0.109 A 
ATOM     16  H3  UNL     1      -6.643  20.148  21.847  1.00  0.00     0.186 HD
HETATM   17  C6  UNL     1      -4.997  19.629  24.523  1.00  0.00     0.045 A 
BRANCH  13  18
HETATM   18  C4  UNL     1      -7.595  17.694  22.839  1.00  0.00     0.149 C 
BRANCH  18  19
HETATM   19  C3  UNL     1      -7.617  17.634  21.346  1.00  0.00     0.023 C 
BRANCH  19  20
HETATM   20  C2  UNL     1      -8.953  17.417  20.724  1.00  0.00     0.029 C 
BRANCH  20  21
HETATM   21  C1  UNL     1      -9.735  16.276  21.308  1.00  0.00     0.229 C 
BRANCH  21  22
HETATM   22  N1  UNL     1     -10.776  15.897  20.369  1.00  0.00    -0.079 N 
ATOM     23  H13 UNL     1     -10.731  14.911  20.113  1.00  0.00     0.274 HD
ATOM     24  H12 UNL     1     -11.703  15.889  20.796  1.00  0.00     0.274 HD
ATOM     25  H11 UNL     1     -10.724  16.514  19.559  1.00  0.00     0.274 HD
ENDBRANCH  21  22
ENDBRANCH  20  21
ENDBRANCH  19  20
ENDBRANCH  18  19
ENDBRANCH  13  18
ENDBRANCH  11  12
ENDBRANCH  10  11
BRANCH  10  26
HETATM   26  C10 UNL     1      -5.954  17.545  27.749  1.00  0.00     0.256 C 
HETATM   27  O1  UNL     1      -5.084  16.707  27.891  1.00  0.00    -0.305 OA
ENDBRANCH  10  26
ENDBRANCH   7  10
ENDBRANCH   3   6
ENDBRANCH   1   2
BRANCH   1  28
HETATM   28  C14 UNL     1     -13.409  14.649  28.143  1.00  0.00     0.193 C 
BRANCH  28  29
HETATM   29  N6  UNL     1     -14.646  14.298  27.519  1.00  0.00    -0.353 N 
ATOM     30  H6  UNL     1     -15.511  14.655  27.924  1.00  0.00     0.162 HD
BRANCH  29  31
HETATM   31  C15 UNL     1     -14.733  13.478  26.362  1.00  0.00     0.349 C 
HETATM   32  O4  UNL     1     -14.467  12.266  26.409  1.00  0.00    -0.284 OA
ENDBRANCH  29  31
ENDBRANCH  28  29
BRANCH  28  33
HETATM   33  C16 UNL     1     -13.191  13.801  29.363  1.00  0.00     0.242 C 
HETATM   34  O5  UNL     1     -12.011  13.414  29.621  1.00  0.00    -0.271 OA
HETATM   35  N7  UNL     1     -14.250  13.419  30.227  1.00  0.00    -0.350 N 
ATOM     36  H7  UNL     1     -15.197  13.737  30.026  1.00  0.00     0.163 HD
BRANCH  35  37
HETATM   37  C17 UNL     1     -14.020  12.607  31.360  1.00  0.00     0.225 C 
BRANCH  37  38
HETATM   38  C18 UNL     1     -13.870  13.313  32.674  1.00  0.00     0.238 C 
HETATM   39  O6  UNL     1     -14.813  14.162  32.861  1.00  0.00    -0.271 OA
HETATM   40  N8  UNL     1     -12.831  13.048  33.548  1.00  0.00    -0.339 N 
ATOM     41  H8  UNL     1     -12.188  12.337  33.201  1.00  0.00     0.167 HD
BRANCH  40  42
HETATM   42  C19 UNL     1     -12.472  13.547  34.812  1.00  0.00     0.068 C 
BRANCH  42  43
HETATM   43  C20 UNL     1     -12.161  14.969  34.988  1.00  0.00     0.085 C 
BRANCH  43  44
HETATM   44  C21 UNL     1     -10.850  15.444  34.591  1.00  0.00    -0.025 A 
HETATM   45  C22 UNL     1      -9.710  15.611  35.393  1.00  0.00     0.096 A 
HETATM   46  N9  UNL     1      -8.707  16.002  34.606  1.00  0.00    -0.365 N 
HETATM   47  C23 UNL     1      -9.105  16.107  33.330  1.00  0.00     0.042 A 
ATOM     48  H9  UNL     1      -7.760  16.196  34.932  1.00  0.00     0.165 HD
HETATM   49  C24 UNL     1      -8.401  16.477  32.181  1.00  0.00     0.030 A 
HETATM   50  C28 UNL     1     -10.422  15.768  33.302  1.00  0.00    -0.002 A 
HETATM   51  C25 UNL     1      -9.072  16.497  30.978  1.00  0.00     0.002 A 
HETATM   52  C26 UNL     1     -10.408  16.153  30.947  1.00  0.00     0.001 A 
HETATM   53  C27 UNL     1     -11.087  15.792  32.083  1.00  0.00     0.014 A 
ENDBRANCH  43  44
ENDBRANCH  42  43
ENDBRANCH  40  42
ENDBRANCH  37  38
ENDBRANCH  35  37
ENDBRANCH  28  33
ENDBRANCH   1  28
TORSDOF 20
ENDMDL
MODEL 3
REMARK VINA RESULT: -8.355915750      1.743      1.967
REMARK  20 active torsions:
REMARK  status: ('A' for Active; 'I' for Inactive)
REMARK    1  A    between atoms: N1_1  and  C1_5 
REMARK    2  A    between atoms: C1_5  and  C2_6 
REMARK    3  A    between atoms: C2_6  and  C3_7 
REMARK    4  A    between atoms: C3_7  and  C4_8 
REMARK    5  A    between atoms: C4_8  and  N2_9 
REMARK    6  A    between atoms: C7_14  and  C8_15 
REMARK    7  A    between atoms: C8_15  and  C9_16 
REMARK    8  A    between atoms: C9_16  and  C10_17 
REMARK    9  A    between atoms: C9_16  and  N4_19 
REMARK       I    between atoms: N4_19  and  C11_21 
REMARK   10  A    between atoms: C11_21  and  C12_23 
REMARK       I    between atoms: C12_23  and  N5_25 
REMARK   11  A    between atoms: N5_25  and  C13_27 
REMARK   12  A    between atoms: C13_27  and  C14_28 
REMARK   13  A    between atoms: C14_28  and  N6_29 
REMARK   14  A    between atoms: C14_28  and  C16_33 
REMARK   15  A    between atoms: N6_29  and  C15_31 
REMARK       I    between atoms: C16_33  and  N7_35 
REMARK   16  A    between atoms: N7_35  and  C17_37 
REMARK   17  A    between atoms: C17_37  and  C18_38 
REMARK       I    between atoms: C18_38  and  N8_40 
REMARK   18  A    between atoms: N8_40  and  C19_42 
REMARK   19  A    between atoms: C19_42  and  C20_43 
REMARK   20  A    between atoms: C20_43  and  C21_44 
ROOT
HETATM    1  C13 UNL     1     -11.498  14.778  26.905  1.00  0.00     0.158 C 
ENDROOT
BRANCH   1   2
HETATM    2  N5  UNL     1     -10.983  15.708  25.932  1.00  0.00    -0.350 N 
HETATM    3  C12 UNL     1      -9.617  15.650  25.597  1.00  0.00     0.309 C 
HETATM    4  O3  UNL     1      -8.856  14.797  26.142  1.00  0.00    -0.262 OA
ATOM      5  H5  UNL     1     -11.597  16.395  25.494  1.00  0.00     0.162 HD
BRANCH   3   6
HETATM    6  C11 UNL     1      -9.082  16.603  24.599  1.00  0.00     0.309 C 
HETATM    7  N4  UNL     1      -8.612  16.089  23.393  1.00  0.00    -0.342 N 
ATOM      8  H4  UNL     1      -8.701  15.077  23.309  1.00  0.00     0.163 HD
HETATM    9  O2  UNL     1      -9.101  17.806  24.930  1.00  0.00    -0.262 OA
BRANCH   7  10
HETATM   10  C9  UNL     1      -8.023  16.723  22.244  1.00  0.00     0.152 C 
BRANCH  10  11
HETATM   11  C8  UNL     1      -7.317  18.019  22.601  1.00  0.00     0.091 C 
BRANCH  11  12
HETATM   12  C7  UNL     1      -5.851  17.880  22.546  1.00  0.00     0.032 A 
HETATM   13  N2  UNL     1      -5.062  17.819  23.637  1.00  0.00    -0.297 N 
HETATM   14  N3  UNL     1      -3.806  17.721  23.231  1.00  0.00    -0.310 N 
HETATM   15  C5  UNL     1      -3.754  17.717  21.884  1.00  0.00     0.109 A 
ATOM     16  H3  UNL     1      -2.996  17.658  23.848  1.00  0.00     0.186 HD
HETATM   17  C6  UNL     1      -5.037  17.817  21.410  1.00  0.00     0.045 A 
BRANCH  13  18
HETATM   18  C4  UNL     1      -5.542  17.860  25.025  1.00  0.00     0.149 C 
BRANCH  18  19
HETATM   19  C3  UNL     1      -5.363  19.227  25.601  1.00  0.00     0.023 C 
BRANCH  19  20
HETATM   20  C2  UNL     1      -5.407  19.317  27.088  1.00  0.00     0.029 C 
BRANCH  20  21
HETATM   21  C1  UNL     1      -6.562  20.108  27.631  1.00  0.00     0.229 C 
BRANCH  21  22
HETATM   22  N1  UNL     1      -7.797  19.434  27.271  1.00  0.00    -0.079 N 
ATOM     23  H13 UNL     1      -8.072  19.611  26.305  1.00  0.00     0.274 HD
ATOM     24  H12 UNL     1      -7.685  18.423  27.201  1.00  0.00     0.274 HD
ATOM     25  H11 UNL     1      -8.521  19.702  27.938  1.00  0.00     0.274 HD
ENDBRANCH  21  22
ENDBRANCH  20  21
ENDBRANCH  19  20
ENDBRANCH  18  19
ENDBRANCH  13  18
ENDBRANCH  11  12
ENDBRANCH  10  11
BRANCH  10  26
HETATM   26  C10 UNL     1      -9.142  17.036  21.330  1.00  0.00     0.256 C 
HETATM   27  O1  UNL     1      -9.119  17.946  20.523  1.00  0.00    -0.305 OA
ENDBRANCH  10  26
ENDBRANCH   7  10
ENDBRANCH   3   6
ENDBRANCH   1   2
BRANCH   1  28
HETATM   28  C14 UNL     1     -11.655  15.339  28.276  1.00  0.00     0.193 C 
BRANCH  28  29
HETATM   29  N6  UNL     1     -11.898  16.746  28.344  1.00  0.00    -0.353 N 
ATOM     30  H6  UNL     1     -12.844  17.083  28.164  1.00  0.00     0.162 HD
BRANCH  29  31
HETATM   31  C15 UNL     1     -10.891  17.700  28.650  1.00  0.00     0.349 C 
HETATM   32  O4  UNL     1      -9.708  17.518  28.319  1.00  0.00    -0.284 OA
ENDBRANCH  29  31
ENDBRANCH  28  29
BRANCH  28  33
HETATM   33  C16 UNL     1     -12.763  14.593  28.964  1.00  0.00     0.242 C 
HETATM   34  O5  UNL     1     -12.528  13.417  29.376  1.00  0.00    -0.271 OA
HETATM   35  N7  UNL     1     -14.052  15.153  29.164  1.00  0.00    -0.350 N 
ATOM     36  H7  UNL     1     -14.239  16.102  28.842  1.00  0.00     0.163 HD
BRANCH  35  37
HETATM   37  C17 UNL     1     -15.081  14.424  29.799  1.00  0.00     0.225 C 
BRANCH  37  38
HETATM   38  C18 UNL     1     -15.157  14.533  31.292  1.00  0.00     0.238 C 
HETATM   39  O6  UNL     1     -16.317  14.925  31.677  1.00  0.00    -0.271 OA
HETATM   40  N8  UNL     1     -14.088  14.232  32.118  1.00  0.00    -0.339 N 
ATOM     41  H8  UNL     1     -13.256  13.941  31.605  1.00  0.00     0.167 HD
BRANCH  40  42
HETATM   42  C19 UNL     1     -13.902  14.241  33.511  1.00  0.00     0.068 C 
BRANCH  42  43
HETATM   43  C20 UNL     1     -12.627  13.810  34.092  1.00  0.00     0.085 C 
BRANCH  43  44
HETATM   44  C21 UNL     1     -11.594  14.804  34.306  1.00  0.00    -0.025 A 
HETATM   45  C22 UNL     1     -11.242  15.444  35.505  1.00  0.00     0.096 A 
HETATM   46  N9  UNL     1     -10.193  16.230  35.260  1.00  0.00    -0.365 N 
HETATM   47  C23 UNL     1      -9.822  16.156  33.973  1.00  0.00     0.042 A 
ATOM     48  H9  UNL     1      -9.732  16.811  35.960  1.00  0.00     0.165 HD
HETATM   49  C24 UNL     1      -8.789  16.795  33.282  1.00  0.00     0.030 A 
HETATM   50  C28 UNL     1     -10.674  15.283  33.371  1.00  0.00    -0.002 A 
HETATM   51  C25 UNL     1      -8.633  16.526  31.940  1.00  0.00     0.002 A 
HETATM   52  C26 UNL     1      -9.496  15.641  31.326  1.00  0.00     0.001 A 
HETATM   53  C27 UNL     1     -10.506  15.021  32.017  1.00  0.00     0.014 A 
ENDBRANCH  43  44
ENDBRANCH  42  43
ENDBRANCH  40  42
ENDBRANCH  37  38
ENDBRANCH  35  37
ENDBRANCH  28  33
ENDBRANCH   1  28
TORSDOF 20
ENDMDL
MODEL 4
REMARK VINA RESULT: -8.268985486      1.814      2.843
REMARK  20 active torsions:
REMARK  status: ('A' for Active; 'I' for Inactive)
REMARK    1  A    between atoms: N1_1  and  C1_5 
REMARK    2  A    between atoms: C1_5  and  C2_6 
REMARK    3  A    between atoms: C2_6  and  C3_7 
REMARK    4  A    between atoms: C3_7  and  C4_8 
REMARK    5  A    between atoms: C4_8  and  N2_9 
REMARK    6  A    between atoms: C7_14  and  C8_15 
REMARK    7  A    between atoms: C8_15  and  C9_16 
REMARK    8  A    between atoms: C9_16  and  C10_17 
REMARK    9  A    between atoms: C9_16  and  N4_19 
REMARK       I    between atoms: N4_19  and  C11_21 
REMARK   10  A    between atoms: C11_21  and  C12_23 
REMARK       I    between atoms: C12_23  and  N5_25 
REMARK   11  A    between atoms: N5_25  and  C13_27 
REMARK   12  A    between atoms: C13_27  and  C14_28 
REMARK   13  A    between atoms: C14_28  and  N6_29 
REMARK   14  A    between atoms: C14_28  and  C16_33 
REMARK   15  A    between atoms: N6_29  and  C15_31 
REMARK       I    between atoms: C16_33  and  N7_35 
REMARK   16  A    between atoms: N7_35  and  C17_37 
REMARK   17  A    between atoms: C17_37  and  C18_38 
REMARK       I    between atoms: C18_38  and  N8_40 
REMARK   18  A    between atoms: N8_40  and  C19_42 
REMARK   19  A    between atoms: C19_42  and  C20_43 
REMARK   20  A    between atoms: C20_43  and  C21_44 
ROOT
HETATM    1  C13 UNL     1     -12.265  16.031  28.170  1.00  0.00     0.158 C 
ENDROOT
BRANCH   1   2
HETATM    2  N5  UNL     1     -11.155  15.694  27.315  1.00  0.00    -0.350 N 
HETATM    3  C12 UNL     1     -10.122  16.636  27.143  1.00  0.00     0.309 C 
HETATM    4  O3  UNL     1     -10.170  17.758  27.729  1.00  0.00    -0.262 OA
ATOM      5  H5  UNL     1     -11.118  14.790  26.843  1.00  0.00     0.162 HD
BRANCH   3   6
HETATM    6  C11 UNL     1      -8.980  16.296  26.267  1.00  0.00     0.309 C 
HETATM    7  N4  UNL     1      -8.859  16.976  25.058  1.00  0.00    -0.342 N 
ATOM      8  H4  UNL     1      -9.584  17.675  24.900  1.00  0.00     0.163 HD
HETATM    9  O2  UNL     1      -8.208  15.414  26.696  1.00  0.00    -0.262 OA
BRANCH   7  10
HETATM   10  C9  UNL     1      -7.900  16.876  23.991  1.00  0.00     0.152 C 
BRANCH  10  11
HETATM   11  C8  UNL     1      -7.146  18.176  23.771  1.00  0.00     0.091 C 
BRANCH  11  12
HETATM   12  C7  UNL     1      -5.776  17.942  23.282  1.00  0.00     0.032 A 
HETATM   13  N2  UNL     1      -4.724  17.693  24.088  1.00  0.00    -0.297 N 
HETATM   14  N3  UNL     1      -3.649  17.558  23.330  1.00  0.00    -0.310 N 
HETATM   15  C5  UNL     1      -3.975  17.713  22.032  1.00  0.00     0.109 A 
ATOM     16  H3  UNL     1      -2.710  17.363  23.678  1.00  0.00     0.186 HD
HETATM   17  C6  UNL     1      -5.322  17.960  21.959  1.00  0.00     0.045 A 
BRANCH  13  18
HETATM   18  C4  UNL     1      -4.792  17.599  25.553  1.00  0.00     0.149 C 
BRANCH  18  19
HETATM   19  C3  UNL     1      -4.352  18.882  26.182  1.00  0.00     0.023 C 
BRANCH  19  20
HETATM   20  C2  UNL     1      -5.404  19.640  26.914  1.00  0.00     0.029 C 
BRANCH  20  21
HETATM   21  C1  UNL     1      -6.531  18.798  27.437  1.00  0.00     0.229 C 
BRANCH  21  22
HETATM   22  N1  UNL     1      -7.742  19.599  27.453  1.00  0.00    -0.079 N 
ATOM     23  H13 UNL     1      -7.839  20.144  28.310  1.00  0.00     0.274 HD
ATOM     24  H12 UNL     1      -7.704  20.377  26.795  1.00  0.00     0.274 HD
ATOM     25  H11 UNL     1      -8.541  18.987  27.288  1.00  0.00     0.274 HD
ENDBRANCH  21  22
ENDBRANCH  20  21
ENDBRANCH  19  20
ENDBRANCH  18  19
ENDBRANCH  13  18
ENDBRANCH  11  12
ENDBRANCH  10  11
BRANCH  10  26
HETATM   26  C10 UNL     1      -8.675  16.572  22.769  1.00  0.00     0.256 C 
HETATM   27  O1  UNL     1      -8.500  15.578  22.090  1.00  0.00    -0.305 OA
ENDBRANCH  10  26
ENDBRANCH   7  10
ENDBRANCH   3   6
ENDBRANCH   1   2
BRANCH   1  28
HETATM   28  C14 UNL     1     -13.397  15.062  28.126  1.00  0.00     0.193 C 
BRANCH  28  29
HETATM   29  N6  UNL     1     -13.534  14.327  26.908  1.00  0.00    -0.353 N 
ATOM     30  H6  UNL     1     -12.841  14.471  26.175  1.00  0.00     0.162 HD
BRANCH  29  31
HETATM   31  C15 UNL     1     -14.587  13.404  26.666  1.00  0.00     0.349 C 
HETATM   32  O4  UNL     1     -14.354  12.213  26.408  1.00  0.00    -0.284 OA
ENDBRANCH  29  31
ENDBRANCH  28  29
BRANCH  28  33
HETATM   33  C16 UNL     1     -13.249  14.116  29.283  1.00  0.00     0.242 C 
HETATM   34  O5  UNL     1     -12.112  13.593  29.489  1.00  0.00    -0.271 OA
HETATM   35  N7  UNL     1     -14.328  13.789  30.145  1.00  0.00    -0.350 N 
ATOM     36  H7  UNL     1     -15.240  14.216  29.987  1.00  0.00     0.163 HD
BRANCH  35  37
HETATM   37  C17 UNL     1     -14.166  12.884  31.217  1.00  0.00     0.225 C 
BRANCH  37  38
HETATM   38  C18 UNL     1     -13.952  13.482  32.575  1.00  0.00     0.238 C 
HETATM   39  O6  UNL     1     -14.845  14.364  32.846  1.00  0.00    -0.271 OA
HETATM   40  N8  UNL     1     -12.912  13.100  33.404  1.00  0.00    -0.339 N 
ATOM     41  H8  UNL     1     -12.315  12.383  32.991  1.00  0.00     0.167 HD
BRANCH  40  42
HETATM   42  C19 UNL     1     -12.502  13.485  34.692  1.00  0.00     0.068 C 
BRANCH  42  43
HETATM   43  C20 UNL     1     -12.206  14.890  34.988  1.00  0.00     0.085 C 
BRANCH  43  44
HETATM   44  C21 UNL     1     -10.886  15.398  34.677  1.00  0.00    -0.025 A 
HETATM   45  C22 UNL     1      -9.802  15.586  35.550  1.00  0.00     0.096 A 
HETATM   46  N9  UNL     1      -8.761  16.006  34.830  1.00  0.00    -0.365 N 
HETATM   47  C23 UNL     1      -9.081  16.112  33.532  1.00  0.00     0.042 A 
ATOM     48  H9  UNL     1      -7.842  16.220  35.216  1.00  0.00     0.165 HD
HETATM   49  C24 UNL     1      -8.315  16.507  32.432  1.00  0.00     0.030 A 
HETATM   50  C28 UNL     1     -10.385  15.742  33.420  1.00  0.00    -0.002 A 
HETATM   51  C25 UNL     1      -8.910  16.520  31.190  1.00  0.00     0.002 A 
HETATM   52  C26 UNL     1     -10.233  16.145  31.072  1.00  0.00     0.001 A 
HETATM   53  C27 UNL     1     -10.973  15.760  32.161  1.00  0.00     0.014 A 
ENDBRANCH  43  44
ENDBRANCH  42  43
ENDBRANCH  40  42
ENDBRANCH  37  38
ENDBRANCH  35  37
ENDBRANCH  28  33
ENDBRANCH   1  28
TORSDOF 20
ENDMDL
MODEL 5
REMARK VINA RESULT: -8.214805403      2.201     11.015
REMARK  20 active torsions:
REMARK  status: ('A' for Active; 'I' for Inactive)
REMARK    1  A    between atoms: N1_1  and  C1_5 
REMARK    2  A    between atoms: C1_5  and  C2_6 
REMARK    3  A    between atoms: C2_6  and  C3_7 
REMARK    4  A    between atoms: C3_7  and  C4_8 
REMARK    5  A    between atoms: C4_8  and  N2_9 
REMARK    6  A    between atoms: C7_14  and  C8_15 
REMARK    7  A    between atoms: C8_15  and  C9_16 
REMARK    8  A    between atoms: C9_16  and  C10_17 
REMARK    9  A    between atoms: C9_16  and  N4_19 
REMARK       I    between atoms: N4_19  and  C11_21 
REMARK   10  A    between atoms: C11_21  and  C12_23 
REMARK       I    between atoms: C12_23  and  N5_25 
REMARK   11  A    between atoms: N5_25  and  C13_27 
REMARK   12  A    between atoms: C13_27  and  C14_28 
REMARK   13  A    between atoms: C14_28  and  N6_29 
REMARK   14  A    between atoms: C14_28  and  C16_33 
REMARK   15  A    between atoms: N6_29  and  C15_31 
REMARK       I    between atoms: C16_33  and  N7_35 
REMARK   16  A    between atoms: N7_35  and  C17_37 
REMARK   17  A    between atoms: C17_37  and  C18_38 
REMARK       I    between atoms: C18_38  and  N8_40 
REMARK   18  A    between atoms: N8_40  and  C19_42 
REMARK   19  A    between atoms: C19_42  and  C20_43 
REMARK   20  A    between atoms: C20_43  and  C21_44 
ROOT
HETATM    1  C13 UNL     1      -7.943  17.406  29.704  1.00  0.00     0.158 C 
ENDROOT
BRANCH   1   2
HETATM    2  N5  UNL     1      -8.701  16.374  30.366  1.00  0.00    -0.350 N 
HETATM    3  C12 UNL     1     -10.100  16.511  30.450  1.00  0.00     0.309 C 
HETATM    4  O3  UNL     1     -10.680  17.522  29.954  1.00  0.00    -0.262 OA
ATOM      5  H5  UNL     1      -8.233  15.561  30.766  1.00  0.00     0.162 HD
BRANCH   3   6
HETATM    6  C11 UNL     1     -10.885  15.455  31.128  1.00  0.00     0.309 C 
HETATM    7  N4  UNL     1     -11.236  15.656  32.459  1.00  0.00    -0.342 N 
ATOM      8  H4  UNL     1     -10.922  16.547  32.843  1.00  0.00     0.163 HD
HETATM    9  O2  UNL     1     -11.170  14.459  30.433  1.00  0.00    -0.262 OA
BRANCH   7  10
HETATM   10  C9  UNL     1     -11.961  14.839  33.395  1.00  0.00     0.152 C 
BRANCH  10  11
HETATM   11  C8  UNL     1     -13.460  14.877  33.151  1.00  0.00     0.091 C 
BRANCH  11  12
HETATM   12  C7  UNL     1     -13.974  13.577  32.687  1.00  0.00     0.032 A 
HETATM   13  N2  UNL     1     -14.463  13.362  31.449  1.00  0.00    -0.297 N 
HETATM   14  N3  UNL     1     -14.859  12.102  31.377  1.00  0.00    -0.310 N 
HETATM   15  C5  UNL     1     -14.639  11.479  32.552  1.00  0.00     0.109 A 
ATOM     16  H3  UNL     1     -15.270  11.665  30.551  1.00  0.00     0.186 HD
HETATM   17  C6  UNL     1     -14.076  12.386  33.414  1.00  0.00     0.045 A 
BRANCH  13  18
HETATM   18  C4  UNL     1     -14.533  14.374  30.386  1.00  0.00     0.149 C 
BRANCH  18  19
HETATM   19  C3  UNL     1     -14.112  13.790  29.077  1.00  0.00     0.023 C 
BRANCH  19  20
HETATM   20  C2  UNL     1     -14.346  14.644  27.879  1.00  0.00     0.029 C 
BRANCH  20  21
HETATM   21  C1  UNL     1     -13.096  15.163  27.228  1.00  0.00     0.229 C 
BRANCH  21  22
HETATM   22  N1  UNL     1     -12.600  16.285  28.005  1.00  0.00    -0.079 N 
ATOM     23  H13 UNL     1     -13.145  17.134  27.857  1.00  0.00     0.274 HD
ATOM     24  H12 UNL     1     -12.776  16.178  29.004  1.00  0.00     0.274 HD
ATOM     25  H11 UNL     1     -11.610  16.415  27.794  1.00  0.00     0.274 HD
ENDBRANCH  21  22
ENDBRANCH  20  21
ENDBRANCH  19  20
ENDBRANCH  18  19
ENDBRANCH  13  18
ENDBRANCH  11  12
ENDBRANCH  10  11
BRANCH  10  26
HETATM   26  C10 UNL     1     -11.691  15.408  34.733  1.00  0.00     0.256 C 
HETATM   27  O1  UNL     1     -11.072  16.440  34.914  1.00  0.00    -0.305 OA
ENDBRANCH  10  26
ENDBRANCH   7  10
ENDBRANCH   3   6
ENDBRANCH   1   2
BRANCH   1  28
HETATM   28  C14 UNL     1      -7.965  17.333  28.216  1.00  0.00     0.193 C 
BRANCH  28  29
HETATM   29  N6  UNL     1      -8.908  18.189  27.568  1.00  0.00    -0.353 N 
ATOM     30  H6  UNL     1      -9.015  19.141  27.916  1.00  0.00     0.162 HD
BRANCH  29  31
HETATM   31  C15 UNL     1      -9.706  17.782  26.466  1.00  0.00     0.349 C 
HETATM   32  O4  UNL     1      -9.939  16.582  26.246  1.00  0.00    -0.284 OA
ENDBRANCH  29  31
ENDBRANCH  28  29
BRANCH  28  33
HETATM   33  C16 UNL     1      -6.579  17.622  27.713  1.00  0.00     0.242 C 
HETATM   34  O5  UNL     1      -5.781  16.648  27.561  1.00  0.00    -0.271 OA
HETATM   35  N7  UNL     1      -6.136  18.935  27.407  1.00  0.00    -0.350 N 
ATOM     36  H7  UNL     1      -6.780  19.717  27.519  1.00  0.00     0.163 HD
BRANCH  35  37
HETATM   37  C17 UNL     1      -4.823  19.181  26.949  1.00  0.00     0.225 C 
BRANCH  37  38
HETATM   38  C18 UNL     1      -4.596  19.079  25.471  1.00  0.00     0.238 C 
HETATM   39  O6  UNL     1      -3.439  18.592  25.206  1.00  0.00    -0.271 OA
HETATM   40  N8  UNL     1      -5.544  19.469  24.542  1.00  0.00    -0.339 N 
ATOM     41  H8  UNL     1      -6.396  19.833  24.969  1.00  0.00     0.167 HD
BRANCH  40  42
HETATM   42  C19 UNL     1      -5.587  19.471  23.137  1.00  0.00     0.068 C 
BRANCH  42  43
HETATM   43  C20 UNL     1      -6.774  18.979  22.430  1.00  0.00     0.085 C 
BRANCH  43  44
HETATM   44  C21 UNL     1      -7.331  17.700  22.821  1.00  0.00    -0.025 A 
HETATM   45  C22 UNL     1      -7.114  16.987  24.010  1.00  0.00     0.096 A 
HETATM   46  N9  UNL     1      -7.879  15.895  23.982  1.00  0.00    -0.365 N 
HETATM   47  C23 UNL     1      -8.594  15.834  22.848  1.00  0.00     0.042 A 
ATOM     48  H9  UNL     1      -7.917  15.198  24.725  1.00  0.00     0.165 HD
HETATM   49  C24 UNL     1      -9.514  14.883  22.399  1.00  0.00     0.030 A 
HETATM   50  C28 UNL     1      -8.268  16.936  22.121  1.00  0.00    -0.002 A 
HETATM   51  C25 UNL     1     -10.111  15.076  21.173  1.00  0.00     0.002 A 
HETATM   52  C26 UNL     1      -9.783  16.194  20.433  1.00  0.00     0.001 A 
HETATM   53  C27 UNL     1      -8.877  17.119  20.886  1.00  0.00     0.014 A 
ENDBRANCH  43  44
ENDBRANCH  42  43
ENDBRANCH  40  42
ENDBRANCH  37  38
ENDBRANCH  35  37
ENDBRANCH  28  33
ENDBRANCH   1  28
TORSDOF 20
ENDMDL
