MODEL 1
REMARK VINA RESULT: -8.050799908      0.000      0.000
REMARK  21 active torsions:
REMARK  status: ('A' for Active; 'I' for Inactive)
REMARK       I    between atoms: C2_4  and  N2_5 
REMARK       I    between atoms: C2_4  and  N8_45 
REMARK    1  A    between atoms: N2_5  and  C3_7 
REMARK    2  A    between atoms: C3_7  and  C4_8 
REMARK    3  A    between atoms: C4_8  and  C5_9 
REMARK    4  A    between atoms: C5_9  and  C6_10 
REMARK    5  A    between atoms: C6_10  and  C7_11 
REMARK    6  A    between atoms: C7_11  and  C8_12 
REMARK       I    between atoms: C8_12  and  N3_14 
REMARK    7  A    between atoms: N3_14  and  C9_15 
REMARK    8  A    between atoms: C9_15  and  C10_16 
REMARK       I    between atoms: C10_16  and  N4_18 
REMARK    9  A    between atoms: N4_18  and  C11_20 
REMARK   10  A    between atoms: C12_21  and  O3_22 
REMARK   11  A    between atoms: C12_21  and  N5_24 
REMARK   12  A    between atoms: N5_24  and  C13_26 
REMARK   13  A    between atoms: C13_26  and  C14_27 
REMARK   14  A    between atoms: C14_27  and  C15_28 
REMARK   15  A    between atoms: C15_28  and  C16_29 
REMARK       I    between atoms: C16_29  and  N6_31 
REMARK   16  A    between atoms: N6_31  and  C17_33 
REMARK   17  A    between atoms: C17_33  and  C18_34 
REMARK       I    between atoms: C18_34  and  N7_36 
REMARK   18  A    between atoms: N7_36  and  C19_38 
REMARK   19  A    between atoms: C19_38  and  C20_39 
REMARK   20  A    between atoms: N8_45  and  C26_47 
REMARK   21  A    between atoms: C26_47  and  C27_48 
ROOT
HETATM    1  C27 UNL     1      -5.492  18.465  23.943  1.00  0.00     0.304 C 
HETATM    2  O6  UNL     1      -4.915  17.486  24.523  1.00  0.00    -0.256 OA
HETATM    3  N9  UNL     1      -5.266  19.760  24.074  1.00  0.00    -0.419 NA
HETATM    4  C28 UNL     1      -4.999  21.142  24.235  1.00  0.00     0.263 C 
ENDROOT
BRANCH   1   5
HETATM    5  C26 UNL     1      -6.558  17.912  22.942  1.00  0.00     0.256 C 
BRANCH   5   6
HETATM    6  N8  UNL     1      -7.232  16.862  23.640  1.00  0.00    -0.216 N 
HETATM    7  C2  UNL     1      -8.275  16.104  23.161  1.00  0.00     0.673 C 
HETATM    8  N1  UNL     1      -8.229  15.090  22.337  1.00  0.00    -0.231 N 
HETATM    9  N2  UNL     1      -9.600  16.394  23.693  1.00  0.00    -0.206 N 
HETATM   10  C1  UNL     1      -9.520  14.373  22.080  1.00  0.00     0.165 C 
ATOM     11  H1  UNL     1      -7.358  14.801  21.891  1.00  0.00     0.177 HD
ATOM     12  H2  UNL     1     -10.394  16.420  23.054  1.00  0.00     0.183 HD
ATOM     13  H8  UNL     1      -6.908  16.655  24.584  1.00  0.00     0.178 HD
BRANCH   9  14
HETATM   14  C3  UNL     1      -9.817  16.639  25.059  1.00  0.00     0.079 C 
BRANCH  14  15
HETATM   15  C4  UNL     1     -10.365  15.492  25.824  1.00  0.00     0.045 C 
BRANCH  15  16
HETATM   16  C5  UNL     1     -11.641  15.617  26.577  1.00  0.00     0.006 C 
BRANCH  16  17
HETATM   17  C6  UNL     1     -12.380  14.401  26.968  1.00  0.00     0.011 C 
BRANCH  17  18
HETATM   18  C7  UNL     1     -13.546  14.534  27.825  1.00  0.00     0.119 C 
BRANCH  18  19
HETATM   19  C8  UNL     1     -13.339  13.707  29.158  1.00  0.00     0.286 C 
HETATM   20  O1  UNL     1     -12.484  12.771  29.040  1.00  0.00    -0.258 OA
HETATM   21  N3  UNL     1     -14.095  14.097  30.202  1.00  0.00    -0.406 NA
BRANCH  21  22
HETATM   22  C9  UNL     1     -14.831  14.412  31.373  1.00  0.00     0.324 C 
BRANCH  22  23
HETATM   23  C10 UNL     1     -14.583  13.390  32.445  1.00  0.00     0.252 C 
HETATM   24  O2  UNL     1     -15.467  12.440  32.439  1.00  0.00    -0.270 OA
HETATM   25  N4  UNL     1     -13.521  13.479  33.333  1.00  0.00    -0.331 N 
ATOM     26  H4  UNL     1     -12.924  14.279  33.124  1.00  0.00     0.168 HD
BRANCH  25  27
HETATM   27  C11 UNL     1     -13.045  12.754  34.453  1.00  0.00     0.146 C 
HETATM   28  C12 UNL     1     -11.897  13.169  35.231  1.00  0.00     0.151 C 
BRANCH  28  29
HETATM   29  O3  UNL     1     -11.742  12.578  36.405  1.00  0.00    -0.345 OA
ATOM     30  H3  UNL     1     -11.330  13.099  37.085  1.00  0.00     0.219 HD
ENDBRANCH  28  29
BRANCH  28  31
HETATM   31  N5  UNL     1     -10.900  14.086  34.983  1.00  0.00    -0.370 N 
ATOM     32  H5  UNL     1      -9.994  13.754  34.653  1.00  0.00     0.161 HD
BRANCH  31  33
HETATM   33  C13 UNL     1     -11.105  15.550  35.182  1.00  0.00     0.126 C 
BRANCH  33  34
HETATM   34  C14 UNL     1      -9.754  16.164  35.158  1.00  0.00     0.052 C 
BRANCH  34  35
HETATM   35  C15 UNL     1      -9.105  16.511  33.904  1.00  0.00     0.049 C 
BRANCH  35  36
HETATM   36  C16 UNL     1      -9.292  15.747  32.664  1.00  0.00     0.237 C 
HETATM   37  O4  UNL     1      -8.699  14.630  32.596  1.00  0.00    -0.269 OA
HETATM   38  N6  UNL     1     -10.101  16.237  31.652  1.00  0.00    -0.349 N 
ATOM     39  H6  UNL     1     -10.481  17.170  31.808  1.00  0.00     0.163 HD
BRANCH  38  40
HETATM   40  C17 UNL     1     -10.484  15.611  30.404  1.00  0.00     0.225 C 
BRANCH  40  41
HETATM   41  C18 UNL     1      -9.419  15.474  29.396  1.00  0.00     0.235 C 
HETATM   42  O5  UNL     1      -9.335  14.325  28.812  1.00  0.00    -0.272 OA
HETATM   43  N7  UNL     1      -8.544  16.502  29.031  1.00  0.00    -0.355 N 
ATOM     44  H7  UNL     1      -8.616  17.419  29.472  1.00  0.00     0.162 HD
BRANCH  43  45
HETATM   45  C19 UNL     1      -7.517  16.251  28.003  1.00  0.00     0.161 C 
BRANCH  45  46
HETATM   46  C20 UNL     1      -6.624  17.436  27.890  1.00  0.00    -0.041 A 
HETATM   47  C21 UNL     1      -5.274  17.284  27.984  1.00  0.00     0.009 A 
HETATM   48  C22 UNL     1      -4.488  18.427  27.819  1.00  0.00     0.001 A 
HETATM   49  C23 UNL     1      -5.050  19.656  27.573  1.00  0.00     0.000 A 
HETATM   50  C24 UNL     1      -6.423  19.773  27.484  1.00  0.00     0.001 A 
HETATM   51  C25 UNL     1      -7.226  18.669  27.637  1.00  0.00     0.009 A 
ENDBRANCH  45  46
ENDBRANCH  43  45
ENDBRANCH  40  41
ENDBRANCH  38  40
ENDBRANCH  35  36
ENDBRANCH  34  35
ENDBRANCH  33  34
ENDBRANCH  31  33
ENDBRANCH  28  31
ENDBRANCH  25  27
ENDBRANCH  22  23
ENDBRANCH  21  22
ENDBRANCH  18  19
ENDBRANCH  17  18
ENDBRANCH  16  17
ENDBRANCH  15  16
ENDBRANCH  14  15
ENDBRANCH   9  14
ENDBRANCH   5   6
ENDBRANCH   1   5
TORSDOF 20
ENDMDL
MODEL 2
REMARK VINA RESULT: -8.021265387      2.149      8.875
REMARK  21 active torsions:
REMARK  status: ('A' for Active; 'I' for Inactive)
REMARK       I    between atoms: C2_4  and  N2_5 
REMARK       I    between atoms: C2_4  and  N8_45 
REMARK    1  A    between atoms: N2_5  and  C3_7 
REMARK    2  A    between atoms: C3_7  and  C4_8 
REMARK    3  A    between atoms: C4_8  and  C5_9 
REMARK    4  A    between atoms: C5_9  and  C6_10 
REMARK    5  A    between atoms: C6_10  and  C7_11 
REMARK    6  A    between atoms: C7_11  and  C8_12 
REMARK       I    between atoms: C8_12  and  N3_14 
REMARK    7  A    between atoms: N3_14  and  C9_15 
REMARK    8  A    between atoms: C9_15  and  C10_16 
REMARK       I    between atoms: C10_16  and  N4_18 
REMARK    9  A    between atoms: N4_18  and  C11_20 
REMARK   10  A    between atoms: C12_21  and  O3_22 
REMARK   11  A    between atoms: C12_21  and  N5_24 
REMARK   12  A    between atoms: N5_24  and  C13_26 
REMARK   13  A    between atoms: C13_26  and  C14_27 
REMARK   14  A    between atoms: C14_27  and  C15_28 
REMARK   15  A    between atoms: C15_28  and  C16_29 
REMARK       I    between atoms: C16_29  and  N6_31 
REMARK   16  A    between atoms: N6_31  and  C17_33 
REMARK   17  A    between atoms: C17_33  and  C18_34 
REMARK       I    between atoms: C18_34  and  N7_36 
REMARK   18  A    between atoms: N7_36  and  C19_38 
REMARK   19  A    between atoms: C19_38  and  C20_39 
REMARK   20  A    between atoms: N8_45  and  C26_47 
REMARK   21  A    between atoms: C26_47  and  C27_48 
ROOT
HETATM    1  C27 UNL     1     -12.821  14.605  27.995  1.00  0.00     0.304 C 
HETATM    2  O6  UNL     1     -12.827  15.881  28.021  1.00  0.00    -0.256 OA
HETATM    3  N9  UNL     1     -13.567  13.785  27.277  1.00  0.00    -0.419 NA
HETATM    4  C28 UNL     1     -14.382  12.930  26.493  1.00  0.00     0.263 C 
ENDROOT
BRANCH   1   5
HETATM    5  C26 UNL     1     -11.707  14.078  28.957  1.00  0.00     0.256 C 
BRANCH   5   6
HETATM    6  N8  UNL     1     -12.395  13.596  30.113  1.00  0.00    -0.216 N 
HETATM    7  C2  UNL     1     -13.474  14.190  30.726  1.00  0.00     0.673 C 
HETATM    8  N1  UNL     1     -14.730  14.160  30.362  1.00  0.00    -0.231 N 
HETATM    9  N2  UNL     1     -13.223  14.872  31.988  1.00  0.00    -0.206 N 
HETATM   10  C1  UNL     1     -15.714  14.803  31.292  1.00  0.00     0.165 C 
ATOM     11  H1  UNL     1     -15.025  13.722  29.489  1.00  0.00     0.177 HD
ATOM     12  H2  UNL     1     -13.663  15.776  32.156  1.00  0.00     0.183 HD
ATOM     13  H8  UNL     1     -12.052  12.728  30.524  1.00  0.00     0.178 HD
BRANCH   9  14
HETATM   14  C3  UNL     1     -12.395  14.322  32.980  1.00  0.00     0.079 C 
BRANCH  14  15
HETATM   15  C4  UNL     1     -12.223  15.161  34.191  1.00  0.00     0.045 C 
BRANCH  15  16
HETATM   16  C5  UNL     1     -10.872  15.411  34.761  1.00  0.00     0.006 C 
BRANCH  16  17
HETATM   17  C6  UNL     1     -10.159  16.659  34.427  1.00  0.00     0.011 C 
BRANCH  17  18
HETATM   18  C7  UNL     1      -8.872  16.575  33.758  1.00  0.00     0.119 C 
BRANCH  18  19
HETATM   19  C8  UNL     1      -8.989  15.671  32.464  1.00  0.00     0.286 C 
HETATM   20  O1  UNL     1      -8.482  14.512  32.615  1.00  0.00    -0.258 OA
HETATM   21  N3  UNL     1      -9.583  16.253  31.406  1.00  0.00    -0.406 NA
BRANCH  21  22
HETATM   22  C9  UNL     1     -10.192  16.751  30.225  1.00  0.00     0.324 C 
BRANCH  22  23
HETATM   23  C10 UNL     1      -9.163  16.977  29.155  1.00  0.00     0.252 C 
HETATM   24  O2  UNL     1      -8.026  16.416  29.435  1.00  0.00    -0.270 OA
HETATM   25  N4  UNL     1      -9.423  17.712  28.008  1.00  0.00    -0.331 N 
ATOM     26  H4  UNL     1     -10.395  18.017  27.972  1.00  0.00     0.168 HD
BRANCH  25  27
HETATM   27  C11 UNL     1      -8.697  18.151  26.873  1.00  0.00     0.146 C 
HETATM   28  C12 UNL     1      -8.712  17.449  25.607  1.00  0.00     0.151 C 
BRANCH  28  29
HETATM   29  O3  UNL     1      -8.241  18.114  24.565  1.00  0.00    -0.345 OA
ATOM     30  H3  UNL     1      -8.061  17.600  23.787  1.00  0.00     0.219 HD
ENDBRANCH  28  29
BRANCH  28  31
HETATM   31  N5  UNL     1      -9.133  16.185  25.261  1.00  0.00    -0.370 N 
ATOM     32  H5  UNL     1      -9.992  15.819  25.673  1.00  0.00     0.161 HD
BRANCH  31  33
HETATM   33  C13 UNL     1      -8.373  15.333  24.302  1.00  0.00     0.126 C 
BRANCH  33  34
HETATM   34  C14 UNL     1      -9.302  15.038  23.182  1.00  0.00     0.052 C 
BRANCH  34  35
HETATM   35  C15 UNL     1      -9.628  16.047  22.188  1.00  0.00     0.049 C 
BRANCH  35  36
HETATM   36  C16 UNL     1      -8.614  16.756  21.398  1.00  0.00     0.237 C 
HETATM   37  O4  UNL     1      -9.002  17.793  20.785  1.00  0.00    -0.269 OA
HETATM   38  N6  UNL     1      -7.305  16.304  21.367  1.00  0.00    -0.349 N 
ATOM     39  H6  UNL     1      -7.133  15.429  21.862  1.00  0.00     0.163 HD
BRANCH  38  40
HETATM   40  C17 UNL     1      -6.148  16.896  20.731  1.00  0.00     0.225 C 
BRANCH  40  41
HETATM   41  C18 UNL     1      -5.338  17.796  21.572  1.00  0.00     0.235 C 
HETATM   42  O5  UNL     1      -4.194  18.148  21.087  1.00  0.00    -0.272 OA
HETATM   43  N7  UNL     1      -5.747  18.294  22.813  1.00  0.00    -0.355 N 
ATOM     44  H7  UNL     1      -6.658  18.036  23.194  1.00  0.00     0.162 HD
BRANCH  43  45
HETATM   45  C19 UNL     1      -4.854  19.193  23.565  1.00  0.00     0.161 C 
BRANCH  45  46
HETATM   46  C20 UNL     1      -4.968  18.906  25.021  1.00  0.00    -0.041 A 
HETATM   47  C21 UNL     1      -4.949  17.619  25.467  1.00  0.00     0.009 A 
HETATM   48  C22 UNL     1      -5.009  17.419  26.848  1.00  0.00     0.001 A 
HETATM   49  C23 UNL     1      -5.084  18.474  27.724  1.00  0.00     0.000 A 
HETATM   50  C24 UNL     1      -5.101  19.766  27.236  1.00  0.00     0.001 A 
HETATM   51  C25 UNL     1      -5.040  19.999  25.884  1.00  0.00     0.009 A 
ENDBRANCH  45  46
ENDBRANCH  43  45
ENDBRANCH  40  41
ENDBRANCH  38  40
ENDBRANCH  35  36
ENDBRANCH  34  35
ENDBRANCH  33  34
ENDBRANCH  31  33
ENDBRANCH  28  31
ENDBRANCH  25  27
ENDBRANCH  22  23
ENDBRANCH  21  22
ENDBRANCH  18  19
ENDBRANCH  17  18
ENDBRANCH  16  17
ENDBRANCH  15  16
ENDBRANCH  14  15
ENDBRANCH   9  14
ENDBRANCH   5   6
ENDBRANCH   1   5
TORSDOF 20
ENDMDL
MODEL 3
REMARK VINA RESULT: -7.882467152      2.490      9.828
REMARK  21 active torsions:
REMARK  status: ('A' for Active; 'I' for Inactive)
REMARK       I    between atoms: C2_4  and  N2_5 
REMARK       I    between atoms: C2_4  and  N8_45 
REMARK    1  A    between atoms: N2_5  and  C3_7 
REMARK    2  A    between atoms: C3_7  and  C4_8 
REMARK    3  A    between atoms: C4_8  and  C5_9 
REMARK    4  A    between atoms: C5_9  and  C6_10 
REMARK    5  A    between atoms: C6_10  and  C7_11 
REMARK    6  A    between atoms: C7_11  and  C8_12 
REMARK       I    between atoms: C8_12  and  N3_14 
REMARK    7  A    between atoms: N3_14  and  C9_15 
REMARK    8  A    between atoms: C9_15  and  C10_16 
REMARK       I    between atoms: C10_16  and  N4_18 
REMARK    9  A    between atoms: N4_18  and  C11_20 
REMARK   10  A    between atoms: C12_21  and  O3_22 
REMARK   11  A    between atoms: C12_21  and  N5_24 
REMARK   12  A    between atoms: N5_24  and  C13_26 
REMARK   13  A    between atoms: C13_26  and  C14_27 
REMARK   14  A    between atoms: C14_27  and  C15_28 
REMARK   15  A    between atoms: C15_28  and  C16_29 
REMARK       I    between atoms: C16_29  and  N6_31 
REMARK   16  A    between atoms: N6_31  and  C17_33 
REMARK   17  A    between atoms: C17_33  and  C18_34 
REMARK       I    between atoms: C18_34  and  N7_36 
REMARK   18  A    between atoms: N7_36  and  C19_38 
REMARK   19  A    between atoms: C19_38  and  C20_39 
REMARK   20  A    between atoms: N8_45  and  C26_47 
REMARK   21  A    between atoms: C26_47  and  C27_48 
ROOT
HETATM    1  C27 UNL     1     -11.431  15.534  33.444  1.00  0.00     0.304 C 
HETATM    2  O6  UNL     1     -12.630  15.526  33.881  1.00  0.00    -0.256 OA
HETATM    3  N9  UNL     1     -10.308  15.762  34.102  1.00  0.00    -0.419 NA
HETATM    4  C28 UNL     1      -9.121  16.010  34.835  1.00  0.00     0.263 C 
ENDROOT
BRANCH   1   5
HETATM    5  C26 UNL     1     -11.436  15.171  31.924  1.00  0.00     0.256 C 
BRANCH   5   6
HETATM    6  N8  UNL     1     -12.768  14.740  31.637  1.00  0.00    -0.216 N 
HETATM    7  C2  UNL     1     -13.136  13.519  31.121  1.00  0.00     0.673 C 
HETATM    8  N1  UNL     1     -13.244  12.375  31.746  1.00  0.00    -0.231 N 
HETATM    9  N2  UNL     1     -13.545  13.488  29.724  1.00  0.00    -0.206 N 
HETATM   10  C1  UNL     1     -13.784  11.224  30.952  1.00  0.00     0.165 C 
ATOM     11  H1  UNL     1     -12.975  12.271  32.724  1.00  0.00     0.177 HD
ATOM     12  H2  UNL     1     -13.217  12.727  29.129  1.00  0.00     0.183 HD
ATOM     13  H8  UNL     1     -13.518  15.402  31.833  1.00  0.00     0.178 HD
BRANCH   9  14
HETATM   14  C3  UNL     1     -14.377  14.475  29.169  1.00  0.00     0.079 C 
BRANCH  14  15
HETATM   15  C4  UNL     1     -14.453  14.473  27.688  1.00  0.00     0.045 C 
BRANCH  15  16
HETATM   16  C5  UNL     1     -13.321  13.970  26.865  1.00  0.00     0.006 C 
BRANCH  16  17
HETATM   17  C6  UNL     1     -12.134  14.823  26.660  1.00  0.00     0.011 C 
BRANCH  17  18
HETATM   18  C7  UNL     1     -10.976  14.632  27.517  1.00  0.00     0.119 C 
BRANCH  18  19
HETATM   19  C8  UNL     1     -10.644  15.973  28.290  1.00  0.00     0.286 C 
HETATM   20  O1  UNL     1     -11.680  16.652  28.583  1.00  0.00    -0.258 OA
HETATM   21  N3  UNL     1      -9.336  16.204  28.510  1.00  0.00    -0.406 NA
BRANCH  21  22
HETATM   22  C9  UNL     1      -7.994  16.558  28.805  1.00  0.00     0.324 C 
BRANCH  22  23
HETATM   23  C10 UNL     1      -7.185  16.655  27.543  1.00  0.00     0.252 C 
HETATM   24  O2  UNL     1      -5.908  16.611  27.769  1.00  0.00    -0.270 OA
HETATM   25  N4  UNL     1      -7.764  16.783  26.289  1.00  0.00    -0.331 N 
ATOM     26  H4  UNL     1      -8.782  16.745  26.342  1.00  0.00     0.168 HD
BRANCH  25  27
HETATM   27  C11 UNL     1      -7.319  16.951  24.955  1.00  0.00     0.146 C 
HETATM   28  C12 UNL     1      -6.263  17.871  24.587  1.00  0.00     0.151 C 
BRANCH  28  29
HETATM   29  O3  UNL     1      -5.750  17.717  23.377  1.00  0.00    -0.345 OA
ATOM     30  H3  UNL     1      -5.314  18.476  23.007  1.00  0.00     0.219 HD
ENDBRANCH  28  29
BRANCH  28  31
HETATM   31  N5  UNL     1      -5.667  18.909  25.268  1.00  0.00    -0.370 N 
ATOM     32  H5  UNL     1      -6.195  19.769  25.417  1.00  0.00     0.161 HD
BRANCH  31  33
HETATM   33  C13 UNL     1      -4.275  18.814  25.794  1.00  0.00     0.126 C 
BRANCH  33  34
HETATM   34  C14 UNL     1      -3.381  18.842  24.609  1.00  0.00     0.052 C 
BRANCH  34  35
HETATM   35  C15 UNL     1      -2.354  17.831  24.415  1.00  0.00     0.049 C 
BRANCH  35  36
HETATM   36  C16 UNL     1      -2.351  16.895  23.284  1.00  0.00     0.237 C 
HETATM   37  O4  UNL     1      -1.802  15.772  23.485  1.00  0.00    -0.269 OA
HETATM   38  N6  UNL     1      -2.947  17.242  22.083  1.00  0.00    -0.349 N 
ATOM     39  H6  UNL     1      -3.310  18.194  22.033  1.00  0.00     0.163 HD
BRANCH  38  40
HETATM   40  C17 UNL     1      -3.129  16.445  20.889  1.00  0.00     0.225 C 
BRANCH  40  41
HETATM   41  C18 UNL     1      -4.420  16.603  20.196  1.00  0.00     0.235 C 
HETATM   42  O5  UNL     1      -4.360  16.766  18.916  1.00  0.00    -0.272 OA
HETATM   43  N7  UNL     1      -5.665  16.557  20.830  1.00  0.00    -0.355 N 
ATOM     44  H7  UNL     1      -5.722  16.409  21.838  1.00  0.00     0.162 HD
BRANCH  43  45
HETATM   45  C19 UNL     1      -6.894  16.724  20.033  1.00  0.00     0.161 C 
BRANCH  45  46
HETATM   46  C20 UNL     1      -8.032  16.061  20.726  1.00  0.00    -0.041 A 
HETATM   47  C21 UNL     1      -9.301  16.218  20.256  1.00  0.00     0.009 A 
HETATM   48  C22 UNL     1     -10.319  15.530  20.920  1.00  0.00     0.001 A 
HETATM   49  C23 UNL     1     -10.056  14.728  22.003  1.00  0.00     0.000 A 
HETATM   50  C24 UNL     1      -8.757  14.592  22.452  1.00  0.00     0.001 A 
HETATM   51  C25 UNL     1      -7.731  15.252  21.821  1.00  0.00     0.009 A 
ENDBRANCH  45  46
ENDBRANCH  43  45
ENDBRANCH  40  41
ENDBRANCH  38  40
ENDBRANCH  35  36
ENDBRANCH  34  35
ENDBRANCH  33  34
ENDBRANCH  31  33
ENDBRANCH  28  31
ENDBRANCH  25  27
ENDBRANCH  22  23
ENDBRANCH  21  22
ENDBRANCH  18  19
ENDBRANCH  17  18
ENDBRANCH  16  17
ENDBRANCH  15  16
ENDBRANCH  14  15
ENDBRANCH   9  14
ENDBRANCH   5   6
ENDBRANCH   1   5
TORSDOF 20
ENDMDL
MODEL 4
REMARK VINA RESULT: -7.749384622      1.969      3.333
REMARK  21 active torsions:
REMARK  status: ('A' for Active; 'I' for Inactive)
REMARK       I    between atoms: C2_4  and  N2_5 
REMARK       I    between atoms: C2_4  and  N8_45 
REMARK    1  A    between atoms: N2_5  and  C3_7 
REMARK    2  A    between atoms: C3_7  and  C4_8 
REMARK    3  A    between atoms: C4_8  and  C5_9 
REMARK    4  A    between atoms: C5_9  and  C6_10 
REMARK    5  A    between atoms: C6_10  and  C7_11 
REMARK    6  A    between atoms: C7_11  and  C8_12 
REMARK       I    between atoms: C8_12  and  N3_14 
REMARK    7  A    between atoms: N3_14  and  C9_15 
REMARK    8  A    between atoms: C9_15  and  C10_16 
REMARK       I    between atoms: C10_16  and  N4_18 
REMARK    9  A    between atoms: N4_18  and  C11_20 
REMARK   10  A    between atoms: C12_21  and  O3_22 
REMARK   11  A    between atoms: C12_21  and  N5_24 
REMARK   12  A    between atoms: N5_24  and  C13_26 
REMARK   13  A    between atoms: C13_26  and  C14_27 
REMARK   14  A    between atoms: C14_27  and  C15_28 
REMARK   15  A    between atoms: C15_28  and  C16_29 
REMARK       I    between atoms: C16_29  and  N6_31 
REMARK   16  A    between atoms: N6_31  and  C17_33 
REMARK   17  A    between atoms: C17_33  and  C18_34 
REMARK       I    between atoms: C18_34  and  N7_36 
REMARK   18  A    between atoms: N7_36  and  C19_38 
REMARK   19  A    between atoms: C19_38  and  C20_39 
REMARK   20  A    between atoms: N8_45  and  C26_47 
REMARK   21  A    between atoms: C26_47  and  C27_48 
ROOT
HETATM    1  C27 UNL     1      -8.667  16.801  20.816  1.00  0.00     0.304 C 
HETATM    2  O6  UNL     1      -9.755  17.295  20.370  1.00  0.00    -0.256 OA
HETATM    3  N9  UNL     1      -8.464  15.638  21.411  1.00  0.00    -0.419 NA
HETATM    4  C28 UNL     1      -8.277  14.385  22.045  1.00  0.00     0.263 C 
ENDROOT
BRANCH   1   5
HETATM    5  C26 UNL     1      -7.493  17.789  20.516  1.00  0.00     0.256 C 
BRANCH   5   6
HETATM    6  N8  UNL     1      -7.166  18.389  21.771  1.00  0.00    -0.216 N 
HETATM    7  C2  UNL     1      -6.167  17.991  22.629  1.00  0.00     0.673 C 
HETATM    8  N1  UNL     1      -4.884  18.230  22.545  1.00  0.00    -0.231 N 
HETATM    9  N2  UNL     1      -6.576  17.287  23.836  1.00  0.00    -0.206 N 
HETATM   10  C1  UNL     1      -4.038  17.771  23.694  1.00  0.00     0.165 C 
ATOM     11  H1  UNL     1      -4.479  18.706  21.738  1.00  0.00     0.177 HD
ATOM     12  H2  UNL     1      -6.042  16.471  24.137  1.00  0.00     0.183 HD
ATOM     13  H8  UNL     1      -7.728  19.190  22.059  1.00  0.00     0.178 HD
BRANCH   9  14
HETATM   14  C3  UNL     1      -7.681  17.696  24.600  1.00  0.00     0.079 C 
BRANCH  14  15
HETATM   15  C4  UNL     1      -8.879  16.828  24.488  1.00  0.00     0.045 C 
BRANCH  15  16
HETATM   16  C5  UNL     1      -9.787  16.627  25.648  1.00  0.00     0.006 C 
BRANCH  16  17
HETATM   17  C6  UNL     1     -10.625  15.415  25.718  1.00  0.00     0.011 C 
BRANCH  17  18
HETATM   18  C7  UNL     1     -10.593  14.608  26.926  1.00  0.00     0.119 C 
BRANCH  18  19
HETATM   19  C8  UNL     1     -12.000  14.658  27.651  1.00  0.00     0.286 C 
HETATM   20  O1  UNL     1     -12.980  14.689  26.839  1.00  0.00    -0.258 OA
HETATM   21  N3  UNL     1     -11.955  14.674  28.996  1.00  0.00    -0.406 NA
BRANCH  21  22
HETATM   22  C9  UNL     1     -12.042  14.692  30.412  1.00  0.00     0.324 C 
BRANCH  22  23
HETATM   23  C10 UNL     1     -13.179  13.832  30.883  1.00  0.00     0.252 C 
HETATM   24  O2  UNL     1     -14.324  14.223  30.411  1.00  0.00    -0.270 OA
HETATM   25  N4  UNL     1     -13.000  12.751  31.732  1.00  0.00    -0.331 N 
ATOM     26  H4  UNL     1     -12.013  12.596  31.937  1.00  0.00     0.168 HD
BRANCH  25  27
HETATM   27  C11 UNL     1     -13.823  11.804  32.391  1.00  0.00     0.146 C 
HETATM   28  C12 UNL     1     -14.328  11.997  33.734  1.00  0.00     0.151 C 
BRANCH  28  29
HETATM   29  O3  UNL     1     -15.308  11.192  34.111  1.00  0.00    -0.345 OA
ATOM     30  H3  UNL     1     -15.549  11.227  35.029  1.00  0.00     0.219 HD
ENDBRANCH  28  29
BRANCH  28  31
HETATM   31  N5  UNL     1     -13.979  12.882  34.730  1.00  0.00    -0.370 N 
ATOM     32  H5  UNL     1     -14.717  13.360  35.248  1.00  0.00     0.161 HD
BRANCH  31  33
HETATM   33  C13 UNL     1     -12.556  13.161  35.077  1.00  0.00     0.126 C 
BRANCH  33  34
HETATM   34  C14 UNL     1     -12.256  14.512  34.540  1.00  0.00     0.052 C 
BRANCH  34  35
HETATM   35  C15 UNL     1     -11.430  15.452  35.282  1.00  0.00     0.049 C 
BRANCH  35  36
HETATM   36  C16 UNL     1     -10.161  15.984  34.772  1.00  0.00     0.237 C 
HETATM   37  O4  UNL     1      -9.257  16.205  35.630  1.00  0.00    -0.269 OA
HETATM   38  N6  UNL     1      -9.983  16.197  33.414  1.00  0.00    -0.349 N 
ATOM     39  H6  UNL     1     -10.804  16.027  32.834  1.00  0.00     0.163 HD
BRANCH  38  40
HETATM   40  C17 UNL     1      -8.798  16.626  32.704  1.00  0.00     0.225 C 
BRANCH  40  41
HETATM   41  C18 UNL     1      -8.839  16.491  31.237  1.00  0.00     0.235 C 
HETATM   42  O5  UNL     1      -8.843  15.284  30.778  1.00  0.00    -0.272 OA
HETATM   43  N7  UNL     1      -8.902  17.570  30.349  1.00  0.00    -0.355 N 
ATOM     44  H7  UNL     1      -8.919  18.527  30.704  1.00  0.00     0.162 HD
BRANCH  43  45
HETATM   45  C19 UNL     1      -8.944  17.315  28.898  1.00  0.00     0.161 C 
BRANCH  45  46
HETATM   46  C20 UNL     1      -7.651  17.720  28.282  1.00  0.00    -0.041 A 
HETATM   47  C21 UNL     1      -7.438  19.019  27.933  1.00  0.00     0.009 A 
HETATM   48  C22 UNL     1      -6.186  19.344  27.406  1.00  0.00     0.001 A 
HETATM   49  C23 UNL     1      -5.207  18.395  27.244  1.00  0.00     0.000 A 
HETATM   50  C24 UNL     1      -5.458  17.086  27.609  1.00  0.00     0.001 A 
HETATM   51  C25 UNL     1      -6.677  16.732  28.133  1.00  0.00     0.009 A 
ENDBRANCH  45  46
ENDBRANCH  43  45
ENDBRANCH  40  41
ENDBRANCH  38  40
ENDBRANCH  35  36
ENDBRANCH  34  35
ENDBRANCH  33  34
ENDBRANCH  31  33
ENDBRANCH  28  31
ENDBRANCH  25  27
ENDBRANCH  22  23
ENDBRANCH  21  22
ENDBRANCH  18  19
ENDBRANCH  17  18
ENDBRANCH  16  17
ENDBRANCH  15  16
ENDBRANCH  14  15
ENDBRANCH   9  14
ENDBRANCH   5   6
ENDBRANCH   1   5
TORSDOF 20
ENDMDL
MODEL 5
REMARK VINA RESULT: -7.683132486      2.263      9.668
REMARK  21 active torsions:
REMARK  status: ('A' for Active; 'I' for Inactive)
REMARK       I    between atoms: C2_4  and  N2_5 
REMARK       I    between atoms: C2_4  and  N8_45 
REMARK    1  A    between atoms: N2_5  and  C3_7 
REMARK    2  A    between atoms: C3_7  and  C4_8 
REMARK    3  A    between atoms: C4_8  and  C5_9 
REMARK    4  A    between atoms: C5_9  and  C6_10 
REMARK    5  A    between atoms: C6_10  and  C7_11 
REMARK    6  A    between atoms: C7_11  and  C8_12 
REMARK       I    between atoms: C8_12  and  N3_14 
REMARK    7  A    between atoms: N3_14  and  C9_15 
REMARK    8  A    between atoms: C9_15  and  C10_16 
REMARK       I    between atoms: C10_16  and  N4_18 
REMARK    9  A    between atoms: N4_18  and  C11_20 
REMARK   10  A    between atoms: C12_21  and  O3_22 
REMARK   11  A    between atoms: C12_21  and  N5_24 
REMARK   12  A    between atoms: N5_24  and  C13_26 
REMARK   13  A    between atoms: C13_26  and  C14_27 
REMARK   14  A    between atoms: C14_27  and  C15_28 
REMARK   15  A    between atoms: C15_28  and  C16_29 
REMARK       I    between atoms: C16_29  and  N6_31 
REMARK   16  A    between atoms: N6_31  and  C17_33 
REMARK   17  A    between atoms: C17_33  and  C18_34 
REMARK       I    between atoms: C18_34  and  N7_36 
REMARK   18  A    between atoms: N7_36  and  C19_38 
REMARK   19  A    between atoms: C19_38  and  C20_39 
REMARK   20  A    between atoms: N8_45  and  C26_47 
REMARK   21  A    between atoms: C26_47  and  C27_48 
ROOT
HETATM    1  C27 UNL     1     -13.013   8.947  34.689  1.00  0.00     0.304 C 
HETATM    2  O6  UNL     1     -12.134   9.205  35.577  1.00  0.00    -0.256 OA
HETATM    3  N9  UNL     1     -12.869   8.318  33.536  1.00  0.00    -0.419 NA
HETATM    4  C28 UNL     1     -12.685   7.640  32.306  1.00  0.00     0.263 C 
ENDROOT
BRANCH   1   5
HETATM    5  C26 UNL     1     -14.404   9.462  35.180  1.00  0.00     0.256 C 
BRANCH   5   6
HETATM    6  N8  UNL     1     -14.295  10.886  35.215  1.00  0.00    -0.216 N 
HETATM    7  C2  UNL     1     -13.811  11.692  34.210  1.00  0.00     0.673 C 
HETATM    8  N1  UNL     1     -14.420  12.087  33.123  1.00  0.00    -0.231 N 
HETATM    9  N2  UNL     1     -12.483  12.259  34.402  1.00  0.00    -0.206 N 
HETATM   10  C1  UNL     1     -13.685  13.065  32.258  1.00  0.00     0.165 C 
ATOM     11  H1  UNL     1     -15.350  11.747  32.876  1.00  0.00     0.177 HD
ATOM     12  H2  UNL     1     -11.833  12.272  33.616  1.00  0.00     0.183 HD
ATOM     13  H8  UNL     1     -14.607  11.351  36.067  1.00  0.00     0.178 HD
BRANCH   9  14
HETATM   14  C3  UNL     1     -12.070  12.788  35.636  1.00  0.00     0.079 C 
BRANCH  14  15
HETATM   15  C4  UNL     1     -12.078  14.270  35.719  1.00  0.00     0.045 C 
BRANCH  15  16
HETATM   16  C5  UNL     1     -11.382  15.095  34.696  1.00  0.00     0.006 C 
BRANCH  16  17
HETATM   17  C6  UNL     1     -10.400  16.111  35.123  1.00  0.00     0.011 C 
BRANCH  17  18
HETATM   18  C7  UNL     1      -8.987  15.862  34.892  1.00  0.00     0.119 C 
BRANCH  18  19
HETATM   19  C8  UNL     1      -8.752  15.415  33.392  1.00  0.00     0.286 C 
HETATM   20  O1  UNL     1      -8.353  14.211  33.284  1.00  0.00    -0.258 OA
HETATM   21  N3  UNL     1      -8.989  16.361  32.464  1.00  0.00    -0.406 NA
BRANCH  21  22
HETATM   22  C9  UNL     1      -9.207  17.267  31.394  1.00  0.00     0.324 C 
BRANCH  22  23
HETATM   23  C10 UNL     1     -10.148  16.676  30.385  1.00  0.00     0.252 C 
HETATM   24  O2  UNL     1     -10.576  17.555  29.531  1.00  0.00    -0.270 OA
HETATM   25  N4  UNL     1     -10.509  15.337  30.391  1.00  0.00    -0.331 N 
ATOM     26  H4  UNL     1     -10.016  14.820  31.119  1.00  0.00     0.168 HD
BRANCH  25  27
HETATM   27  C11 UNL     1     -11.380  14.496  29.656  1.00  0.00     0.146 C 
HETATM   28  C12 UNL     1     -11.388  14.440  28.209  1.00  0.00     0.151 C 
BRANCH  28  29
HETATM   29  O3  UNL     1     -12.029  13.416  27.668  1.00  0.00    -0.345 OA
ATOM     30  H3  UNL     1     -12.097  13.419  26.721  1.00  0.00     0.219 HD
ENDBRANCH  28  29
BRANCH  28  31
HETATM   31  N5  UNL     1     -10.845  15.268  27.253  1.00  0.00    -0.370 N 
ATOM     32  H5  UNL     1     -11.295  16.163  27.061  1.00  0.00     0.161 HD
BRANCH  31  33
HETATM   33  C13 UNL     1      -9.617  14.898  26.492  1.00  0.00     0.126 C 
BRANCH  33  34
HETATM   34  C14 UNL     1      -8.518  14.826  27.486  1.00  0.00     0.052 C 
BRANCH  34  35
HETATM   35  C15 UNL     1      -7.843  16.027  27.952  1.00  0.00     0.049 C 
BRANCH  35  36
HETATM   36  C16 UNL     1      -7.439  17.120  27.059  1.00  0.00     0.237 C 
HETATM   37  O4  UNL     1      -8.307  18.013  26.833  1.00  0.00    -0.269 OA
HETATM   38  N6  UNL     1      -6.159  17.158  26.528  1.00  0.00    -0.349 N 
ATOM     39  H6  UNL     1      -5.572  16.353  26.746  1.00  0.00     0.163 HD
BRANCH  38  40
HETATM   40  C17 UNL     1      -5.539  18.177  25.709  1.00  0.00     0.225 C 
BRANCH  40  41
HETATM   41  C18 UNL     1      -5.901  18.167  24.281  1.00  0.00     0.235 C 
HETATM   42  O5  UNL     1      -4.916  18.110  23.447  1.00  0.00    -0.272 OA
HETATM   43  N7  UNL     1      -7.214  18.184  23.801  1.00  0.00    -0.355 N 
ATOM     44  H7  UNL     1      -7.999  18.209  24.453  1.00  0.00     0.162 HD
BRANCH  43  45
HETATM   45  C19 UNL     1      -7.457  18.167  22.347  1.00  0.00     0.161 C 
BRANCH  45  46
HETATM   46  C20 UNL     1      -8.393  17.060  22.011  1.00  0.00    -0.041 A 
HETATM   47  C21 UNL     1      -9.118  17.105  20.859  1.00  0.00     0.009 A 
HETATM   48  C22 UNL     1      -9.940  16.013  20.575  1.00  0.00     0.001 A 
HETATM   49  C23 UNL     1     -10.018  14.934  21.422  1.00  0.00     0.000 A 
HETATM   50  C24 UNL     1      -9.268  14.921  22.582  1.00  0.00     0.001 A 
HETATM   51  C25 UNL     1      -8.446  15.978  22.890  1.00  0.00     0.009 A 
ENDBRANCH  45  46
ENDBRANCH  43  45
ENDBRANCH  40  41
ENDBRANCH  38  40
ENDBRANCH  35  36
ENDBRANCH  34  35
ENDBRANCH  33  34
ENDBRANCH  31  33
ENDBRANCH  28  31
ENDBRANCH  25  27
ENDBRANCH  22  23
ENDBRANCH  21  22
ENDBRANCH  18  19
ENDBRANCH  17  18
ENDBRANCH  16  17
ENDBRANCH  15  16
ENDBRANCH  14  15
ENDBRANCH   9  14
ENDBRANCH   5   6
ENDBRANCH   1   5
TORSDOF 20
ENDMDL
