MODEL 1
REMARK VINA RESULT: -7.721622081      0.000      0.000
REMARK  21 active torsions:
REMARK  status: ('A' for Active; 'I' for Inactive)
REMARK    1  A    between atoms: C2_2  and  N1_3 
REMARK       I    between atoms: N1_3  and  C3_5 
REMARK       I    between atoms: C3_5  and  N2_7 
REMARK    2  A    between atoms: N3_10  and  C7_12 
REMARK    3  A    between atoms: C7_12  and  C8_13 
REMARK    4  A    between atoms: C8_13  and  N4_14 
REMARK    5  A    between atoms: N4_14  and  C9_16 
REMARK    6  A    between atoms: C9_16  and  C10_17 
REMARK    7  A    between atoms: C11_18  and  C12_19 
REMARK    8  A    between atoms: C12_19  and  C13_20 
REMARK    9  A    between atoms: C13_20  and  C14_21 
REMARK       I    between atoms: C14_21  and  N5_23 
REMARK   10  A    between atoms: N5_23  and  C15_24 
REMARK   11  A    between atoms: C15_24  and  C16_25 
REMARK   12  A    between atoms: C16_25  and  C17_26 
REMARK   13  A    between atoms: C17_26  and  N6_27 
REMARK   14  A    between atoms: N6_27  and  C18_30 
REMARK   15  A    between atoms: C18_30  and  C19_31 
REMARK       I    between atoms: C19_31  and  N7_33 
REMARK   16  A    between atoms: N7_33  and  C20_35 
REMARK   17  A    between atoms: C20_35  and  C21_36 
REMARK   18  A    between atoms: C21_36  and  C22_37 
REMARK   19  A    between atoms: C22_37  and  C23_38 
REMARK   20  A    between atoms: C23_38  and  N8_39 
REMARK       I    between atoms: N8_39  and  C24_41 
REMARK   21  A    between atoms: N11_46  and  C25_48 
ROOT
HETATM    1  C25 UNL     1      -9.268  17.299  25.082  1.00  0.00     0.245 C 
HETATM    2  C26 UNL     1      -9.248  16.023  24.318  1.00  0.00     0.078 C 
HETATM    3  N12 UNL     1      -9.223  15.008  23.739  1.00  0.00    -0.196 NA
ENDROOT
BRANCH   1   4
HETATM    4  N11 UNL     1     -10.015  17.057  26.258  1.00  0.00    -0.364 N 
HETATM    5  C9  UNL     1      -9.893  17.811  27.329  1.00  0.00     0.097 C 
ATOM      6  H11 UNL     1     -10.669  16.274  26.277  1.00  0.00     0.162 HD
BRANCH   5   7
HETATM    7  N4  UNL     1      -8.938  18.840  27.156  1.00  0.00    -0.375 N 
ATOM      8  H4  UNL     1      -9.147  19.730  26.702  1.00  0.00     0.161 HD
BRANCH   7   9
HETATM    9  C8  UNL     1      -7.597  18.493  27.702  1.00  0.00     0.149 C 
BRANCH   9  10
HETATM   10  C7  UNL     1      -6.520  19.392  27.299  1.00  0.00     0.256 C 
BRANCH  10  11
HETATM   11  N3  UNL     1      -5.251  18.826  26.959  1.00  0.00    -0.066 N 
HETATM   12  C5  UNL     1      -5.495  17.508  26.367  1.00  0.00     0.257 C 
HETATM   13  C4  UNL     1      -4.479  17.211  25.273  1.00  0.00     0.155 C 
HETATM   14  N2  UNL     1      -4.571  18.233  24.256  1.00  0.00    -0.331 N 
HETATM   15  C3  UNL     1      -3.947  18.102  23.017  1.00  0.00     0.318 C 
HETATM   16  C28 UNL     1      -5.311  19.438  24.632  1.00  0.00     0.155 C 
HETATM   17  N1  UNL     1      -3.103  16.983  22.728  1.00  0.00    -0.343 N 
HETATM   18  O1  UNL     1      -4.119  18.955  22.156  1.00  0.00    -0.247 OA
ATOM     19  H1  UNL     1      -2.930  16.275  23.441  1.00  0.00     0.164 HD
HETATM   20  C27 UNL     1      -4.654  19.777  26.019  1.00  0.00     0.257 C 
HETATM   21  C6  UNL     1      -4.353  18.651  28.056  1.00  0.00     0.272 C 
BRANCH  17  22
HETATM   22  C2  UNL     1      -2.504  16.861  21.438  1.00  0.00     0.120 C 
HETATM   23  C1  UNL     1      -1.530  15.717  21.424  1.00  0.00     0.026 C 
ENDBRANCH  17  22
ENDBRANCH  10  11
ENDBRANCH   9  10
ENDBRANCH   7   9
ENDBRANCH   5   7
BRANCH   5  24
HETATM   24  C10 UNL     1     -10.870  17.704  28.377  1.00  0.00     0.044 C 
HETATM   25  C11 UNL     1     -10.655  16.877  29.386  1.00  0.00    -0.022 C 
BRANCH  25  26
HETATM   26  C12 UNL     1      -9.386  16.136  29.409  1.00  0.00     0.037 C 
BRANCH  26  27
HETATM   27  C13 UNL     1      -8.742  16.597  30.775  1.00  0.00     0.122 C 
BRANCH  27  28
HETATM   28  C14 UNL     1      -9.363  15.790  31.879  1.00  0.00     0.286 C 
HETATM   29  O2  UNL     1      -9.784  14.650  31.460  1.00  0.00    -0.258 OA
HETATM   30  N5  UNL     1      -9.393  16.254  33.099  1.00  0.00    -0.415 NA
BRANCH  30  31
HETATM   31  C15 UNL     1      -9.433  16.742  34.437  1.00  0.00     0.223 C 
BRANCH  31  32
HETATM   32  C16 UNL     1     -10.118  15.702  35.329  1.00  0.00     0.061 C 
BRANCH  32  33
HETATM   33  C17 UNL     1     -11.567  15.456  35.079  1.00  0.00     0.235 C 
BRANCH  33  34
HETATM   34  N6  UNL     1     -12.311  14.468  35.716  1.00  0.00    -0.067 N 
ATOM     35  H62 UNL     1     -12.183  14.497  36.727  1.00  0.00     0.277 HD
ATOM     36  H61 UNL     1     -13.309  14.669  35.677  1.00  0.00     0.277 HD
BRANCH  34  37
HETATM   37  C18 UNL     1     -12.017  13.168  35.188  1.00  0.00     0.334 C 
BRANCH  37  38
HETATM   38  C19 UNL     1     -13.166  12.574  34.434  1.00  0.00     0.243 C 
HETATM   39  O3  UNL     1     -14.130  13.281  34.019  1.00  0.00    -0.272 OA
HETATM   40  N7  UNL     1     -13.134  11.208  34.184  1.00  0.00    -0.360 N 
ATOM     41  H7  UNL     1     -12.355  10.712  34.618  1.00  0.00     0.162 HD
BRANCH  40  42
HETATM   42  C20 UNL     1     -14.011  10.393  33.424  1.00  0.00     0.122 C 
BRANCH  42  43
HETATM   43  C21 UNL     1     -13.211  10.041  32.128  1.00  0.00     0.021 C 
BRANCH  43  44
HETATM   44  C22 UNL     1     -13.904  10.930  31.091  1.00  0.00     0.021 C 
BRANCH  44  45
HETATM   45  C23 UNL     1     -12.959  11.747  30.238  1.00  0.00     0.122 C 
BRANCH  45  46
HETATM   46  N8  UNL     1     -12.528  12.877  31.063  1.00  0.00    -0.365 N 
HETATM   47  C24 UNL     1     -13.161  14.145  30.932  1.00  0.00     0.181 C 
HETATM   48  N9  UNL     1     -12.900  15.131  31.736  1.00  0.00    -0.374 N 
HETATM   49  N10 UNL     1     -14.100  14.340  29.870  1.00  0.00    -0.064 NA
ATOM     50  H92 UNL     1     -12.231  14.992  32.493  1.00  0.00     0.158 HD
ATOM     51  H91 UNL     1     -13.354  16.040  31.642  1.00  0.00     0.158 HD
ATOM     52  H8  UNL     1     -11.770  12.756  31.735  1.00  0.00     0.162 HD
ENDBRANCH  45  46
ENDBRANCH  44  45
ENDBRANCH  43  44
ENDBRANCH  42  43
ENDBRANCH  40  42
ENDBRANCH  37  38
ENDBRANCH  34  37
ENDBRANCH  33  34
ENDBRANCH  32  33
ENDBRANCH  31  32
ENDBRANCH  30  31
ENDBRANCH  27  28
ENDBRANCH  26  27
ENDBRANCH  25  26
ENDBRANCH   5  24
ENDBRANCH   1   4
TORSDOF 21
ENDMDL
MODEL 2
REMARK VINA RESULT: -7.625074804      2.228      3.717
REMARK  21 active torsions:
REMARK  status: ('A' for Active; 'I' for Inactive)
REMARK    1  A    between atoms: C2_2  and  N1_3 
REMARK       I    between atoms: N1_3  and  C3_5 
REMARK       I    between atoms: C3_5  and  N2_7 
REMARK    2  A    between atoms: N3_10  and  C7_12 
REMARK    3  A    between atoms: C7_12  and  C8_13 
REMARK    4  A    between atoms: C8_13  and  N4_14 
REMARK    5  A    between atoms: N4_14  and  C9_16 
REMARK    6  A    between atoms: C9_16  and  C10_17 
REMARK    7  A    between atoms: C11_18  and  C12_19 
REMARK    8  A    between atoms: C12_19  and  C13_20 
REMARK    9  A    between atoms: C13_20  and  C14_21 
REMARK       I    between atoms: C14_21  and  N5_23 
REMARK   10  A    between atoms: N5_23  and  C15_24 
REMARK   11  A    between atoms: C15_24  and  C16_25 
REMARK   12  A    between atoms: C16_25  and  C17_26 
REMARK   13  A    between atoms: C17_26  and  N6_27 
REMARK   14  A    between atoms: N6_27  and  C18_30 
REMARK   15  A    between atoms: C18_30  and  C19_31 
REMARK       I    between atoms: C19_31  and  N7_33 
REMARK   16  A    between atoms: N7_33  and  C20_35 
REMARK   17  A    between atoms: C20_35  and  C21_36 
REMARK   18  A    between atoms: C21_36  and  C22_37 
REMARK   19  A    between atoms: C22_37  and  C23_38 
REMARK   20  A    between atoms: C23_38  and  N8_39 
REMARK       I    between atoms: N8_39  and  C24_41 
REMARK   21  A    between atoms: N11_46  and  C25_48 
ROOT
HETATM    1  C25 UNL     1      -6.140  18.374  26.087  1.00  0.00     0.245 C 
HETATM    2  C26 UNL     1      -5.705  19.500  26.956  1.00  0.00     0.078 C 
HETATM    3  N12 UNL     1      -5.386  20.383  27.651  1.00  0.00    -0.196 NA
ENDROOT
BRANCH   1   4
HETATM    4  N11 UNL     1      -6.554  17.331  26.948  1.00  0.00    -0.364 N 
HETATM    5  C9  UNL     1      -7.796  16.900  26.973  1.00  0.00     0.097 C 
ATOM      6  H11 UNL     1      -5.868  16.900  27.568  1.00  0.00     0.162 HD
BRANCH   5   7
HETATM    7  N4  UNL     1      -8.629  17.606  26.075  1.00  0.00    -0.375 N 
ATOM      8  H4  UNL     1      -8.619  18.621  25.980  1.00  0.00     0.161 HD
BRANCH   7   9
HETATM    9  C8  UNL     1      -9.522  16.716  25.281  1.00  0.00     0.149 C 
BRANCH   9  10
HETATM   10  C7  UNL     1      -9.603  17.040  23.860  1.00  0.00     0.256 C 
BRANCH  10  11
HETATM   11  N3  UNL     1      -8.937  16.185  22.927  1.00  0.00    -0.066 N 
HETATM   12  C5  UNL     1      -9.242  16.671  21.580  1.00  0.00     0.257 C 
HETATM   13  C4  UNL     1      -8.053  16.473  20.652  1.00  0.00     0.155 C 
HETATM   14  N2  UNL     1      -6.914  17.184  21.186  1.00  0.00    -0.331 N 
HETATM   15  C3  UNL     1      -5.756  17.394  20.441  1.00  0.00     0.318 C 
HETATM   16  C28 UNL     1      -7.033  17.616  22.580  1.00  0.00     0.155 C 
HETATM   17  N1  UNL     1      -5.604  16.831  19.134  1.00  0.00    -0.343 N 
HETATM   18  O1  UNL     1      -4.849  18.072  20.906  1.00  0.00    -0.247 OA
ATOM     19  H1  UNL     1      -6.341  16.245  18.741  1.00  0.00     0.164 HD
HETATM   20  C27 UNL     1      -7.517  16.289  23.269  1.00  0.00     0.257 C 
HETATM   21  C6  UNL     1      -9.317  14.809  22.990  1.00  0.00     0.272 C 
BRANCH  17  22
HETATM   22  C2  UNL     1      -4.419  17.091  18.383  1.00  0.00     0.120 C 
HETATM   23  C1  UNL     1      -4.644  18.239  17.440  1.00  0.00     0.026 C 
ENDBRANCH  17  22
ENDBRANCH  10  11
ENDBRANCH   9  10
ENDBRANCH   7   9
ENDBRANCH   5   7
BRANCH   5  24
HETATM   24  C10 UNL     1      -8.095  15.663  27.642  1.00  0.00     0.044 C 
HETATM   25  C11 UNL     1      -8.527  15.687  28.891  1.00  0.00    -0.022 C 
BRANCH  25  26
HETATM   26  C12 UNL     1      -8.730  16.998  29.524  1.00  0.00     0.037 C 
BRANCH  26  27
HETATM   27  C13 UNL     1     -10.270  16.980  29.871  1.00  0.00     0.122 C 
BRANCH  27  28
HETATM   28  C14 UNL     1     -10.462  16.132  31.097  1.00  0.00     0.286 C 
HETATM   29  O2  UNL     1     -11.402  15.270  30.940  1.00  0.00    -0.258 OA
HETATM   30  N5  UNL     1      -9.692  16.294  32.139  1.00  0.00    -0.415 NA
BRANCH  30  31
HETATM   31  C15 UNL     1      -8.861  16.454  33.285  1.00  0.00     0.223 C 
BRANCH  31  32
HETATM   32  C16 UNL     1      -9.738  16.478  34.540  1.00  0.00     0.061 C 
BRANCH  32  33
HETATM   33  C17 UNL     1     -10.391  15.195  34.926  1.00  0.00     0.235 C 
BRANCH  33  34
HETATM   34  N6  UNL     1     -11.119  14.397  34.049  1.00  0.00    -0.067 N 
ATOM     35  H62 UNL     1     -10.796  14.505  33.088  1.00  0.00     0.277 HD
ATOM     36  H61 UNL     1     -10.904  13.409  34.178  1.00  0.00     0.277 HD
BRANCH  34  37
HETATM   37  C18 UNL     1     -12.527  14.646  34.159  1.00  0.00     0.334 C 
BRANCH  37  38
HETATM   38  C19 UNL     1     -13.359  13.527  33.613  1.00  0.00     0.243 C 
HETATM   39  O3  UNL     1     -14.383  13.097  34.220  1.00  0.00    -0.272 OA
HETATM   40  N7  UNL     1     -12.978  12.978  32.396  1.00  0.00    -0.360 N 
ATOM     41  H7  UNL     1     -12.103  13.340  32.018  1.00  0.00     0.162 HD
BRANCH  40  42
HETATM   42  C20 UNL     1     -13.613  11.995  31.593  1.00  0.00     0.122 C 
BRANCH  42  43
HETATM   43  C21 UNL     1     -13.847  12.691  30.214  1.00  0.00     0.021 C 
BRANCH  43  44
HETATM   44  C22 UNL     1     -12.548  12.350  29.476  1.00  0.00     0.021 C 
BRANCH  44  45
HETATM   45  C23 UNL     1     -12.468  12.899  28.069  1.00  0.00     0.122 C 
BRANCH  45  46
HETATM   46  N8  UNL     1     -12.350  14.353  28.198  1.00  0.00    -0.365 N 
HETATM   47  C24 UNL     1     -13.417  15.199  27.785  1.00  0.00     0.181 C 
HETATM   48  N9  UNL     1     -13.405  16.480  28.005  1.00  0.00    -0.374 N 
HETATM   49  N10 UNL     1     -14.525  14.622  27.088  1.00  0.00    -0.064 NA
ATOM     50  H92 UNL     1     -12.615  16.892  28.501  1.00  0.00     0.158 HD
ATOM     51  H91 UNL     1     -14.169  17.086  27.709  1.00  0.00     0.158 HD
ATOM     52  H8  UNL     1     -11.500  14.762  28.585  1.00  0.00     0.162 HD
ENDBRANCH  45  46
ENDBRANCH  44  45
ENDBRANCH  43  44
ENDBRANCH  42  43
ENDBRANCH  40  42
ENDBRANCH  37  38
ENDBRANCH  34  37
ENDBRANCH  33  34
ENDBRANCH  32  33
ENDBRANCH  31  32
ENDBRANCH  30  31
ENDBRANCH  27  28
ENDBRANCH  26  27
ENDBRANCH  25  26
ENDBRANCH   5  24
ENDBRANCH   1   4
TORSDOF 21
ENDMDL
MODEL 3
REMARK VINA RESULT: -7.441997337      2.297     11.751
REMARK  21 active torsions:
REMARK  status: ('A' for Active; 'I' for Inactive)
REMARK    1  A    between atoms: C2_2  and  N1_3 
REMARK       I    between atoms: N1_3  and  C3_5 
REMARK       I    between atoms: C3_5  and  N2_7 
REMARK    2  A    between atoms: N3_10  and  C7_12 
REMARK    3  A    between atoms: C7_12  and  C8_13 
REMARK    4  A    between atoms: C8_13  and  N4_14 
REMARK    5  A    between atoms: N4_14  and  C9_16 
REMARK    6  A    between atoms: C9_16  and  C10_17 
REMARK    7  A    between atoms: C11_18  and  C12_19 
REMARK    8  A    between atoms: C12_19  and  C13_20 
REMARK    9  A    between atoms: C13_20  and  C14_21 
REMARK       I    between atoms: C14_21  and  N5_23 
REMARK   10  A    between atoms: N5_23  and  C15_24 
REMARK   11  A    between atoms: C15_24  and  C16_25 
REMARK   12  A    between atoms: C16_25  and  C17_26 
REMARK   13  A    between atoms: C17_26  and  N6_27 
REMARK   14  A    between atoms: N6_27  and  C18_30 
REMARK   15  A    between atoms: C18_30  and  C19_31 
REMARK       I    between atoms: C19_31  and  N7_33 
REMARK   16  A    between atoms: N7_33  and  C20_35 
REMARK   17  A    between atoms: C20_35  and  C21_36 
REMARK   18  A    between atoms: C21_36  and  C22_37 
REMARK   19  A    between atoms: C22_37  and  C23_38 
REMARK   20  A    between atoms: C23_38  and  N8_39 
REMARK       I    between atoms: N8_39  and  C24_41 
REMARK   21  A    between atoms: N11_46  and  C25_48 
ROOT
HETATM    1  C25 UNL     1      -7.439  19.122  27.233  1.00  0.00     0.245 C 
HETATM    2  C26 UNL     1      -6.091  19.726  27.407  1.00  0.00     0.078 C 
HETATM    3  N12 UNL     1      -5.029  20.187  27.566  1.00  0.00    -0.196 NA
ENDROOT
BRANCH   1   4
HETATM    4  N11 UNL     1      -7.266  17.719  27.280  1.00  0.00    -0.364 N 
HETATM    5  C9  UNL     1      -7.976  16.957  28.084  1.00  0.00     0.097 C 
ATOM      6  H11 UNL     1      -6.569  17.286  26.674  1.00  0.00     0.162 HD
BRANCH   5   7
HETATM    7  N4  UNL     1      -8.881  17.702  28.872  1.00  0.00    -0.375 N 
ATOM      8  H4  UNL     1      -9.405  18.504  28.520  1.00  0.00     0.161 HD
BRANCH   7   9
HETATM    9  C8  UNL     1      -8.994  17.199  30.270  1.00  0.00     0.149 C 
BRANCH   9  10
HETATM   10  C7  UNL     1     -10.321  16.717  30.641  1.00  0.00     0.256 C 
BRANCH  10  11
HETATM   11  N3  UNL     1     -10.421  15.487  31.365  1.00  0.00    -0.066 N 
HETATM   12  C5  UNL     1     -11.667  15.523  32.134  1.00  0.00     0.257 C 
HETATM   13  C4  UNL     1     -12.289  14.136  32.220  1.00  0.00     0.155 C 
HETATM   14  N2  UNL     1     -12.549  13.654  30.883  1.00  0.00    -0.331 N 
HETATM   15  C3  UNL     1     -13.335  12.529  30.641  1.00  0.00     0.318 C 
HETATM   16  C28 UNL     1     -11.885  14.387  29.804  1.00  0.00     0.155 C 
HETATM   17  N1  UNL     1     -13.848  11.740  31.719  1.00  0.00    -0.343 N 
HETATM   18  O1  UNL     1     -13.595  12.205  29.490  1.00  0.00    -0.247 OA
ATOM     19  H1  UNL     1     -13.622  11.982  32.684  1.00  0.00     0.164 HD
HETATM   20  C27 UNL     1     -10.409  14.443  30.338  1.00  0.00     0.257 C 
HETATM   21  C6  UNL     1      -9.352  15.234  32.279  1.00  0.00     0.272 C 
BRANCH  17  22
HETATM   22  C2  UNL     1     -14.677  10.612  31.440  1.00  0.00     0.120 C 
HETATM   23  C1  UNL     1     -15.871  10.608  32.351  1.00  0.00     0.026 C 
ENDBRANCH  17  22
ENDBRANCH  10  11
ENDBRANCH   9  10
ENDBRANCH   7   9
ENDBRANCH   5   7
BRANCH   5  24
HETATM   24  C10 UNL     1      -7.967  15.533  27.887  1.00  0.00     0.044 C 
HETATM   25  C11 UNL     1      -8.753  14.999  26.967  1.00  0.00    -0.022 C 
BRANCH  25  26
HETATM   26  C12 UNL     1      -9.569  15.906  26.148  1.00  0.00     0.037 C 
BRANCH  26  27
HETATM   27  C13 UNL     1      -9.381  15.321  24.694  1.00  0.00     0.122 C 
BRANCH  27  28
HETATM   28  C14 UNL     1      -9.019  16.456  23.778  1.00  0.00     0.286 C 
HETATM   29  O2  UNL     1      -8.317  17.350  24.378  1.00  0.00    -0.258 OA
HETATM   30  N5  UNL     1      -9.383  16.434  22.524  1.00  0.00    -0.415 NA
BRANCH  30  31
HETATM   31  C15 UNL     1      -9.769  16.428  21.152  1.00  0.00     0.223 C 
BRANCH  31  32
HETATM   32  C16 UNL     1      -8.513  16.482  20.279  1.00  0.00     0.061 C 
BRANCH  32  33
HETATM   33  C17 UNL     1      -7.751  17.763  20.280  1.00  0.00     0.235 C 
BRANCH  33  34
HETATM   34  N6  UNL     1      -6.422  17.880  19.886  1.00  0.00    -0.067 N 
ATOM     35  H62 UNL     1      -6.331  17.873  18.870  1.00  0.00     0.277 HD
ATOM     36  H61 UNL     1      -6.059  18.815  20.070  1.00  0.00     0.277 HD
BRANCH  34  37
HETATM   37  C18 UNL     1      -5.604  16.871  20.492  1.00  0.00     0.334 C 
BRANCH  37  38
HETATM   38  C19 UNL     1      -4.168  17.277  20.605  1.00  0.00     0.243 C 
HETATM   39  O3  UNL     1      -3.671  18.186  19.877  1.00  0.00    -0.272 OA
HETATM   40  N7  UNL     1      -3.390  16.632  21.557  1.00  0.00    -0.360 N 
ATOM     41  H7  UNL     1      -3.857  15.868  22.044  1.00  0.00     0.162 HD
BRANCH  40  42
HETATM   42  C20 UNL     1      -2.049  16.865  21.959  1.00  0.00     0.122 C 
BRANCH  42  43
HETATM   43  C21 UNL     1      -2.161  17.796  23.210  1.00  0.00     0.021 C 
BRANCH  43  44
HETATM   44  C22 UNL     1      -3.079  16.974  24.120  1.00  0.00     0.021 C 
BRANCH  44  45
HETATM   45  C23 UNL     1      -3.978  17.803  25.011  1.00  0.00     0.122 C 
BRANCH  45  46
HETATM   46  N8  UNL     1      -5.193  18.072  24.239  1.00  0.00    -0.365 N 
HETATM   47  C24 UNL     1      -5.414  19.358  23.672  1.00  0.00     0.181 C 
HETATM   48  N9  UNL     1      -6.409  19.596  22.872  1.00  0.00    -0.374 N 
HETATM   49  N10 UNL     1      -4.520  20.423  24.011  1.00  0.00    -0.064 NA
ATOM     50  H92 UNL     1      -7.046  18.837  22.631  1.00  0.00     0.158 HD
ATOM     51  H91 UNL     1      -6.568  20.518  22.466  1.00  0.00     0.158 HD
ATOM     52  H8  UNL     1      -5.885  17.334  24.107  1.00  0.00     0.162 HD
ENDBRANCH  45  46
ENDBRANCH  44  45
ENDBRANCH  43  44
ENDBRANCH  42  43
ENDBRANCH  40  42
ENDBRANCH  37  38
ENDBRANCH  34  37
ENDBRANCH  33  34
ENDBRANCH  32  33
ENDBRANCH  31  32
ENDBRANCH  30  31
ENDBRANCH  27  28
ENDBRANCH  26  27
ENDBRANCH  25  26
ENDBRANCH   5  24
ENDBRANCH   1   4
TORSDOF 21
ENDMDL
MODEL 4
REMARK VINA RESULT: -7.430806216      1.995      2.595
REMARK  21 active torsions:
REMARK  status: ('A' for Active; 'I' for Inactive)
REMARK    1  A    between atoms: C2_2  and  N1_3 
REMARK       I    between atoms: N1_3  and  C3_5 
REMARK       I    between atoms: C3_5  and  N2_7 
REMARK    2  A    between atoms: N3_10  and  C7_12 
REMARK    3  A    between atoms: C7_12  and  C8_13 
REMARK    4  A    between atoms: C8_13  and  N4_14 
REMARK    5  A    between atoms: N4_14  and  C9_16 
REMARK    6  A    between atoms: C9_16  and  C10_17 
REMARK    7  A    between atoms: C11_18  and  C12_19 
REMARK    8  A    between atoms: C12_19  and  C13_20 
REMARK    9  A    between atoms: C13_20  and  C14_21 
REMARK       I    between atoms: C14_21  and  N5_23 
REMARK   10  A    between atoms: N5_23  and  C15_24 
REMARK   11  A    between atoms: C15_24  and  C16_25 
REMARK   12  A    between atoms: C16_25  and  C17_26 
REMARK   13  A    between atoms: C17_26  and  N6_27 
REMARK   14  A    between atoms: N6_27  and  C18_30 
REMARK   15  A    between atoms: C18_30  and  C19_31 
REMARK       I    between atoms: C19_31  and  N7_33 
REMARK   16  A    between atoms: N7_33  and  C20_35 
REMARK   17  A    between atoms: C20_35  and  C21_36 
REMARK   18  A    between atoms: C21_36  and  C22_37 
REMARK   19  A    between atoms: C22_37  and  C23_38 
REMARK   20  A    between atoms: C23_38  and  N8_39 
REMARK       I    between atoms: N8_39  and  C24_41 
REMARK   21  A    between atoms: N11_46  and  C25_48 
ROOT
HETATM    1  C25 UNL     1      -9.090  16.661  24.987  1.00  0.00     0.245 C 
HETATM    2  C26 UNL     1      -8.991  15.612  23.938  1.00  0.00     0.078 C 
HETATM    3  N12 UNL     1      -8.888  14.787  23.117  1.00  0.00    -0.196 NA
ENDROOT
BRANCH   1   4
HETATM    4  N11 UNL     1      -8.390  16.175  26.116  1.00  0.00    -0.364 N 
HETATM    5  C9  UNL     1      -7.627  16.955  26.851  1.00  0.00     0.097 C 
ATOM      6  H11 UNL     1      -8.481  15.191  26.368  1.00  0.00     0.162 HD
BRANCH   5   7
HETATM    7  N4  UNL     1      -7.588  18.282  26.366  1.00  0.00    -0.375 N 
ATOM      8  H4  UNL     1      -8.418  18.798  26.073  1.00  0.00     0.161 HD
BRANCH   7   9
HETATM    9  C8  UNL     1      -6.212  18.852  26.326  1.00  0.00     0.149 C 
BRANCH   9  10
HETATM   10  C7  UNL     1      -5.307  18.200  25.384  1.00  0.00     0.256 C 
BRANCH  10  11
HETATM   11  N3  UNL     1      -4.879  18.933  24.233  1.00  0.00    -0.066 N 
HETATM   12  C5  UNL     1      -3.764  18.201  23.628  1.00  0.00     0.257 C 
HETATM   13  C4  UNL     1      -3.793  18.331  22.111  1.00  0.00     0.155 C 
HETATM   14  N2  UNL     1      -5.049  17.814  21.618  1.00  0.00    -0.331 N 
HETATM   15  C3  UNL     1      -5.268  17.570  20.264  1.00  0.00     0.318 C 
HETATM   16  C28 UNL     1      -6.093  17.619  22.624  1.00  0.00     0.155 C 
HETATM   17  N1  UNL     1      -4.285  17.913  19.281  1.00  0.00    -0.343 N 
HETATM   18  O1  UNL     1      -6.318  17.056  19.901  1.00  0.00    -0.247 OA
ATOM     19  H1  UNL     1      -3.415  18.363  19.564  1.00  0.00     0.164 HD
HETATM   20  C27 UNL     1      -6.060  19.001  23.369  1.00  0.00     0.257 C 
HETATM   21  C6  UNL     1      -4.433  20.266  24.495  1.00  0.00     0.272 C 
BRANCH  17  22
HETATM   22  C2  UNL     1      -4.527  17.621  17.905  1.00  0.00     0.120 C 
HETATM   23  C1  UNL     1      -3.826  16.352  17.513  1.00  0.00     0.026 C 
ENDBRANCH  17  22
ENDBRANCH  10  11
ENDBRANCH   9  10
ENDBRANCH   7   9
ENDBRANCH   5   7
BRANCH   5  24
HETATM   24  C10 UNL     1      -7.179  16.488  28.134  1.00  0.00     0.044 C 
HETATM   25  C11 UNL     1      -8.055  16.334  29.113  1.00  0.00    -0.022 C 
BRANCH  25  26
HETATM   26  C12 UNL     1      -9.469  16.603  28.819  1.00  0.00     0.037 C 
BRANCH  26  27
HETATM   27  C13 UNL     1     -10.001  17.187  30.186  1.00  0.00     0.122 C 
BRANCH  27  28
HETATM   28  C14 UNL     1     -10.120  16.052  31.163  1.00  0.00     0.286 C 
HETATM   29  O2  UNL     1     -10.741  15.047  30.656  1.00  0.00    -0.258 OA
HETATM   30  N5  UNL     1      -9.589  16.147  32.352  1.00  0.00    -0.415 NA
BRANCH  30  31
HETATM   31  C15 UNL     1      -9.015  16.230  33.654  1.00  0.00     0.223 C 
BRANCH  31  32
HETATM   32  C16 UNL     1     -10.138  16.303  34.692  1.00  0.00     0.061 C 
BRANCH  32  33
HETATM   33  C17 UNL     1     -10.975  15.081  34.861  1.00  0.00     0.235 C 
BRANCH  33  34
HETATM   34  N6  UNL     1     -11.581  14.401  33.809  1.00  0.00    -0.067 N 
ATOM     35  H62 UNL     1     -10.983  14.380  32.984  1.00  0.00     0.277 HD
ATOM     36  H61 UNL     1     -11.632  13.399  33.993  1.00  0.00     0.277 HD
BRANCH  34  37
HETATM   37  C18 UNL     1     -12.873  14.944  33.507  1.00  0.00     0.334 C 
BRANCH  37  38
HETATM   38  C19 UNL     1     -13.794  13.942  32.884  1.00  0.00     0.243 C 
HETATM   39  O3  UNL     1     -15.003  14.213  32.630  1.00  0.00    -0.272 OA
HETATM   40  N7  UNL     1     -13.270  12.694  32.574  1.00  0.00    -0.360 N 
ATOM     41  H7  UNL     1     -12.309  12.545  32.880  1.00  0.00     0.162 HD
BRANCH  40  42
HETATM   42  C20 UNL     1     -13.858  11.593  31.900  1.00  0.00     0.122 C 
BRANCH  42  43
HETATM   43  C21 UNL     1     -12.951  11.356  30.648  1.00  0.00     0.021 C 
BRANCH  43  44
HETATM   44  C22 UNL     1     -13.693  12.163  29.578  1.00  0.00     0.021 C 
BRANCH  44  45
HETATM   45  C23 UNL     1     -12.791  12.959  28.660  1.00  0.00     0.122 C 
BRANCH  45  46
HETATM   46  N8  UNL     1     -13.123  14.369  28.874  1.00  0.00    -0.365 N 
HETATM   47  C24 UNL     1     -12.843  15.334  27.866  1.00  0.00     0.181 C 
HETATM   48  N9  UNL     1     -13.242  16.566  27.962  1.00  0.00    -0.374 N 
HETATM   49  N10 UNL     1     -12.081  14.934  26.722  1.00  0.00    -0.064 NA
ATOM     50  H92 UNL     1     -13.784  16.851  28.777  1.00  0.00     0.158 HD
ATOM     51  H91 UNL     1     -13.041  17.258  27.240  1.00  0.00     0.158 HD
ATOM     52  H8  UNL     1     -13.557  14.662  29.749  1.00  0.00     0.162 HD
ENDBRANCH  45  46
ENDBRANCH  44  45
ENDBRANCH  43  44
ENDBRANCH  42  43
ENDBRANCH  40  42
ENDBRANCH  37  38
ENDBRANCH  34  37
ENDBRANCH  33  34
ENDBRANCH  32  33
ENDBRANCH  31  32
ENDBRANCH  30  31
ENDBRANCH  27  28
ENDBRANCH  26  27
ENDBRANCH  25  26
ENDBRANCH   5  24
ENDBRANCH   1   4
TORSDOF 21
ENDMDL
MODEL 5
REMARK VINA RESULT: -7.357950069      3.284     11.678
REMARK  21 active torsions:
REMARK  status: ('A' for Active; 'I' for Inactive)
REMARK    1  A    between atoms: C2_2  and  N1_3 
REMARK       I    between atoms: N1_3  and  C3_5 
REMARK       I    between atoms: C3_5  and  N2_7 
REMARK    2  A    between atoms: N3_10  and  C7_12 
REMARK    3  A    between atoms: C7_12  and  C8_13 
REMARK    4  A    between atoms: C8_13  and  N4_14 
REMARK    5  A    between atoms: N4_14  and  C9_16 
REMARK    6  A    between atoms: C9_16  and  C10_17 
REMARK    7  A    between atoms: C11_18  and  C12_19 
REMARK    8  A    between atoms: C12_19  and  C13_20 
REMARK    9  A    between atoms: C13_20  and  C14_21 
REMARK       I    between atoms: C14_21  and  N5_23 
REMARK   10  A    between atoms: N5_23  and  C15_24 
REMARK   11  A    between atoms: C15_24  and  C16_25 
REMARK   12  A    between atoms: C16_25  and  C17_26 
REMARK   13  A    between atoms: C17_26  and  N6_27 
REMARK   14  A    between atoms: N6_27  and  C18_30 
REMARK   15  A    between atoms: C18_30  and  C19_31 
REMARK       I    between atoms: C19_31  and  N7_33 
REMARK   16  A    between atoms: N7_33  and  C20_35 
REMARK   17  A    between atoms: C20_35  and  C21_36 
REMARK   18  A    between atoms: C21_36  and  C22_37 
REMARK   19  A    between atoms: C22_37  and  C23_38 
REMARK   20  A    between atoms: C23_38  and  N8_39 
REMARK       I    between atoms: N8_39  and  C24_41 
REMARK   21  A    between atoms: N11_46  and  C25_48 
ROOT
HETATM    1  C25 UNL     1      -7.017  17.749  24.782  1.00  0.00     0.245 C 
HETATM    2  C26 UNL     1      -6.429  17.459  26.117  1.00  0.00     0.078 C 
HETATM    3  N12 UNL     1      -5.987  17.217  27.172  1.00  0.00    -0.196 NA
ENDROOT
BRANCH   1   4
HETATM    4  N11 UNL     1      -7.281  16.499  24.175  1.00  0.00    -0.364 N 
HETATM    5  C9  UNL     1      -8.497  16.001  24.107  1.00  0.00     0.097 C 
ATOM      6  H11 UNL     1      -6.506  15.968  23.777  1.00  0.00     0.162 HD
BRANCH   5   7
HETATM    7  N4  UNL     1      -9.457  16.840  24.717  1.00  0.00    -0.375 N 
ATOM      8  H4  UNL     1      -9.625  17.804  24.428  1.00  0.00     0.161 HD
BRANCH   7   9
HETATM    9  C8  UNL     1     -10.199  16.175  25.825  1.00  0.00     0.149 C 
BRANCH   9  10
HETATM   10  C7  UNL     1      -9.911  16.700  27.156  1.00  0.00     0.256 C 
BRANCH  10  11
HETATM   11  N3  UNL     1     -10.687  16.223  28.259  1.00  0.00    -0.066 N 
HETATM   12  C5  UNL     1     -10.099  14.958  28.704  1.00  0.00     0.257 C 
HETATM   13  C4  UNL     1     -10.217  14.809  30.214  1.00  0.00     0.155 C 
HETATM   14  N2  UNL     1      -9.543  15.917  30.851  1.00  0.00    -0.331 N 
HETATM   15  C3  UNL     1      -9.268  15.930  32.216  1.00  0.00     0.318 C 
HETATM   16  C28 UNL     1      -9.221  17.049  29.981  1.00  0.00     0.155 C 
HETATM   17  N1  UNL     1      -9.728  14.880  33.074  1.00  0.00    -0.343 N 
HETATM   18  O1  UNL     1      -8.623  16.852  32.698  1.00  0.00    -0.247 OA
ATOM     19  H1  UNL     1     -10.286  14.117  32.694  1.00  0.00     0.164 HD
HETATM   20  C27 UNL     1     -10.601  17.283  29.265  1.00  0.00     0.257 C 
HETATM   21  C6  UNL     1     -12.066  15.985  27.970  1.00  0.00     0.272 C 
BRANCH  17  22
HETATM   22  C2  UNL     1      -9.402  14.906  34.464  1.00  0.00     0.120 C 
HETATM   23  C1  UNL     1     -10.542  15.483  35.253  1.00  0.00     0.026 C 
ENDBRANCH  17  22
ENDBRANCH  10  11
ENDBRANCH   9  10
ENDBRANCH   7   9
ENDBRANCH   5   7
BRANCH   5  24
HETATM   24  C10 UNL     1      -8.749  14.886  23.237  1.00  0.00     0.044 C 
HETATM   25  C11 UNL     1      -9.236  15.102  22.027  1.00  0.00    -0.022 C 
BRANCH  25  26
HETATM   26  C12 UNL     1      -9.449  16.495  21.610  1.00  0.00     0.037 C 
BRANCH  26  27
HETATM   27  C13 UNL     1      -8.522  16.622  20.338  1.00  0.00     0.122 C 
BRANCH  27  28
HETATM   28  C14 UNL     1      -7.316  17.432  20.720  1.00  0.00     0.286 C 
HETATM   29  O2  UNL     1      -7.628  18.436  21.459  1.00  0.00    -0.258 OA
HETATM   30  N5  UNL     1      -6.124  17.063  20.334  1.00  0.00    -0.415 NA
BRANCH  30  31
HETATM   31  C15 UNL     1      -4.815  16.676  19.926  1.00  0.00     0.223 C 
BRANCH  31  32
HETATM   32  C16 UNL     1      -3.815  17.747  20.370  1.00  0.00     0.061 C 
BRANCH  32  33
HETATM   33  C17 UNL     1      -3.836  18.127  21.810  1.00  0.00     0.235 C 
BRANCH  33  34
HETATM   34  N6  UNL     1      -4.051  17.229  22.851  1.00  0.00    -0.067 N 
ATOM     35  H62 UNL     1      -5.044  17.133  23.063  1.00  0.00     0.277 HD
ATOM     36  H61 UNL     1      -3.859  16.270  22.561  1.00  0.00     0.277 HD
BRANCH  34  37
HETATM   37  C18 UNL     1      -3.297  17.585  24.017  1.00  0.00     0.334 C 
BRANCH  37  38
HETATM   38  C19 UNL     1      -1.836  17.290  23.877  1.00  0.00     0.243 C 
HETATM   39  O3  UNL     1      -0.976  18.211  23.766  1.00  0.00    -0.272 OA
HETATM   40  N7  UNL     1      -1.446  15.958  23.890  1.00  0.00    -0.360 N 
ATOM     41  H7  UNL     1      -2.214  15.287  23.912  1.00  0.00     0.162 HD
BRANCH  40  42
HETATM   42  C20 UNL     1      -0.150  15.380  23.878  1.00  0.00     0.122 C 
BRANCH  42  43
HETATM   43  C21 UNL     1      -0.360  13.934  23.323  1.00  0.00     0.021 C 
BRANCH  43  44
HETATM   44  C22 UNL     1      -0.805  13.186  24.583  1.00  0.00     0.021 C 
BRANCH  44  45
HETATM   45  C23 UNL     1       0.198  13.218  25.715  1.00  0.00     0.122 C 
BRANCH  45  46
HETATM   46  N8  UNL     1      -0.427  12.525  26.843  1.00  0.00    -0.365 N 
HETATM   47  C24 UNL     1       0.091  12.681  28.159  1.00  0.00     0.181 C 
HETATM   48  N9  UNL     1      -0.513  12.191  29.200  1.00  0.00    -0.374 N 
HETATM   49  N10 UNL     1       1.325  13.383  28.335  1.00  0.00    -0.064 NA
ATOM     50  H92 UNL     1      -1.392  11.691  29.074  1.00  0.00     0.158 HD
ATOM     51  H91 UNL     1      -0.142  12.304  30.143  1.00  0.00     0.158 HD
ATOM     52  H8  UNL     1      -1.237  11.926  26.685  1.00  0.00     0.162 HD
ENDBRANCH  45  46
ENDBRANCH  44  45
ENDBRANCH  43  44
ENDBRANCH  42  43
ENDBRANCH  40  42
ENDBRANCH  37  38
ENDBRANCH  34  37
ENDBRANCH  33  34
ENDBRANCH  32  33
ENDBRANCH  31  32
ENDBRANCH  30  31
ENDBRANCH  27  28
ENDBRANCH  26  27
ENDBRANCH  25  26
ENDBRANCH   5  24
ENDBRANCH   1   4
TORSDOF 21
ENDMDL
