MODEL 1
REMARK VINA RESULT: -5.819922226      0.000      0.000
REMARK  17 active torsions:
REMARK  status: ('A' for Active; 'I' for Inactive)
REMARK    1  A    between atoms: C2_2  and  O2_4 
REMARK    2  A    between atoms: O2_4  and  C3_5 
REMARK    3  A    between atoms: C4_6  and  O3_7 
REMARK    4  A    between atoms: C5_12  and  O4_13 
REMARK    5  A    between atoms: O4_13  and  C6_14 
REMARK    6  A    between atoms: C7_15  and  O5_16 
REMARK    7  A    between atoms: C8_18  and  O6_19 
REMARK    8  A    between atoms: C9_21  and  N2_22 
REMARK    9  A    between atoms: C10_26  and  N3_27 
REMARK   10  A    between atoms: C14_38  and  O9_39 
REMARK   11  A    between atoms: C15_41  and  O10_42 
REMARK   12  A    between atoms: C16_44  and  N6_45 
REMARK   13  A    between atoms: C17_52  and  C18_53 
REMARK   14  A    between atoms: C18_53  and  C19_54 
REMARK   15  A    between atoms: C18_53  and  S2_61 
REMARK   16  A    between atoms: C19_54  and  S1_55 
REMARK   17  A    between atoms: S1_55  and  C20_56 
ROOT
HETATM    1  C3  UNL     1      33.604   2.758   5.082  1.00  0.00     0.215 C 
HETATM    2  C4  UNL     1      33.910   3.419   3.771  1.00  0.00     0.353 C 
HETATM    3  N1  UNL     1      32.805   4.109   3.170  1.00  0.00    -0.018 N 
ATOM      4  H11 UNL     1      33.032   4.391   2.217  1.00  0.00     0.283 HD
ATOM      5  H12 UNL     1      32.681   5.028   3.595  1.00  0.00     0.283 HD
HETATM    6  C5  UNL     1      31.565   3.360   3.200  1.00  0.00     0.355 C 
HETATM    7  C15 UNL     1      31.911   1.919   3.549  1.00  0.00     0.202 C 
HETATM    8  C16 UNL     1      32.384   1.935   4.970  1.00  0.00     0.178 C 
ENDROOT
BRANCH   6   9
HETATM    9  O4  UNL     1      30.812   3.515   2.072  1.00  0.00    -0.346 OA
BRANCH   9  10
HETATM   10  C6  UNL     1      29.593   4.166   2.292  1.00  0.00     0.186 C 
HETATM   11  C7  UNL     1      29.345   4.605   3.677  1.00  0.00     0.180 C 
HETATM   12  C8  UNL     1      28.460   3.744   4.522  1.00  0.00     0.182 C 
HETATM   13  C9  UNL     1      27.214   3.417   3.729  1.00  0.00     0.239 C 
HETATM   14  C10 UNL     1      27.718   2.502   2.604  1.00  0.00     0.147 C 
HETATM   15  C14 UNL     1      28.462   3.394   1.652  1.00  0.00     0.174 C 
BRANCH  11  16
HETATM   16  O5  UNL     1      28.790   5.907   3.682  1.00  0.00    -0.390 OA
ATOM     17  H5  UNL     1      29.476   6.553   3.802  1.00  0.00     0.210 HD
ENDBRANCH  11  16
BRANCH  12  18
HETATM   18  O6  UNL     1      28.126   4.471   5.665  1.00  0.00    -0.391 OA
ATOM     19  H6  UNL     1      28.259   3.906   6.417  1.00  0.00     0.210 HD
ENDBRANCH  12  18
BRANCH  13  20
HETATM   20  N2  UNL     1      26.171   2.827   4.503  1.00  0.00    -0.070 N 
ATOM     21  H23 UNL     1      26.536   2.067   5.077  1.00  0.00     0.274 HD
ATOM     22  H22 UNL     1      25.866   3.466   5.238  1.00  0.00     0.274 HD
ATOM     23  H21 UNL     1      25.375   2.509   3.952  1.00  0.00     0.274 HD
ENDBRANCH  13  20
BRANCH  14  24
HETATM   24  N3  UNL     1      26.574   1.967   1.943  1.00  0.00    -0.362 N 
HETATM   25  C11 UNL     1      26.451   0.821   1.414  1.00  0.00     0.175 A 
HETATM   26  N4  UNL     1      25.244   0.395   0.775  1.00  0.00    -0.290 N 
HETATM   27  C13 UNL     1      27.380  -0.275   1.310  1.00  0.00     0.293 A 
HETATM   28  C12 UNL     1      25.413  -0.927   0.283  1.00  0.00     0.328 A 
ATOM     29  H4  UNL     1      24.395   0.953   0.685  1.00  0.00     0.172 HD
HETATM   30  O7  UNL     1      24.577  -1.642  -0.337  1.00  0.00    -0.247 OA
HETATM   31  N5  UNL     1      26.724  -1.319   0.620  1.00  0.00    -0.272 N 
ATOM     32  H5  UNL     1      27.138  -2.224   0.398  1.00  0.00     0.174 HD
HETATM   33  O8  UNL     1      28.548  -0.333   1.731  1.00  0.00    -0.264 OA
ATOM     34  H3  UNL     1      25.759   2.578   1.889  1.00  0.00     0.161 HD
ENDBRANCH  14  24
BRANCH  15  35
HETATM   35  O9  UNL     1      27.527   4.253   1.077  1.00  0.00    -0.391 OA
ATOM     36  H9  UNL     1      27.200   4.879   1.712  1.00  0.00     0.210 HD
ENDBRANCH  15  35
ENDBRANCH   9  10
ENDBRANCH   6   9
BRANCH   7  37
HETATM   37  O10 UNL     1      30.771   1.119   3.393  1.00  0.00    -0.389 OA
ATOM     38  H10 UNL     1      31.025   0.204   3.405  1.00  0.00     0.210 HD
ENDBRANCH   7  37
BRANCH   2  39
HETATM   39  O3  UNL     1      34.912   4.414   3.944  1.00  0.00    -0.368 OA
ATOM     40  H3  UNL     1      35.642   4.250   3.359  1.00  0.00     0.212 HD
ENDBRANCH   2  39
BRANCH   8  41
HETATM   41  N6  UNL     1      32.393   0.659   5.622  1.00  0.00    -0.252 N 
HETATM   42  N7  UNL     1      31.587   0.312   6.642  1.00  0.00    -0.224 N 
HETATM   43  N8  UNL     1      31.810  -0.905   7.037  1.00  0.00    -0.227 N 
ATOM     44  H7  UNL     1      30.888   0.928   7.054  1.00  0.00     0.210 HD
HETATM   45  N9  UNL     1      32.768  -1.376   6.281  1.00  0.00    -0.271 N 
ATOM     46  H8  UNL     1      31.331  -1.399   7.790  1.00  0.00     0.210 HD
HETATM   47  C17 UNL     1      33.144  -0.426   5.399  1.00  0.00     0.138 A 
ATOM     48  H9  UNL     1      33.168  -2.313   6.347  1.00  0.00     0.190 HD
BRANCH  47  49
HETATM   49  C18 UNL     1      34.204  -0.552   4.362  1.00  0.00     0.210 C 
BRANCH  49  50
HETATM   50  C19 UNL     1      34.212  -2.048   3.993  1.00  0.00     0.113 C 
BRANCH  50  51
HETATM   51  S1  UNL     1      33.215  -2.234   2.518  1.00  0.00    -0.096 SA
BRANCH  51  52
HETATM   52  C20 UNL     1      31.541  -2.660   2.828  1.00  0.00     0.147 C 
HETATM   53  N10 UNL     1      30.652  -1.752   2.965  1.00  0.00    -0.382 N 
ATOM     54 2H10 UNL     1      30.919  -0.771   2.894  1.00  0.00     0.157 HD
ATOM     55 1H10 UNL     1      29.679  -2.000   3.145  1.00  0.00     0.157 HD
HETATM   56  N11 UNL     1      31.173  -4.011   2.926  1.00  0.00    -0.075 NA
ENDBRANCH  51  52
ENDBRANCH  50  51
ENDBRANCH  49  50
BRANCH  49  57
HETATM   57  S2  UNL     1      35.821  -0.235   5.057  1.00  0.00     0.114 S 
HETATM   58  O11 UNL     1      36.683  -1.453   4.966  1.00  0.00    -0.594 OA
HETATM   59  O12 UNL     1      35.678   0.218   6.506  1.00  0.00    -0.594 OA
HETATM   60  O13 UNL     1      36.592   1.019   4.261  1.00  0.00    -0.594 OA
ENDBRANCH  49  57
ENDBRANCH  47  49
ENDBRANCH   8  41
BRANCH   1  61
HETATM   61  O2  UNL     1      33.616   3.650   6.169  1.00  0.00    -0.310 OA
BRANCH  61  62
HETATM   62  C2  UNL     1      34.006   3.355   7.446  1.00  0.00     0.255 C 
HETATM   63  C1  UNL     1      35.310   3.778   7.997  1.00  0.00     0.126 C 
HETATM   64  O1  UNL     1      33.224   2.701   8.171  1.00  0.00    -0.266 OA
ENDBRANCH  61  62
ENDBRANCH   1  61
TORSDOF 17
ENDMDL
MODEL 2
REMARK VINA RESULT: -5.720646600      3.119      5.313
REMARK  17 active torsions:
REMARK  status: ('A' for Active; 'I' for Inactive)
REMARK    1  A    between atoms: C2_2  and  O2_4 
REMARK    2  A    between atoms: O2_4  and  C3_5 
REMARK    3  A    between atoms: C4_6  and  O3_7 
REMARK    4  A    between atoms: C5_12  and  O4_13 
REMARK    5  A    between atoms: O4_13  and  C6_14 
REMARK    6  A    between atoms: C7_15  and  O5_16 
REMARK    7  A    between atoms: C8_18  and  O6_19 
REMARK    8  A    between atoms: C9_21  and  N2_22 
REMARK    9  A    between atoms: C10_26  and  N3_27 
REMARK   10  A    between atoms: C14_38  and  O9_39 
REMARK   11  A    between atoms: C15_41  and  O10_42 
REMARK   12  A    between atoms: C16_44  and  N6_45 
REMARK   13  A    between atoms: C17_52  and  C18_53 
REMARK   14  A    between atoms: C18_53  and  C19_54 
REMARK   15  A    between atoms: C18_53  and  S2_61 
REMARK   16  A    between atoms: C19_54  and  S1_55 
REMARK   17  A    between atoms: S1_55  and  C20_56 
ROOT
HETATM    1  C3  UNL     1      33.428   2.651   6.410  1.00  0.00     0.215 C 
HETATM    2  C4  UNL     1      32.105   2.461   7.091  1.00  0.00     0.353 C 
HETATM    3  N1  UNL     1      31.013   2.155   6.212  1.00  0.00    -0.018 N 
ATOM      4  H11 UNL     1      30.125   2.201   6.712  1.00  0.00     0.283 HD
ATOM      5  H12 UNL     1      31.018   1.165   5.964  1.00  0.00     0.283 HD
HETATM    6  C5  UNL     1      30.974   2.980   5.023  1.00  0.00     0.355 C 
HETATM    7  C15 UNL     1      31.909   4.159   5.254  1.00  0.00     0.202 C 
HETATM    8  C16 UNL     1      33.295   3.594   5.283  1.00  0.00     0.178 C 
ENDROOT
BRANCH   6   9
HETATM    9  O4  UNL     1      29.707   3.315   4.639  1.00  0.00    -0.346 OA
BRANCH   9  10
HETATM   10  C6  UNL     1      29.302   2.715   3.441  1.00  0.00     0.186 C 
HETATM   11  C7  UNL     1      29.889   3.282   2.214  1.00  0.00     0.180 C 
HETATM   12  C8  UNL     1      29.049   4.239   1.429  1.00  0.00     0.182 C 
HETATM   13  C9  UNL     1      27.674   3.635   1.253  1.00  0.00     0.239 C 
HETATM   14  C10 UNL     1      27.081   3.638   2.668  1.00  0.00     0.147 C 
HETATM   15  C14 UNL     1      27.800   2.553   3.417  1.00  0.00     0.174 C 
BRANCH  11  16
HETATM   16  O5  UNL     1      30.270   2.242   1.333  1.00  0.00    -0.390 OA
ATOM     17  H5  UNL     1      31.020   2.510   0.816  1.00  0.00     0.210 HD
ENDBRANCH  11  16
BRANCH  12  18
HETATM   18  O6  UNL     1      29.659   4.421   0.188  1.00  0.00    -0.391 OA
ATOM     19  H6  UNL     1      29.060   4.104  -0.478  1.00  0.00     0.210 HD
ENDBRANCH  12  18
BRANCH  13  20
HETATM   20  N2  UNL     1      26.857   4.318   0.304  1.00  0.00    -0.070 N 
ATOM     21  H23 UNL     1      25.887   4.340   0.616  1.00  0.00     0.274 HD
ATOM     22  H22 UNL     1      27.063   5.317   0.308  1.00  0.00     0.274 HD
ATOM     23  H21 UNL     1      26.919   3.943  -0.643  1.00  0.00     0.274 HD
ENDBRANCH  13  20
BRANCH  14  24
HETATM   24  N3  UNL     1      25.703   3.292   2.556  1.00  0.00    -0.362 N 
HETATM   25  C11 UNL     1      24.785   3.482   3.409  1.00  0.00     0.175 A 
HETATM   26  N4  UNL     1      23.429   3.088   3.180  1.00  0.00    -0.290 N 
HETATM   27  C13 UNL     1      24.821   4.085   4.717  1.00  0.00     0.293 A 
HETATM   28  C12 UNL     1      22.641   3.432   4.310  1.00  0.00     0.328 A 
ATOM     29  H4  UNL     1      23.082   2.630   2.337  1.00  0.00     0.172 HD
HETATM   30  O7  UNL     1      21.404   3.247   4.487  1.00  0.00    -0.247 OA
HETATM   31  N5  UNL     1      23.509   4.040   5.238  1.00  0.00    -0.272 N 
ATOM     32  H5  UNL     1      23.231   4.396   6.153  1.00  0.00     0.174 HD
HETATM   33  O8  UNL     1      25.801   4.566   5.313  1.00  0.00    -0.264 OA
ATOM     34  H3  UNL     1      25.423   2.838   1.687  1.00  0.00     0.161 HD
ENDBRANCH  14  24
BRANCH  15  35
HETATM   35  O9  UNL     1      27.434   1.339   2.835  1.00  0.00    -0.391 OA
ATOM     36  H9  UNL     1      26.552   1.090   3.087  1.00  0.00     0.210 HD
ENDBRANCH  15  35
ENDBRANCH   9  10
ENDBRANCH   6   9
BRANCH   7  37
HETATM   37  O10 UNL     1      31.750   5.087   4.215  1.00  0.00    -0.389 OA
ATOM     38  H10 UNL     1      31.853   5.965   4.560  1.00  0.00     0.210 HD
ENDBRANCH   7  37
BRANCH   2  39
HETATM   39  O3  UNL     1      32.169   1.362   7.992  1.00  0.00    -0.368 OA
ATOM     40  H3  UNL     1      32.727   1.576   8.731  1.00  0.00     0.212 HD
ENDBRANCH   2  39
BRANCH   8  41
HETATM   41  N6  UNL     1      34.346   4.551   5.102  1.00  0.00    -0.252 N 
HETATM   42  N7  UNL     1      35.077   5.087   6.096  1.00  0.00    -0.224 N 
HETATM   43  N8  UNL     1      35.961   5.924   5.644  1.00  0.00    -0.227 N 
ATOM     44  H7  UNL     1      34.952   4.863   7.082  1.00  0.00     0.210 HD
HETATM   45  N9  UNL     1      35.823   5.951   4.344  1.00  0.00    -0.271 N 
ATOM     46  H8  UNL     1      36.633   6.457   6.196  1.00  0.00     0.210 HD
HETATM   47  C17 UNL     1      34.829   5.110   3.986  1.00  0.00     0.138 A 
ATOM     48  H9  UNL     1      36.378   6.518   3.702  1.00  0.00     0.190 HD
BRANCH  47  49
HETATM   49  C18 UNL     1      34.350   4.846   2.602  1.00  0.00     0.210 C 
BRANCH  49  50
HETATM   50  C19 UNL     1      35.635   4.622   1.781  1.00  0.00     0.113 C 
BRANCH  50  51
HETATM   51  S1  UNL     1      35.270   3.361   0.564  1.00  0.00    -0.096 SA
BRANCH  51  52
HETATM   52  C20 UNL     1      33.593   2.844   0.540  1.00  0.00     0.147 C 
HETATM   53  N10 UNL     1      32.733   3.455  -0.183  1.00  0.00    -0.382 N 
ATOM     54 2H10 UNL     1      33.027   4.249  -0.752  1.00  0.00     0.157 HD
ATOM     55 1H10 UNL     1      31.758   3.155  -0.197  1.00  0.00     0.157 HD
HETATM   56  N11 UNL     1      33.189   1.752   1.323  1.00  0.00    -0.075 NA
ENDBRANCH  51  52
ENDBRANCH  50  51
ENDBRANCH  49  50
BRANCH  49  57
HETATM   57  S2  UNL     1      33.596   6.306   1.897  1.00  0.00     0.114 S 
HETATM   58  O11 UNL     1      34.446   6.862   0.799  1.00  0.00    -0.594 OA
HETATM   59  O12 UNL     1      33.374   7.348   2.987  1.00  0.00    -0.594 OA
HETATM   60  O13 UNL     1      32.080   5.968   1.273  1.00  0.00    -0.594 OA
ENDBRANCH  49  57
ENDBRANCH  47  49
ENDBRANCH   8  41
BRANCH   1  61
HETATM   61  O2  UNL     1      34.069   1.441   6.095  1.00  0.00    -0.310 OA
BRANCH  61  62
HETATM   62  C2  UNL     1      34.087   0.836   4.868  1.00  0.00     0.255 C 
HETATM   63  C1  UNL     1      35.279   0.843   3.996  1.00  0.00     0.126 C 
HETATM   64  O1  UNL     1      33.050   0.257   4.476  1.00  0.00    -0.266 OA
ENDBRANCH  61  62
ENDBRANCH   1  61
TORSDOF 17
ENDMDL
MODEL 3
REMARK VINA RESULT: -5.717277565      3.265      9.049
REMARK  17 active torsions:
REMARK  status: ('A' for Active; 'I' for Inactive)
REMARK    1  A    between atoms: C2_2  and  O2_4 
REMARK    2  A    between atoms: O2_4  and  C3_5 
REMARK    3  A    between atoms: C4_6  and  O3_7 
REMARK    4  A    between atoms: C5_12  and  O4_13 
REMARK    5  A    between atoms: O4_13  and  C6_14 
REMARK    6  A    between atoms: C7_15  and  O5_16 
REMARK    7  A    between atoms: C8_18  and  O6_19 
REMARK    8  A    between atoms: C9_21  and  N2_22 
REMARK    9  A    between atoms: C10_26  and  N3_27 
REMARK   10  A    between atoms: C14_38  and  O9_39 
REMARK   11  A    between atoms: C15_41  and  O10_42 
REMARK   12  A    between atoms: C16_44  and  N6_45 
REMARK   13  A    between atoms: C17_52  and  C18_53 
REMARK   14  A    between atoms: C18_53  and  C19_54 
REMARK   15  A    between atoms: C18_53  and  S2_61 
REMARK   16  A    between atoms: C19_54  and  S1_55 
REMARK   17  A    between atoms: S1_55  and  C20_56 
ROOT
HETATM    1  C3  UNL     1      29.555   0.215   1.419  1.00  0.00     0.215 C 
HETATM    2  C4  UNL     1      30.906  -0.407   1.216  1.00  0.00     0.353 C 
HETATM    3  N1  UNL     1      31.755  -0.397   2.372  1.00  0.00    -0.018 N 
ATOM      4  H11 UNL     1      32.703  -0.680   2.125  1.00  0.00     0.283 HD
ATOM      5  H12 UNL     1      31.509  -1.157   3.005  1.00  0.00     0.283 HD
HETATM    6  C5  UNL     1      31.766   0.871   3.074  1.00  0.00     0.355 C 
HETATM    7  C15 UNL     1      31.140   1.909   2.153  1.00  0.00     0.202 C 
HETATM    8  C16 UNL     1      29.692   1.547   2.039  1.00  0.00     0.178 C 
ENDROOT
BRANCH   6   9
HETATM    9  O4  UNL     1      32.995   1.204   3.568  1.00  0.00    -0.346 OA
BRANCH   9  10
HETATM   10  C6  UNL     1      33.154   0.917   4.928  1.00  0.00     0.186 C 
HETATM   11  C7  UNL     1      32.086   1.414   5.814  1.00  0.00     0.180 C 
HETATM   12  C8  UNL     1      32.352   2.679   6.567  1.00  0.00     0.182 C 
HETATM   13  C9  UNL     1      33.714   2.570   7.216  1.00  0.00     0.239 C 
HETATM   14  C10 UNL     1      34.693   2.588   6.035  1.00  0.00     0.147 C 
HETATM   15  C14 UNL     1      34.561   1.246   5.373  1.00  0.00     0.174 C 
BRANCH  11  16
HETATM   16  O5  UNL     1      31.745   0.424   6.765  1.00  0.00    -0.390 OA
ATOM     17  H5  UNL     1      31.444   0.833   7.568  1.00  0.00     0.210 HD
ENDBRANCH  11  16
BRANCH  12  18
HETATM   18  O6  UNL     1      31.363   2.808   7.542  1.00  0.00    -0.391 OA
ATOM     19  H6  UNL     1      31.576   3.567   8.072  1.00  0.00     0.210 HD
ENDBRANCH  12  18
BRANCH  13  20
HETATM   20  N2  UNL     1      33.982   3.590   8.178  1.00  0.00    -0.070 N 
ATOM     21  H23 UNL     1      34.890   4.019   8.002  1.00  0.00     0.274 HD
ATOM     22  H22 UNL     1      33.377   4.396   8.022  1.00  0.00     0.274 HD
ATOM     23  H21 UNL     1      33.916   3.274   9.146  1.00  0.00     0.274 HD
ENDBRANCH  13  20
BRANCH  14  24
HETATM   24  N3  UNL     1      36.008   2.715   6.570  1.00  0.00    -0.362 N 
HETATM   25  C11 UNL     1      36.701   3.771   6.676  1.00  0.00     0.175 A 
HETATM   26  N4  UNL     1      38.018   3.774   7.234  1.00  0.00    -0.290 N 
HETATM   27  C13 UNL     1      36.407   5.134   6.312  1.00  0.00     0.293 A 
HETATM   28  C12 UNL     1      38.535   5.096   7.219  1.00  0.00     0.328 A 
ATOM     29  H4  UNL     1      38.510   2.953   7.588  1.00  0.00     0.172 HD
HETATM   30  O7  UNL     1      39.660   5.501   7.624  1.00  0.00    -0.247 OA
HETATM   31  N5  UNL     1      37.536   5.913   6.652  1.00  0.00    -0.272 N 
ATOM     32  H5  UNL     1      37.616   6.920   6.507  1.00  0.00     0.174 HD
HETATM   33  O8  UNL     1      35.371   5.583   5.792  1.00  0.00    -0.264 OA
ATOM     34  H3  UNL     1      36.441   1.856   6.907  1.00  0.00     0.161 HD
ENDBRANCH  14  24
BRANCH  15  35
HETATM   35  O9  UNL     1      35.040   0.294   6.272  1.00  0.00    -0.391 OA
ATOM     36  H9  UNL     1      35.800   0.618   6.741  1.00  0.00     0.210 HD
ENDBRANCH  15  35
ENDBRANCH   9  10
ENDBRANCH   6   9
BRANCH   7  37
HETATM   37  O10 UNL     1      31.312   3.184   2.708  1.00  0.00    -0.389 OA
ATOM     38  H10 UNL     1      31.500   3.806   2.015  1.00  0.00     0.210 HD
ENDBRANCH   7  37
BRANCH   2  39
HETATM   39  O3  UNL     1      30.768  -1.782   0.876  1.00  0.00    -0.368 OA
ATOM     40  H3  UNL     1      30.506  -1.870  -0.033  1.00  0.00     0.212 HD
ENDBRANCH   2  39
BRANCH   8  41
HETATM   41  N6  UNL     1      28.842   2.589   1.545  1.00  0.00    -0.252 N 
HETATM   42  N7  UNL     1      28.867   3.071   0.289  1.00  0.00    -0.224 N 
HETATM   43  N8  UNL     1      27.987   4.010   0.118  1.00  0.00    -0.227 N 
ATOM     44  H7  UNL     1      29.500   2.740  -0.438  1.00  0.00     0.210 HD
HETATM   45  N9  UNL     1      27.369   4.160   1.261  1.00  0.00    -0.271 N 
ATOM     46  H8  UNL     1      27.811   4.530  -0.742  1.00  0.00     0.210 HD
HETATM   47  C17 UNL     1      27.882   3.291   2.158  1.00  0.00     0.138 A 
ATOM     48  H9  UNL     1      26.619   4.827   1.444  1.00  0.00     0.190 HD
BRANCH  47  49
HETATM   49  C18 UNL     1      27.462   3.137   3.577  1.00  0.00     0.210 C 
BRANCH  49  50
HETATM   50  C19 UNL     1      26.032   3.710   3.625  1.00  0.00     0.113 C 
BRANCH  50  51
HETATM   51  S1  UNL     1      25.021   2.534   4.520  1.00  0.00    -0.096 SA
BRANCH  51  52
HETATM   52  C20 UNL     1      24.293   3.175   5.983  1.00  0.00     0.147 C 
HETATM   53  N10 UNL     1      24.946   3.971   6.741  1.00  0.00    -0.382 N 
ATOM     54 2H10 UNL     1      25.898   4.235   6.492  1.00  0.00     0.157 HD
ATOM     55 1H10 UNL     1      24.522   4.343   7.591  1.00  0.00     0.157 HD
HETATM   56  N11 UNL     1      22.982   2.810   6.325  1.00  0.00    -0.075 NA
ENDBRANCH  51  52
ENDBRANCH  50  51
ENDBRANCH  49  50
BRANCH  49  57
HETATM   57  S2  UNL     1      28.425   4.196   4.649  1.00  0.00     0.114 S 
HETATM   58  O11 UNL     1      28.717   5.501   3.978  1.00  0.00    -0.594 OA
HETATM   59  O12 UNL     1      29.718   3.490   5.042  1.00  0.00    -0.594 OA
HETATM   60  O13 UNL     1      27.620   4.507   6.083  1.00  0.00    -0.594 OA
ENDBRANCH  49  57
ENDBRANCH  47  49
ENDBRANCH   8  41
BRANCH   1  61
HETATM   61  O2  UNL     1      28.640  -0.642   2.054  1.00  0.00    -0.310 OA
BRANCH  61  62
HETATM   62  C2  UNL     1      27.278  -0.596   1.932  1.00  0.00     0.255 C 
HETATM   63  C1  UNL     1      26.368  -1.090   2.986  1.00  0.00     0.126 C 
HETATM   64  O1  UNL     1      26.791  -0.117   0.884  1.00  0.00    -0.266 OA
ENDBRANCH  61  62
ENDBRANCH   1  61
TORSDOF 17
ENDMDL
MODEL 4
REMARK VINA RESULT: -5.693163547      2.977      4.580
REMARK  17 active torsions:
REMARK  status: ('A' for Active; 'I' for Inactive)
REMARK    1  A    between atoms: C2_2  and  O2_4 
REMARK    2  A    between atoms: O2_4  and  C3_5 
REMARK    3  A    between atoms: C4_6  and  O3_7 
REMARK    4  A    between atoms: C5_12  and  O4_13 
REMARK    5  A    between atoms: O4_13  and  C6_14 
REMARK    6  A    between atoms: C7_15  and  O5_16 
REMARK    7  A    between atoms: C8_18  and  O6_19 
REMARK    8  A    between atoms: C9_21  and  N2_22 
REMARK    9  A    between atoms: C10_26  and  N3_27 
REMARK   10  A    between atoms: C14_38  and  O9_39 
REMARK   11  A    between atoms: C15_41  and  O10_42 
REMARK   12  A    between atoms: C16_44  and  N6_45 
REMARK   13  A    between atoms: C17_52  and  C18_53 
REMARK   14  A    between atoms: C18_53  and  C19_54 
REMARK   15  A    between atoms: C18_53  and  S2_61 
REMARK   16  A    between atoms: C19_54  and  S1_55 
REMARK   17  A    between atoms: S1_55  and  C20_56 
ROOT
HETATM    1  C3  UNL     1      33.174   3.431   1.698  1.00  0.00     0.215 C 
HETATM    2  C4  UNL     1      32.094   3.332   0.661  1.00  0.00     0.353 C 
HETATM    3  N1  UNL     1      30.765   3.557   1.151  1.00  0.00    -0.018 N 
ATOM      4  H11 UNL     1      30.074   3.315   0.441  1.00  0.00     0.283 HD
ATOM      5  H12 UNL     1      30.578   4.555   1.239  1.00  0.00     0.283 HD
HETATM    6  C5  UNL     1      30.480   2.872   2.395  1.00  0.00     0.355 C 
HETATM    7  C15 UNL     1      31.577   1.837   2.609  1.00  0.00     0.202 C 
HETATM    8  C16 UNL     1      32.832   2.609   2.875  1.00  0.00     0.178 C 
ENDROOT
BRANCH   6   9
HETATM    9  O4  UNL     1      29.206   2.384   2.465  1.00  0.00    -0.346 OA
BRANCH   9  10
HETATM   10  C6  UNL     1      28.246   3.352   2.777  1.00  0.00     0.186 C 
HETATM   11  C7  UNL     1      28.483   4.106   4.022  1.00  0.00     0.180 C 
HETATM   12  C8  UNL     1      27.718   3.684   5.236  1.00  0.00     0.182 C 
HETATM   13  C9  UNL     1      26.262   3.532   4.854  1.00  0.00     0.239 C 
HETATM   14  C10 UNL     1      26.247   2.315   3.920  1.00  0.00     0.147 C 
HETATM   15  C14 UNL     1      26.855   2.781   2.629  1.00  0.00     0.174 C 
BRANCH  11  16
HETATM   16  O5  UNL     1      28.214   5.480   3.815  1.00  0.00    -0.390 OA
ATOM     17  H5  UNL     1      28.511   5.986   4.562  1.00  0.00     0.210 HD
ENDBRANCH  11  16
BRANCH  12  18
HETATM   18  O6  UNL     1      27.862   4.684   6.198  1.00  0.00    -0.391 OA
ATOM     19  H6  UNL     1      27.136   5.288   6.098  1.00  0.00     0.210 HD
ENDBRANCH  12  18
BRANCH  13  20
HETATM   20  N2  UNL     1      25.382   3.392   5.968  1.00  0.00    -0.070 N 
ATOM     21  H23 UNL     1      24.567   2.835   5.713  1.00  0.00     0.274 HD
ATOM     22  H22 UNL     1      25.793   2.783   6.675  1.00  0.00     0.274 HD
ATOM     23  H21 UNL     1      25.094   4.278   6.383  1.00  0.00     0.274 HD
ENDBRANCH  13  20
BRANCH  14  24
HETATM   24  N3  UNL     1      24.883   1.967   3.694  1.00  0.00    -0.362 N 
HETATM   25  C11 UNL     1      24.414   0.826   3.398  1.00  0.00     0.175 A 
HETATM   26  N4  UNL     1      23.017   0.599   3.192  1.00  0.00    -0.290 N 
HETATM   27  C13 UNL     1      25.069  -0.442   3.201  1.00  0.00     0.293 A 
HETATM   28  C12 UNL     1      22.803  -0.769   2.876  1.00  0.00     0.328 A 
ATOM     29  H4  UNL     1      22.288   1.309   3.262  1.00  0.00     0.172 HD
HETATM   30  O7  UNL     1      21.711  -1.352   2.629  1.00  0.00    -0.247 OA
HETATM   31  N5  UNL     1      24.069  -1.388   2.887  1.00  0.00    -0.272 N 
ATOM     32  H5  UNL     1      24.238  -2.376   2.695  1.00  0.00     0.174 HD
HETATM   33  O8  UNL     1      26.283  -0.699   3.282  1.00  0.00    -0.264 OA
ATOM     34  H3  UNL     1      24.206   2.724   3.780  1.00  0.00     0.161 HD
ENDBRANCH  14  24
BRANCH  15  35
HETATM   35  O9  UNL     1      25.982   3.717   2.076  1.00  0.00    -0.391 OA
ATOM     36  H9  UNL     1      26.039   4.549   2.530  1.00  0.00     0.210 HD
ENDBRANCH  15  35
ENDBRANCH   9  10
ENDBRANCH   6   9
BRANCH   7  37
HETATM   37  O10 UNL     1      31.234   1.017   3.693  1.00  0.00    -0.389 OA
ATOM     38  H10 UNL     1      31.381   1.490   4.503  1.00  0.00     0.210 HD
ENDBRANCH   7  37
BRANCH   2  39
HETATM   39  O3  UNL     1      32.286   4.321  -0.343  1.00  0.00    -0.368 OA
ATOM     40  H3  UNL     1      32.906   4.013  -0.994  1.00  0.00     0.212 HD
ENDBRANCH   2  39
BRANCH   8  41
HETATM   41  N6  UNL     1      33.892   1.857   3.479  1.00  0.00    -0.252 N 
HETATM   42  N7  UNL     1      34.647   0.944   2.841  1.00  0.00    -0.224 N 
HETATM   43  N8  UNL     1      35.533   0.418   3.630  1.00  0.00    -0.227 N 
ATOM     44  H7  UNL     1      34.536   0.697   1.858  1.00  0.00     0.210 HD
HETATM   45  N9  UNL     1      35.373   0.977   4.801  1.00  0.00    -0.271 N 
ATOM     46  H8  UNL     1      36.222  -0.293   3.384  1.00  0.00     0.210 HD
HETATM   47  C17 UNL     1      34.363   1.870   4.732  1.00  0.00     0.138 A 
ATOM     48  H9  UNL     1      35.924   0.771   5.635  1.00  0.00     0.190 HD
BRANCH  47  49
HETATM   49  C18 UNL     1      33.856   2.720   5.843  1.00  0.00     0.210 C 
BRANCH  49  50
HETATM   50  C19 UNL     1      35.017   2.771   6.854  1.00  0.00     0.113 C 
BRANCH  50  51
HETATM   51  S1  UNL     1      35.243   4.487   7.313  1.00  0.00    -0.096 SA
BRANCH  51  52
HETATM   52  C20 UNL     1      36.690   4.797   8.258  1.00  0.00     0.147 C 
HETATM   53  N10 UNL     1      37.514   5.708   7.907  1.00  0.00    -0.382 N 
ATOM     54 2H10 UNL     1      37.328   6.261   7.071  1.00  0.00     0.157 HD
ATOM     55 1H10 UNL     1      38.355   5.888   8.456  1.00  0.00     0.157 HD
HETATM   56  N11 UNL     1      36.945   4.036   9.410  1.00  0.00    -0.075 NA
ENDBRANCH  51  52
ENDBRANCH  50  51
ENDBRANCH  49  50
BRANCH  49  57
HETATM   57  S2  UNL     1      32.518   1.910   6.710  1.00  0.00     0.114 S 
HETATM   58  O11 UNL     1      32.630   2.137   8.184  1.00  0.00    -0.594 OA
HETATM   59  O12 UNL     1      32.528   0.420   6.391  1.00  0.00    -0.594 OA
HETATM   60  O13 UNL     1      31.029   2.477   6.199  1.00  0.00    -0.594 OA
ENDBRANCH  49  57
ENDBRANCH  47  49
ENDBRANCH   8  41
BRANCH   1  61
HETATM   61  O2  UNL     1      33.544   4.755   1.990  1.00  0.00    -0.310 OA
BRANCH  61  62
HETATM   62  C2  UNL     1      33.055   5.519   3.013  1.00  0.00     0.255 C 
HETATM   63  C1  UNL     1      33.887   5.940   4.160  1.00  0.00     0.126 C 
HETATM   64  O1  UNL     1      31.856   5.873   2.971  1.00  0.00    -0.266 OA
ENDBRANCH  61  62
ENDBRANCH   1  61
TORSDOF 17
ENDMDL
MODEL 5
REMARK VINA RESULT: -5.494057721      3.139      5.446
REMARK  17 active torsions:
REMARK  status: ('A' for Active; 'I' for Inactive)
REMARK    1  A    between atoms: C2_2  and  O2_4 
REMARK    2  A    between atoms: O2_4  and  C3_5 
REMARK    3  A    between atoms: C4_6  and  O3_7 
REMARK    4  A    between atoms: C5_12  and  O4_13 
REMARK    5  A    between atoms: O4_13  and  C6_14 
REMARK    6  A    between atoms: C7_15  and  O5_16 
REMARK    7  A    between atoms: C8_18  and  O6_19 
REMARK    8  A    between atoms: C9_21  and  N2_22 
REMARK    9  A    between atoms: C10_26  and  N3_27 
REMARK   10  A    between atoms: C14_38  and  O9_39 
REMARK   11  A    between atoms: C15_41  and  O10_42 
REMARK   12  A    between atoms: C16_44  and  N6_45 
REMARK   13  A    between atoms: C17_52  and  C18_53 
REMARK   14  A    between atoms: C18_53  and  C19_54 
REMARK   15  A    between atoms: C18_53  and  S2_61 
REMARK   16  A    between atoms: C19_54  and  S1_55 
REMARK   17  A    between atoms: S1_55  and  C20_56 
ROOT
HETATM    1  C3  UNL     1      33.542   1.625   6.002  1.00  0.00     0.215 C 
HETATM    2  C4  UNL     1      32.337   2.237   6.655  1.00  0.00     0.353 C 
HETATM    3  N1  UNL     1      31.141   2.206   5.864  1.00  0.00    -0.018 N 
ATOM      4  H11 UNL     1      30.412   2.776   6.291  1.00  0.00     0.283 HD
ATOM      5  H12 UNL     1      30.696   1.290   5.920  1.00  0.00     0.283 HD
HETATM    6  C5  UNL     1      31.347   2.591   4.482  1.00  0.00     0.355 C 
HETATM    7  C15 UNL     1      32.716   3.251   4.392  1.00  0.00     0.202 C 
HETATM    8  C16 UNL     1      33.719   2.169   4.641  1.00  0.00     0.178 C 
ENDROOT
BRANCH   6   9
HETATM    9  O4  UNL     1      30.318   3.325   3.966  1.00  0.00    -0.346 OA
BRANCH   9  10
HETATM   10  C6  UNL     1      29.554   2.637   3.016  1.00  0.00     0.186 C 
HETATM   11  C7  UNL     1      29.733   3.072   1.619  1.00  0.00     0.180 C 
HETATM   12  C8  UNL     1      28.697   3.987   1.047  1.00  0.00     0.182 C 
HETATM   13  C9  UNL     1      27.331   3.420   1.365  1.00  0.00     0.239 C 
HETATM   14  C10 UNL     1      27.210   3.569   2.887  1.00  0.00     0.147 C 
HETATM   15  C14 UNL     1      28.118   2.528   3.475  1.00  0.00     0.174 C 
BRANCH  11  16
HETATM   16  O5  UNL     1      29.812   1.946   0.766  1.00  0.00    -0.390 OA
ATOM     17  H5  UNL     1      28.997   1.460   0.792  1.00  0.00     0.210 HD
ENDBRANCH  11  16
BRANCH  12  18
HETATM   18  O6  UNL     1      28.889   4.037  -0.333  1.00  0.00    -0.391 OA
ATOM     19  H6  UNL     1      28.087   3.742  -0.748  1.00  0.00     0.210 HD
ENDBRANCH  12  18
BRANCH  13  20
HETATM   20  N2  UNL     1      26.263   4.046   0.656  1.00  0.00    -0.070 N 
ATOM     21  H23 UNL     1      26.627   4.636  -0.093  1.00  0.00     0.274 HD
ATOM     22  H22 UNL     1      25.751   3.360   0.101  1.00  0.00     0.274 HD
ATOM     23  H21 UNL     1      25.625   4.575   1.249  1.00  0.00     0.274 HD
ENDBRANCH  13  20
BRANCH  14  24
HETATM   24  N3  UNL     1      25.863   3.264   3.241  1.00  0.00    -0.362 N 
HETATM   25  C11 UNL     1      25.305   3.418   4.369  1.00  0.00     0.175 A 
HETATM   26  N4  UNL     1      23.937   3.072   4.604  1.00  0.00    -0.290 N 
HETATM   27  C13 UNL     1      25.819   3.929   5.615  1.00  0.00     0.293 A 
HETATM   28  C12 UNL     1      23.604   3.357   5.955  1.00  0.00     0.328 A 
ATOM     29  H4  UNL     1      23.300   2.682   3.910  1.00  0.00     0.172 HD
HETATM   30  O7  UNL     1      22.497   3.190   6.539  1.00  0.00    -0.247 OA
HETATM   31  N5  UNL     1      24.767   3.879   6.556  1.00  0.00    -0.272 N 
ATOM     32  H5  UNL     1      24.839   4.178   7.529  1.00  0.00     0.174 HD
HETATM   33  O8  UNL     1      26.966   4.343   5.859  1.00  0.00    -0.264 OA
ATOM     34  H3  UNL     1      25.280   2.878   2.499  1.00  0.00     0.161 HD
ENDBRANCH  14  24
BRANCH  15  35
HETATM   35  O9  UNL     1      27.580   1.282   3.153  1.00  0.00    -0.391 OA
ATOM     36  H9  UNL     1      27.355   0.793   3.935  1.00  0.00     0.210 HD
ENDBRANCH  15  35
ENDBRANCH   9  10
ENDBRANCH   6   9
BRANCH   7  37
HETATM   37  O10 UNL     1      32.873   3.818   3.119  1.00  0.00    -0.389 OA
ATOM     38  H10 UNL     1      32.602   3.190   2.460  1.00  0.00     0.210 HD
ENDBRANCH   7  37
BRANCH   2  39
HETATM   39  O3  UNL     1      32.008   1.526   7.843  1.00  0.00    -0.368 OA
ATOM     40  H3  UNL     1      31.252   0.970   7.693  1.00  0.00     0.212 HD
ENDBRANCH   2  39
BRANCH   8  41
HETATM   41  N6  UNL     1      35.057   2.472   4.227  1.00  0.00    -0.252 N 
HETATM   42  N7  UNL     1      35.694   1.889   3.196  1.00  0.00    -0.224 N 
HETATM   43  N8  UNL     1      36.895   2.358   3.045  1.00  0.00    -0.227 N 
ATOM     44  H7  UNL     1      35.283   1.166   2.605  1.00  0.00     0.210 HD
HETATM   45  N9  UNL     1      37.066   3.259   3.978  1.00  0.00    -0.271 N 
ATOM     46  H8  UNL     1      37.574   2.079   2.337  1.00  0.00     0.210 HD
HETATM   47  C17 UNL     1      35.942   3.346   4.721  1.00  0.00     0.138 A 
ATOM     48  H9  UNL     1      37.914   3.808   4.121  1.00  0.00     0.190 HD
BRANCH  47  49
HETATM   49  C18 UNL     1      35.720   4.248   5.884  1.00  0.00     0.210 C 
BRANCH  49  50
HETATM   50  C19 UNL     1      36.220   5.625   5.410  1.00  0.00     0.113 C 
BRANCH  50  51
HETATM   51  S1  UNL     1      35.010   6.258   4.252  1.00  0.00    -0.096 SA
BRANCH  51  52
HETATM   52  C20 UNL     1      35.521   6.203   2.573  1.00  0.00     0.147 C 
HETATM   53  N10 UNL     1      35.980   7.248   1.997  1.00  0.00    -0.382 N 
ATOM     54 2H10 UNL     1      36.050   8.121   2.519  1.00  0.00     0.157 HD
ATOM     55 1H10 UNL     1      36.276   7.216   1.022  1.00  0.00     0.157 HD
HETATM   56  N11 UNL     1      35.424   5.001   1.855  1.00  0.00    -0.075 NA
ENDBRANCH  51  52
ENDBRANCH  50  51
ENDBRANCH  49  50
BRANCH  49  57
HETATM   57  S2  UNL     1      36.788   3.808   7.249  1.00  0.00     0.114 S 
HETATM   58  O11 UNL     1      38.221   4.054   6.899  1.00  0.00    -0.594 OA
HETATM   59  O12 UNL     1      36.567   2.347   7.624  1.00  0.00    -0.594 OA
HETATM   60  O13 UNL     1      36.420   4.693   8.621  1.00  0.00    -0.594 OA
ENDBRANCH  49  57
ENDBRANCH  47  49
ENDBRANCH   8  41
BRANCH   1  61
HETATM   61  O2  UNL     1      33.566   0.222   6.084  1.00  0.00    -0.310 OA
BRANCH  61  62
HETATM   62  C2  UNL     1      33.276  -0.648   5.070  1.00  0.00     0.255 C 
HETATM   63  C1  UNL     1      34.322  -1.401   4.346  1.00  0.00     0.126 C 
HETATM   64  O1  UNL     1      32.079  -0.809   4.747  1.00  0.00    -0.266 OA
ENDBRANCH  61  62
ENDBRANCH   1  61
TORSDOF 17
ENDMDL
