MODEL 1
REMARK VINA RESULT: -6.755985274      0.000      0.000
REMARK  17 active torsions:
REMARK  status: ('A' for Active; 'I' for Inactive)
REMARK    1  A    between atoms: N5_15  and  C6_16 
REMARK    2  A    between atoms: C7_18  and  C8_19 
REMARK    3  A    between atoms: C8_19  and  O2_20 
REMARK    4  A    between atoms: C9_22  and  N6_23 
REMARK    5  A    between atoms: N6_23  and  C10_25 
REMARK    6  A    between atoms: C10_25  and  C11_31 
REMARK    7  A    between atoms: N7_26  and  N8_28 
REMARK    8  A    between atoms: C12_33  and  N9_34 
REMARK    9  A    between atoms: C17_43  and  O6_44 
REMARK   10  A    between atoms: C18_46  and  O7_47 
REMARK   11  A    between atoms: C19_49  and  O8_50 
REMARK   12  A    between atoms: O8_50  and  C20_51 
REMARK   13  A    between atoms: C21_53  and  C22_54 
REMARK   14  A    between atoms: C22_54  and  O10_55 
REMARK   15  A    between atoms: C23_57  and  O11_58 
REMARK   16  A    between atoms: C24_60  and  O12_61 
REMARK   17  A    between atoms: C25_63  and  N11_64 
ROOT
HETATM    1  C6  UNL     1      31.357   4.513   1.743  1.00  0.00     0.262 C 
HETATM    2  O1  UNL     1      30.607   4.983   0.688  1.00  0.00    -0.354 OA
HETATM    3  C7  UNL     1      29.325   5.222   1.146  1.00  0.00     0.173 C 
HETATM    4  C9  UNL     1      29.125   4.121   2.137  1.00  0.00     0.147 C 
HETATM    5  C19 UNL     1      30.429   4.387   2.930  1.00  0.00     0.199 C 
ENDROOT
BRANCH   4   6
HETATM    6  N6  UNL     1      29.217   2.788   1.649  1.00  0.00    -0.367 N 
ATOM      7  H6  UNL     1      29.728   2.662   0.776  1.00  0.00     0.161 HD
BRANCH   6   8
HETATM    8  C10 UNL     1      28.681   1.610   2.236  1.00  0.00     0.124 C 
HETATM    9  N7  UNL     1      29.489   0.622   2.393  1.00  0.00    -0.294 N 
ATOM     10  H7  UNL     1      29.093  -0.219   2.814  1.00  0.00     0.187 HD
BRANCH   9  11
HETATM   11  N8  UNL     1      30.814   0.561   2.066  1.00  0.00    -0.344 N 
ATOM     12  H82 UNL     1      31.420   1.175   2.612  1.00  0.00     0.176 HD
ATOM     13  H81 UNL     1      31.258  -0.017   1.352  1.00  0.00     0.176 HD
ENDBRANCH   9  11
BRANCH   8  14
HETATM   14  C11 UNL     1      27.280   1.462   2.672  1.00  0.00     0.224 C 
HETATM   15  O3  UNL     1      26.975   2.359   3.660  1.00  0.00    -0.348 OA
HETATM   16  C12 UNL     1      26.158   3.346   3.172  1.00  0.00     0.264 C 
HETATM   17  C17 UNL     1      25.569   2.896   1.875  1.00  0.00     0.199 C 
HETATM   18  C18 UNL     1      26.282   1.618   1.566  1.00  0.00     0.187 C 
BRANCH  16  19
HETATM   19  N9  UNL     1      25.063   3.586   4.112  1.00  0.00    -0.280 N 
HETATM   20  C13 UNL     1      23.778   3.342   3.763  1.00  0.00     0.104 A 
HETATM   21  C14 UNL     1      22.763   3.574   4.662  1.00  0.00     0.092 A 
HETATM   22  C15 UNL     1      23.094   4.051   5.900  1.00  0.00     0.250 A 
HETATM   23  O4  UNL     1      22.190   4.281   6.767  1.00  0.00    -0.268 OA
HETATM   24  N10 UNL     1      24.370   4.291   6.244  1.00  0.00    -0.275 N 
HETATM   25  C16 UNL     1      25.352   4.052   5.332  1.00  0.00     0.331 A 
ATOM     26  H10 UNL     1      24.599   4.647   7.171  1.00  0.00     0.173 HD
HETATM   27  O5  UNL     1      26.546   4.295   5.706  1.00  0.00    -0.246 OA
ENDBRANCH  16  19
BRANCH  17  28
HETATM   28  O6  UNL     1      25.883   3.822   0.866  1.00  0.00    -0.388 OA
ATOM     29  H6  UNL     1      26.818   3.805   0.695  1.00  0.00     0.210 HD
ENDBRANCH  17  28
BRANCH  18  30
HETATM   30  O7  UNL     1      26.854   1.649   0.303  1.00  0.00    -0.390 OA
ATOM     31  H7  UNL     1      26.260   1.384  -0.390  1.00  0.00     0.210 HD
ENDBRANCH  18  30
ENDBRANCH   8  14
ENDBRANCH   6   8
ENDBRANCH   4   6
BRANCH   3  32
HETATM   32  C8  UNL     1      28.309   5.434   0.116  1.00  0.00     0.198 C 
BRANCH  32  33
HETATM   33  O2  UNL     1      28.181   4.223  -0.610  1.00  0.00    -0.398 OA
ATOM     34  H2  UNL     1      27.306   3.888  -0.451  1.00  0.00     0.209 HD
ENDBRANCH  32  33
ENDBRANCH   3  32
BRANCH   5  35
HETATM   35  O8  UNL     1      30.815   3.286   3.655  1.00  0.00    -0.347 OA
BRANCH  35  36
HETATM   36  C20 UNL     1      31.567   3.606   4.781  1.00  0.00     0.294 C 
HETATM   37  O9  UNL     1      32.941   3.554   4.536  1.00  0.00    -0.349 OA
HETATM   38  C21 UNL     1      33.583   4.063   5.656  1.00  0.00     0.179 C 
HETATM   39  C23 UNL     1      33.406   3.167   6.865  1.00  0.00     0.180 C 
HETATM   40  C24 UNL     1      31.971   2.838   7.129  1.00  0.00     0.184 C 
HETATM   41  C25 UNL     1      31.249   2.569   5.837  1.00  0.00     0.269 C 
BRANCH  38  42
HETATM   42  C22 UNL     1      35.083   4.197   5.427  1.00  0.00     0.198 C 
BRANCH  42  43
HETATM   43  O10 UNL     1      35.415   3.249   4.440  1.00  0.00    -0.398 OA
ATOM     44  H10 UNL     1      35.687   3.747   3.678  1.00  0.00     0.209 HD
ENDBRANCH  42  43
ENDBRANCH  38  42
BRANCH  39  45
HETATM   45  O11 UNL     1      34.191   2.023   6.714  1.00  0.00    -0.390 OA
ATOM     46  H11 UNL     1      35.107   2.272   6.661  1.00  0.00     0.210 HD
ENDBRANCH  39  45
BRANCH  40  47
HETATM   47  O12 UNL     1      31.894   1.665   7.895  1.00  0.00    -0.391 OA
ATOM     48  H12 UNL     1      31.035   1.604   8.295  1.00  0.00     0.210 HD
ENDBRANCH  40  47
BRANCH  41  49
HETATM   49  N11 UNL     1      31.656   1.286   5.346  1.00  0.00    -0.068 N 
ATOM     50 3H11 UNL     1      32.666   1.150   5.394  1.00  0.00     0.275 HD
ATOM     51 2H11 UNL     1      31.384   0.524   5.966  1.00  0.00     0.275 HD
ATOM     52 1H11 UNL     1      31.290   1.174   4.400  1.00  0.00     0.275 HD
ENDBRANCH  41  49
ENDBRANCH  35  36
ENDBRANCH   5  35
BRANCH   1  53
HETATM   53  N5  UNL     1      32.458   5.397   1.988  1.00  0.00    -0.297 N 
HETATM   54  C3  UNL     1      33.737   4.999   1.835  1.00  0.00     0.142 A 
HETATM   55  N3  UNL     1      34.349   3.860   1.470  1.00  0.00    -0.336 N 
HETATM   56  C4  UNL     1      34.596   6.062   2.142  1.00  0.00     0.122 A 
HETATM   57  C2  UNL     1      35.659   3.674   1.381  1.00  0.00     0.183 A 
ATOM     58  H3  UNL     1      33.752   3.066   1.240  1.00  0.00     0.168 HD
HETATM   59  N2  UNL     1      36.469   4.723   1.685  1.00  0.00    -0.337 N 
HETATM   60  C1  UNL     1      35.959   5.900   2.060  1.00  0.00     0.131 A 
ATOM     61  H2  UNL     1      37.482   4.610   1.625  1.00  0.00     0.168 HD
HETATM   62  N1  UNL     1      36.747   6.867   2.338  1.00  0.00    -0.383 N 
ATOM     63  H12 UNL     1      37.758   6.747   2.277  1.00  0.00     0.157 HD
ATOM     64  H11 UNL     1      36.358   7.765   2.624  1.00  0.00     0.157 HD
HETATM   65  N4  UNL     1      33.771   7.072   2.472  1.00  0.00    -0.346 N 
HETATM   66  C5  UNL     1      32.482   6.678   2.382  1.00  0.00     0.188 A 
ATOM     67  H4  UNL     1      34.076   8.005   2.751  1.00  0.00     0.167 HD
ENDBRANCH   1  53
TORSDOF 17
ENDMDL
MODEL 2
REMARK VINA RESULT: -6.584750688      4.518      6.832
REMARK  17 active torsions:
REMARK  status: ('A' for Active; 'I' for Inactive)
REMARK    1  A    between atoms: N5_15  and  C6_16 
REMARK    2  A    between atoms: C7_18  and  C8_19 
REMARK    3  A    between atoms: C8_19  and  O2_20 
REMARK    4  A    between atoms: C9_22  and  N6_23 
REMARK    5  A    between atoms: N6_23  and  C10_25 
REMARK    6  A    between atoms: C10_25  and  C11_31 
REMARK    7  A    between atoms: N7_26  and  N8_28 
REMARK    8  A    between atoms: C12_33  and  N9_34 
REMARK    9  A    between atoms: C17_43  and  O6_44 
REMARK   10  A    between atoms: C18_46  and  O7_47 
REMARK   11  A    between atoms: C19_49  and  O8_50 
REMARK   12  A    between atoms: O8_50  and  C20_51 
REMARK   13  A    between atoms: C21_53  and  C22_54 
REMARK   14  A    between atoms: C22_54  and  O10_55 
REMARK   15  A    between atoms: C23_57  and  O11_58 
REMARK   16  A    between atoms: C24_60  and  O12_61 
REMARK   17  A    between atoms: C25_63  and  N11_64 
ROOT
HETATM    1  C6  UNL     1      36.761   7.729   3.564  1.00  0.00     0.262 C 
HETATM    2  O1  UNL     1      36.059   8.264   2.506  1.00  0.00    -0.354 OA
HETATM    3  C7  UNL     1      34.753   7.819   2.589  1.00  0.00     0.173 C 
HETATM    4  C9  UNL     1      34.917   6.430   3.114  1.00  0.00     0.147 C 
HETATM    5  C19 UNL     1      35.813   6.821   4.315  1.00  0.00     0.199 C 
ENDROOT
BRANCH   4   6
HETATM    6  N6  UNL     1      35.679   5.525   2.323  1.00  0.00    -0.367 N 
ATOM      7  H6  UNL     1      36.690   5.553   2.456  1.00  0.00     0.161 HD
BRANCH   6   8
HETATM    8  C10 UNL     1      35.198   4.588   1.369  1.00  0.00     0.124 C 
HETATM    9  N7  UNL     1      35.468   4.829   0.134  1.00  0.00    -0.294 N 
ATOM     10  H7  UNL     1      35.116   4.150  -0.541  1.00  0.00     0.187 HD
BRANCH   9  11
HETATM   11  N8  UNL     1      36.167   5.883  -0.382  1.00  0.00    -0.344 N 
ATOM     12  H82 UNL     1      37.040   5.632  -0.848  1.00  0.00     0.176 HD
ATOM     13  H81 UNL     1      35.921   6.872  -0.354  1.00  0.00     0.176 HD
ENDBRANCH   9  11
BRANCH   8  14
HETATM   14  C11 UNL     1      34.430   3.376   1.709  1.00  0.00     0.224 C 
HETATM   15  O3  UNL     1      34.469   3.130   3.055  1.00  0.00    -0.348 OA
HETATM   16  C12 UNL     1      33.254   3.411   3.625  1.00  0.00     0.264 C 
HETATM   17  C17 UNL     1      32.218   3.498   2.552  1.00  0.00     0.199 C 
HETATM   18  C18 UNL     1      32.997   3.427   1.277  1.00  0.00     0.187 C 
BRANCH  16  19
HETATM   19  N9  UNL     1      32.879   2.329   4.536  1.00  0.00    -0.280 N 
HETATM   20  C13 UNL     1      33.414   1.092   4.408  1.00  0.00     0.104 A 
HETATM   21  C14 UNL     1      33.047   0.088   5.275  1.00  0.00     0.092 A 
HETATM   22  C15 UNL     1      32.140   0.382   6.254  1.00  0.00     0.250 A 
HETATM   23  O4  UNL     1      31.769  -0.513   7.081  1.00  0.00    -0.268 OA
HETATM   24  N10 UNL     1      31.611   1.610   6.379  1.00  0.00    -0.275 N 
HETATM   25  C16 UNL     1      31.993   2.582   5.505  1.00  0.00     0.331 A 
ATOM     26  H10 UNL     1      30.935   1.811   7.115  1.00  0.00     0.173 HD
HETATM   27  O5  UNL     1      31.464   3.730   5.666  1.00  0.00    -0.246 OA
ENDBRANCH  16  19
BRANCH  17  28
HETATM   28  O6  UNL     1      31.587   4.751   2.604  1.00  0.00    -0.388 OA
ATOM     29  H6  UNL     1      31.194   4.948   1.762  1.00  0.00     0.210 HD
ENDBRANCH  17  28
BRANCH  18  30
HETATM   30  O7  UNL     1      32.706   4.498   0.444  1.00  0.00    -0.390 OA
ATOM     31  H7  UNL     1      31.971   5.021   0.741  1.00  0.00     0.210 HD
ENDBRANCH  18  30
ENDBRANCH   8  14
ENDBRANCH   6   8
ENDBRANCH   4   6
BRANCH   3  32
HETATM   32  C8  UNL     1      33.931   8.029   1.398  1.00  0.00     0.198 C 
BRANCH  32  33
HETATM   33  O2  UNL     1      32.815   7.161   1.494  1.00  0.00    -0.398 OA
ATOM     34  H2  UNL     1      32.151   7.606   2.007  1.00  0.00     0.209 HD
ENDBRANCH  32  33
ENDBRANCH   3  32
BRANCH   5  35
HETATM   35  O8  UNL     1      36.533   5.749   4.781  1.00  0.00    -0.347 OA
BRANCH  35  36
HETATM   36  C20 UNL     1      36.288   5.462   6.120  1.00  0.00     0.294 C 
HETATM   37  O9  UNL     1      37.462   5.213   6.836  1.00  0.00    -0.349 OA
HETATM   38  C21 UNL     1      37.121   5.124   8.177  1.00  0.00     0.179 C 
HETATM   39  C23 UNL     1      36.268   3.904   8.464  1.00  0.00     0.180 C 
HETATM   40  C24 UNL     1      35.076   3.815   7.565  1.00  0.00     0.184 C 
HETATM   41  C25 UNL     1      35.450   4.203   6.159  1.00  0.00     0.269 C 
BRANCH  38  42
HETATM   42  C22 UNL     1      38.356   5.010   9.061  1.00  0.00     0.198 C 
BRANCH  42  43
HETATM   43  O10 UNL     1      37.897   5.100  10.389  1.00  0.00    -0.398 OA
ATOM     44  H10 UNL     1      38.450   4.520  10.899  1.00  0.00     0.209 HD
ENDBRANCH  42  43
ENDBRANCH  38  42
BRANCH  39  45
HETATM   45  O11 UNL     1      37.062   2.758   8.405  1.00  0.00    -0.390 OA
ATOM     46  H11 UNL     1      37.243   2.545   7.497  1.00  0.00     0.210 HD
ENDBRANCH  39  45
BRANCH  40  47
HETATM   47  O12 UNL     1      34.625   2.488   7.518  1.00  0.00    -0.391 OA
ATOM     48  H12 UNL     1      33.946   2.407   6.858  1.00  0.00     0.210 HD
ENDBRANCH  40  47
BRANCH  41  49
HETATM   49  N11 UNL     1      36.213   3.137   5.580  1.00  0.00    -0.068 N 
ATOM     50 3H11 UNL     1      35.699   2.635   4.856  1.00  0.00     0.275 HD
ATOM     51 2H11 UNL     1      36.979   3.473   4.998  1.00  0.00     0.275 HD
ATOM     52 1H11 UNL     1      36.530   2.524   6.333  1.00  0.00     0.275 HD
ENDBRANCH  41  49
ENDBRANCH  35  36
ENDBRANCH   5  35
BRANCH   1  53
HETATM   53  N5  UNL     1      37.288   8.783   4.379  1.00  0.00    -0.297 N 
HETATM   54  C3  UNL     1      36.929  10.069   4.198  1.00  0.00     0.142 A 
HETATM   55  N3  UNL     1      36.111  10.727   3.360  1.00  0.00    -0.336 N 
HETATM   56  C4  UNL     1      37.596  10.875   5.129  1.00  0.00     0.122 A 
HETATM   57  C2  UNL     1      35.894  12.035   3.350  1.00  0.00     0.183 A 
ATOM     58  H3  UNL     1      35.610  10.169   2.669  1.00  0.00     0.168 HD
HETATM   59  N2  UNL     1      36.555  12.793   4.266  1.00  0.00    -0.337 N 
HETATM   60  C1  UNL     1      37.394  12.234   5.144  1.00  0.00     0.131 A 
ATOM     61  H2  UNL     1      36.409  13.803   4.282  1.00  0.00     0.168 HD
HETATM   62  N1  UNL     1      37.999  12.974   5.993  1.00  0.00    -0.383 N 
ATOM     63  H12 UNL     1      37.849  13.983   6.004  1.00  0.00     0.157 HD
ATOM     64  H11 UNL     1      38.639  12.548   6.663  1.00  0.00     0.157 HD
HETATM   65  N4  UNL     1      38.341  10.012   5.844  1.00  0.00    -0.346 N 
HETATM   66  C5  UNL     1      38.161   8.750   5.396  1.00  0.00     0.188 A 
ATOM     67  H4  UNL     1      38.956  10.273   6.614  1.00  0.00     0.167 HD
ENDBRANCH   1  53
TORSDOF 17
ENDMDL
MODEL 3
REMARK VINA RESULT: -6.517089936      2.875      8.893
REMARK  17 active torsions:
REMARK  status: ('A' for Active; 'I' for Inactive)
REMARK    1  A    between atoms: N5_15  and  C6_16 
REMARK    2  A    between atoms: C7_18  and  C8_19 
REMARK    3  A    between atoms: C8_19  and  O2_20 
REMARK    4  A    between atoms: C9_22  and  N6_23 
REMARK    5  A    between atoms: N6_23  and  C10_25 
REMARK    6  A    between atoms: C10_25  and  C11_31 
REMARK    7  A    between atoms: N7_26  and  N8_28 
REMARK    8  A    between atoms: C12_33  and  N9_34 
REMARK    9  A    between atoms: C17_43  and  O6_44 
REMARK   10  A    between atoms: C18_46  and  O7_47 
REMARK   11  A    between atoms: C19_49  and  O8_50 
REMARK   12  A    between atoms: O8_50  and  C20_51 
REMARK   13  A    between atoms: C21_53  and  C22_54 
REMARK   14  A    between atoms: C22_54  and  O10_55 
REMARK   15  A    between atoms: C23_57  and  O11_58 
REMARK   16  A    between atoms: C24_60  and  O12_61 
REMARK   17  A    between atoms: C25_63  and  N11_64 
ROOT
HETATM    1  C6  UNL     1      27.198   3.109   4.550  1.00  0.00     0.262 C 
HETATM    2  O1  UNL     1      27.930   4.255   4.335  1.00  0.00    -0.354 OA
HETATM    3  C7  UNL     1      28.066   4.429   2.971  1.00  0.00     0.173 C 
HETATM    4  C9  UNL     1      28.191   3.024   2.477  1.00  0.00     0.147 C 
HETATM    5  C19 UNL     1      26.926   2.492   3.196  1.00  0.00     0.199 C 
ENDROOT
BRANCH   4   6
HETATM    6  N6  UNL     1      29.284   2.259   2.971  1.00  0.00    -0.367 N 
ATOM      7  H6  UNL     1      29.187   1.896   3.919  1.00  0.00     0.161 HD
BRANCH   6   8
HETATM    8  C10 UNL     1      30.495   1.941   2.300  1.00  0.00     0.124 C 
HETATM    9  N7  UNL     1      30.389   1.431   1.124  1.00  0.00    -0.294 N 
ATOM     10  H7  UNL     1      31.265   1.206   0.653  1.00  0.00     0.187 HD
BRANCH   9  11
HETATM   11  N8  UNL     1      29.245   1.154   0.430  1.00  0.00    -0.344 N 
ATOM     12  H82 UNL     1      28.421   1.672   0.736  1.00  0.00     0.176 HD
ATOM     13  H81 UNL     1      29.125   0.501  -0.344  1.00  0.00     0.176 HD
ENDBRANCH   9  11
BRANCH   8  14
HETATM   14  C11 UNL     1      31.841   2.167   2.861  1.00  0.00     0.224 C 
HETATM   15  O3  UNL     1      31.789   3.002   3.944  1.00  0.00    -0.348 OA
HETATM   16  C12 UNL     1      32.009   2.298   5.099  1.00  0.00     0.264 C 
HETATM   17  C17 UNL     1      32.614   0.976   4.759  1.00  0.00     0.199 C 
HETATM   18  C18 UNL     1      32.546   0.909   3.266  1.00  0.00     0.187 C 
BRANCH  16  19
HETATM   19  N9  UNL     1      32.953   3.028   5.946  1.00  0.00    -0.280 N 
HETATM   20  C13 UNL     1      33.796   3.947   5.418  1.00  0.00     0.104 A 
HETATM   21  C14 UNL     1      34.676   4.623   6.232  1.00  0.00     0.092 A 
HETATM   22  C15 UNL     1      34.667   4.339   7.569  1.00  0.00     0.250 A 
HETATM   23  O4  UNL     1      35.463   4.939   8.362  1.00  0.00    -0.268 OA
HETATM   24  N10 UNL     1      33.829   3.427   8.089  1.00  0.00    -0.275 N 
HETATM   25  C16 UNL     1      32.970   2.775   7.258  1.00  0.00     0.331 A 
ATOM     26  H10 UNL     1      33.836   3.228   9.089  1.00  0.00     0.173 HD
HETATM   27  O5  UNL     1      32.195   1.921   7.801  1.00  0.00    -0.246 OA
ENDBRANCH  16  19
BRANCH  17  28
HETATM   28  O6  UNL     1      31.815  -0.057   5.276  1.00  0.00    -0.388 OA
ATOM     29  H6  UNL     1      31.465  -0.578   4.563  1.00  0.00     0.210 HD
ENDBRANCH  17  28
BRANCH  18  30
HETATM   30  O7  UNL     1      31.908  -0.247   2.839  1.00  0.00    -0.390 OA
ATOM     31  H7  UNL     1      31.455  -0.710   3.534  1.00  0.00     0.210 HD
ENDBRANCH  18  30
ENDBRANCH   8  14
ENDBRANCH   6   8
ENDBRANCH   4   6
BRANCH   3  32
HETATM   32  C8  UNL     1      29.061   5.414   2.549  1.00  0.00     0.198 C 
BRANCH  32  33
HETATM   33  O2  UNL     1      30.166   5.304   3.429  1.00  0.00    -0.398 OA
ATOM     34  H2  UNL     1      30.015   5.902   4.151  1.00  0.00     0.209 HD
ENDBRANCH  32  33
ENDBRANCH   3  32
BRANCH   5  35
HETATM   35  O8  UNL     1      26.959   1.127   3.338  1.00  0.00    -0.347 OA
BRANCH  35  36
HETATM   36  C20 UNL     1      25.989   0.473   2.586  1.00  0.00     0.294 C 
HETATM   37  O9  UNL     1      24.925   0.016   3.368  1.00  0.00    -0.349 OA
HETATM   38  C21 UNL     1      23.943  -0.449   2.506  1.00  0.00     0.179 C 
HETATM   39  C23 UNL     1      24.388  -1.690   1.758  1.00  0.00     0.180 C 
HETATM   40  C24 UNL     1      25.706  -1.504   1.075  1.00  0.00     0.184 C 
HETATM   41  C25 UNL     1      26.651  -0.736   1.960  1.00  0.00     0.269 C 
BRANCH  38  42
HETATM   42  C22 UNL     1      22.673  -0.825   3.257  1.00  0.00     0.198 C 
BRANCH  42  43
HETATM   43  O10 UNL     1      23.062  -1.068   4.589  1.00  0.00    -0.398 OA
ATOM     44  H10 UNL     1      23.513  -1.903   4.583  1.00  0.00     0.209 HD
ENDBRANCH  42  43
ENDBRANCH  38  42
BRANCH  39  45
HETATM   45  O11 UNL     1      24.392  -2.780   2.628  1.00  0.00    -0.390 OA
ATOM     46  H11 UNL     1      25.168  -2.745   3.175  1.00  0.00     0.210 HD
ENDBRANCH  39  45
BRANCH  40  47
HETATM   47  O12 UNL     1      26.291  -2.758   0.841  1.00  0.00    -0.391 OA
ATOM     48  H12 UNL     1      27.173  -2.639   0.508  1.00  0.00     0.210 HD
ENDBRANCH  40  47
BRANCH  41  49
HETATM   49  N11 UNL     1      27.095  -1.601   3.012  1.00  0.00    -0.068 N 
ATOM     50 3H11 UNL     1      28.053  -1.406   3.303  1.00  0.00     0.275 HD
ATOM     51 2H11 UNL     1      26.638  -1.403   3.902  1.00  0.00     0.275 HD
ATOM     52 1H11 UNL     1      26.965  -2.567   2.710  1.00  0.00     0.275 HD
ENDBRANCH  41  49
ENDBRANCH  35  36
ENDBRANCH   5  35
BRANCH   1  53
HETATM   53  N5  UNL     1      26.000   3.425   5.270  1.00  0.00    -0.297 N 
HETATM   54  C3  UNL     1      24.787   3.383   4.684  1.00  0.00     0.142 A 
HETATM   55  N3  UNL     1      24.324   3.088   3.459  1.00  0.00    -0.336 N 
HETATM   56  C4  UNL     1      23.805   3.739   5.619  1.00  0.00     0.122 A 
HETATM   57  C2  UNL     1      23.053   3.108   3.080  1.00  0.00     0.183 A 
ATOM     58  H3  UNL     1      25.013   2.825   2.754  1.00  0.00     0.168 HD
HETATM   59  N2  UNL     1      22.122   3.458   4.008  1.00  0.00    -0.337 N 
HETATM   60  C1  UNL     1      22.480   3.770   5.258  1.00  0.00     0.131 A 
ATOM     61  H2  UNL     1      21.136   3.482   3.747  1.00  0.00     0.168 HD
HETATM   62  N1  UNL     1      21.580   4.093   6.106  1.00  0.00    -0.383 N 
ATOM     63  H12 UNL     1      20.597   4.116   5.838  1.00  0.00     0.157 HD
ATOM     64  H11 UNL     1      21.853   4.331   7.060  1.00  0.00     0.157 HD
HETATM   65  N4  UNL     1      24.495   3.984   6.748  1.00  0.00    -0.346 N 
HETATM   66  C5  UNL     1      25.817   3.798   6.544  1.00  0.00     0.188 A 
ATOM     67  H4  UNL     1      24.077   4.270   7.634  1.00  0.00     0.167 HD
ENDBRANCH   1  53
TORSDOF 17
ENDMDL
MODEL 4
REMARK VINA RESULT: -6.486633756      4.681     10.592
REMARK  17 active torsions:
REMARK  status: ('A' for Active; 'I' for Inactive)
REMARK    1  A    between atoms: N5_15  and  C6_16 
REMARK    2  A    between atoms: C7_18  and  C8_19 
REMARK    3  A    between atoms: C8_19  and  O2_20 
REMARK    4  A    between atoms: C9_22  and  N6_23 
REMARK    5  A    between atoms: N6_23  and  C10_25 
REMARK    6  A    between atoms: C10_25  and  C11_31 
REMARK    7  A    between atoms: N7_26  and  N8_28 
REMARK    8  A    between atoms: C12_33  and  N9_34 
REMARK    9  A    between atoms: C17_43  and  O6_44 
REMARK   10  A    between atoms: C18_46  and  O7_47 
REMARK   11  A    between atoms: C19_49  and  O8_50 
REMARK   12  A    between atoms: O8_50  and  C20_51 
REMARK   13  A    between atoms: C21_53  and  C22_54 
REMARK   14  A    between atoms: C22_54  and  O10_55 
REMARK   15  A    between atoms: C23_57  and  O11_58 
REMARK   16  A    between atoms: C24_60  and  O12_61 
REMARK   17  A    between atoms: C25_63  and  N11_64 
ROOT
HETATM    1  C6  UNL     1      36.642   3.233   6.245  1.00  0.00     0.262 C 
HETATM    2  O1  UNL     1      37.203   2.946   7.469  1.00  0.00    -0.354 OA
HETATM    3  C7  UNL     1      36.805   3.921   8.364  1.00  0.00     0.173 C 
HETATM    4  C9  UNL     1      36.774   5.148   7.513  1.00  0.00     0.147 C 
HETATM    5  C19 UNL     1      35.894   4.540   6.393  1.00  0.00     0.199 C 
ENDROOT
BRANCH   4   6
HETATM    6  N6  UNL     1      37.995   5.538   6.896  1.00  0.00    -0.367 N 
ATOM      7  H6  UNL     1      38.621   4.782   6.620  1.00  0.00     0.161 HD
BRANCH   6   8
HETATM    8  C10 UNL     1      38.446   6.857   6.619  1.00  0.00     0.124 C 
HETATM    9  N7  UNL     1      39.120   7.445   7.543  1.00  0.00    -0.294 N 
ATOM     10  H7  UNL     1      39.437   8.391   7.333  1.00  0.00     0.187 HD
BRANCH   9  11
HETATM   11  N8  UNL     1      39.464   6.955   8.771  1.00  0.00    -0.344 N 
ATOM     12  H82 UNL     1      40.089   6.149   8.752  1.00  0.00     0.176 HD
ATOM     13  H81 UNL     1      39.172   7.297   9.686  1.00  0.00     0.176 HD
ENDBRANCH   9  11
BRANCH   8  14
HETATM   14  C11 UNL     1      38.195   7.573   5.353  1.00  0.00     0.224 C 
HETATM   15  O3  UNL     1      37.318   8.607   5.538  1.00  0.00    -0.348 OA
HETATM   16  C12 UNL     1      37.976   9.807   5.465  1.00  0.00     0.264 C 
HETATM   17  C17 UNL     1      39.309   9.597   4.826  1.00  0.00     0.199 C 
HETATM   18  C18 UNL     1      39.435   8.111   4.707  1.00  0.00     0.187 C 
BRANCH  16  19
HETATM   19  N9  UNL     1      37.210  10.736   4.633  1.00  0.00    -0.280 N 
HETATM   20  C13 UNL     1      37.238  10.646   3.282  1.00  0.00     0.104 A 
HETATM   21  C14 UNL     1      36.511  11.529   2.517  1.00  0.00     0.092 A 
HETATM   22  C15 UNL     1      35.772  12.483   3.160  1.00  0.00     0.250 A 
HETATM   23  O4  UNL     1      35.082  13.322   2.495  1.00  0.00    -0.268 OA
HETATM   24  N10 UNL     1      35.747  12.569   4.500  1.00  0.00    -0.275 N 
HETATM   25  C16 UNL     1      36.477  11.681   5.229  1.00  0.00     0.331 A 
ATOM     26  H10 UNL     1      35.190  13.287   4.963  1.00  0.00     0.173 HD
HETATM   27  O5  UNL     1      36.418  11.804   6.496  1.00  0.00    -0.246 OA
ENDBRANCH  16  19
BRANCH  17  28
HETATM   28  O6  UNL     1      40.323  10.051   5.685  1.00  0.00    -0.388 OA
ATOM     29  H6  UNL     1      40.867   9.319   5.953  1.00  0.00     0.210 HD
ENDBRANCH  17  28
BRANCH  18  30
HETATM   30  O7  UNL     1      40.608   7.654   5.290  1.00  0.00    -0.390 OA
ATOM     31  H7  UNL     1      40.892   6.810   4.959  1.00  0.00     0.210 HD
ENDBRANCH  18  30
ENDBRANCH   8  14
ENDBRANCH   6   8
ENDBRANCH   4   6
BRANCH   3  32
HETATM   32  C8  UNL     1      37.534   3.961   9.631  1.00  0.00     0.198 C 
BRANCH  32  33
HETATM   33  O2  UNL     1      37.553   5.309  10.067  1.00  0.00    -0.398 OA
ATOM     34  H2  UNL     1      37.704   5.303  11.005  1.00  0.00     0.209 HD
ENDBRANCH  32  33
ENDBRANCH   3  32
BRANCH   5  35
HETATM   35  O8  UNL     1      36.019   5.235   5.215  1.00  0.00    -0.347 OA
BRANCH  35  36
HETATM   36  C20 UNL     1      34.818   5.775   4.766  1.00  0.00     0.294 C 
HETATM   37  O9  UNL     1      33.848   4.798   4.531  1.00  0.00    -0.349 OA
HETATM   38  C21 UNL     1      32.653   5.451   4.270  1.00  0.00     0.179 C 
HETATM   39  C23 UNL     1      32.702   6.219   2.964  1.00  0.00     0.180 C 
HETATM   40  C24 UNL     1      33.883   7.134   2.882  1.00  0.00     0.184 C 
HETATM   41  C25 UNL     1      35.106   6.463   3.449  1.00  0.00     0.269 C 
BRANCH  38  42
HETATM   42  C22 UNL     1      31.493   4.471   4.155  1.00  0.00     0.198 C 
BRANCH  42  43
HETATM   43  O10 UNL     1      32.062   3.230   3.806  1.00  0.00    -0.398 OA
ATOM     44  H10 UNL     1      32.735   3.057   4.454  1.00  0.00     0.209 HD
ENDBRANCH  42  43
ENDBRANCH  38  42
BRANCH  39  45
HETATM   45  O11 UNL     1      32.653   5.323   1.896  1.00  0.00    -0.390 OA
ATOM     46  H11 UNL     1      33.230   5.624   1.204  1.00  0.00     0.210 HD
ENDBRANCH  39  45
BRANCH  40  47
HETATM   47  O12 UNL     1      34.159   7.422   1.537  1.00  0.00    -0.391 OA
ATOM     48  H12 UNL     1      34.881   8.037   1.486  1.00  0.00     0.210 HD
ENDBRANCH  40  47
BRANCH  41  49
HETATM   49  N11 UNL     1      35.557   5.476   2.514  1.00  0.00    -0.068 N 
ATOM     50 3H11 UNL     1      35.595   4.540   2.918  1.00  0.00     0.275 HD
ATOM     51 2H11 UNL     1      34.871   5.283   1.784  1.00  0.00     0.275 HD
ATOM     52 1H11 UNL     1      36.457   5.777   2.138  1.00  0.00     0.275 HD
ENDBRANCH  41  49
ENDBRANCH  35  36
ENDBRANCH   5  35
BRANCH   1  53
HETATM   53  N5  UNL     1      35.799   2.152   5.831  1.00  0.00    -0.297 N 
HETATM   54  C3  UNL     1      34.505   2.077   6.201  1.00  0.00     0.142 A 
HETATM   55  N3  UNL     1      33.676   2.828   6.943  1.00  0.00    -0.336 N 
HETATM   56  C4  UNL     1      33.930   0.922   5.656  1.00  0.00     0.122 A 
HETATM   57  C2  UNL     1      32.399   2.568   7.190  1.00  0.00     0.183 A 
ATOM     58  H3  UNL     1      34.063   3.677   7.355  1.00  0.00     0.168 HD
HETATM   59  N2  UNL     1      31.867   1.439   6.647  1.00  0.00    -0.337 N 
HETATM   60  C1  UNL     1      32.610   0.623   5.893  1.00  0.00     0.131 A 
ATOM     61  H2  UNL     1      30.887   1.213   6.819  1.00  0.00     0.168 HD
HETATM   62  N1  UNL     1      32.080  -0.429   5.397  1.00  0.00    -0.383 N 
ATOM     63  H12 UNL     1      31.100  -0.650   5.573  1.00  0.00     0.157 HD
ATOM     64  H11 UNL     1      32.646  -1.052   4.821  1.00  0.00     0.157 HD
HETATM   65  N4  UNL     1      34.932   0.344   4.967  1.00  0.00    -0.346 N 
HETATM   66  C5  UNL     1      36.060   1.080   5.070  1.00  0.00     0.188 A 
ATOM     67  H4  UNL     1      34.851  -0.526   4.442  1.00  0.00     0.167 HD
ENDBRANCH   1  53
TORSDOF 17
ENDMDL
MODEL 5
REMARK VINA RESULT: -6.457249200      4.593      6.996
REMARK  17 active torsions:
REMARK  status: ('A' for Active; 'I' for Inactive)
REMARK    1  A    between atoms: N5_15  and  C6_16 
REMARK    2  A    between atoms: C7_18  and  C8_19 
REMARK    3  A    between atoms: C8_19  and  O2_20 
REMARK    4  A    between atoms: C9_22  and  N6_23 
REMARK    5  A    between atoms: N6_23  and  C10_25 
REMARK    6  A    between atoms: C10_25  and  C11_31 
REMARK    7  A    between atoms: N7_26  and  N8_28 
REMARK    8  A    between atoms: C12_33  and  N9_34 
REMARK    9  A    between atoms: C17_43  and  O6_44 
REMARK   10  A    between atoms: C18_46  and  O7_47 
REMARK   11  A    between atoms: C19_49  and  O8_50 
REMARK   12  A    between atoms: O8_50  and  C20_51 
REMARK   13  A    between atoms: C21_53  and  C22_54 
REMARK   14  A    between atoms: C22_54  and  O10_55 
REMARK   15  A    between atoms: C23_57  and  O11_58 
REMARK   16  A    between atoms: C24_60  and  O12_61 
REMARK   17  A    between atoms: C25_63  and  N11_64 
ROOT
HETATM    1  C6  UNL     1      36.859   7.652   3.668  1.00  0.00     0.262 C 
HETATM    2  O1  UNL     1      35.892   8.085   2.788  1.00  0.00    -0.354 OA
HETATM    3  C7  UNL     1      34.725   7.395   3.059  1.00  0.00     0.173 C 
HETATM    4  C9  UNL     1      35.231   6.043   3.443  1.00  0.00     0.147 C 
HETATM    5  C19 UNL     1      36.243   6.549   4.500  1.00  0.00     0.199 C 
ENDROOT
BRANCH   4   6
HETATM    6  N6  UNL     1      35.988   5.335   2.470  1.00  0.00    -0.367 N 
ATOM      7  H6  UNL     1      36.990   5.526   2.452  1.00  0.00     0.161 HD
BRANCH   6   8
HETATM    8  C10 UNL     1      35.514   4.392   1.518  1.00  0.00     0.124 C 
HETATM    9  N7  UNL     1      35.813   4.612   0.287  1.00  0.00    -0.294 N 
ATOM     10  H7  UNL     1      35.466   3.929  -0.387  1.00  0.00     0.187 HD
BRANCH   9  11
HETATM   11  N8  UNL     1      36.538   5.648  -0.229  1.00  0.00    -0.344 N 
ATOM     12  H82 UNL     1      37.470   5.398  -0.560  1.00  0.00     0.176 HD
ATOM     13  H81 UNL     1      36.258   6.625  -0.317  1.00  0.00     0.176 HD
ENDBRANCH   9  11
BRANCH   8  14
HETATM   14  C11 UNL     1      34.722   3.194   1.858  1.00  0.00     0.224 C 
HETATM   15  O3  UNL     1      34.694   2.990   3.211  1.00  0.00    -0.348 OA
HETATM   16  C12 UNL     1      33.455   3.295   3.713  1.00  0.00     0.264 C 
HETATM   17  C17 UNL     1      32.473   3.355   2.589  1.00  0.00     0.199 C 
HETATM   18  C18 UNL     1      33.311   3.240   1.356  1.00  0.00     0.187 C 
BRANCH  16  19
HETATM   19  N9  UNL     1      33.029   2.245   4.637  1.00  0.00    -0.280 N 
HETATM   20  C13 UNL     1      33.666   1.051   4.678  1.00  0.00     0.104 A 
HETATM   21  C14 UNL     1      33.249   0.076   5.555  1.00  0.00     0.092 A 
HETATM   22  C15 UNL     1      32.187   0.353   6.371  1.00  0.00     0.250 A 
HETATM   23  O4  UNL     1      31.765  -0.517   7.199  1.00  0.00    -0.268 OA
HETATM   24  N10 UNL     1      31.557   1.538   6.328  1.00  0.00    -0.275 N 
HETATM   25  C16 UNL     1      31.993   2.482   5.449  1.00  0.00     0.331 A 
ATOM     26  H10 UNL     1      30.767   1.728   6.942  1.00  0.00     0.173 HD
HETATM   27  O5  UNL     1      31.363   3.590   5.448  1.00  0.00    -0.246 OA
ENDBRANCH  16  19
BRANCH  17  28
HETATM   28  O6  UNL     1      31.849   4.613   2.573  1.00  0.00    -0.388 OA
ATOM     29  H6  UNL     1      30.936   4.522   2.820  1.00  0.00     0.210 HD
ENDBRANCH  17  28
BRANCH  18  30
HETATM   30  O7  UNL     1      33.069   4.286   0.478  1.00  0.00    -0.390 OA
ATOM     31  H7  UNL     1      32.182   4.298   0.135  1.00  0.00     0.210 HD
ENDBRANCH  18  30
ENDBRANCH   8  14
ENDBRANCH   6   8
ENDBRANCH   4   6
BRANCH   3  32
HETATM   32  C8  UNL     1      33.677   7.492   2.044  1.00  0.00     0.198 C 
BRANCH  32  33
HETATM   33  O2  UNL     1      32.430   7.380   2.709  1.00  0.00    -0.398 OA
ATOM     34  H2  UNL     1      31.755   7.647   2.095  1.00  0.00     0.209 HD
ENDBRANCH  32  33
ENDBRANCH   3  32
BRANCH   5  35
HETATM   35  O8  UNL     1      37.219   5.617   4.756  1.00  0.00    -0.347 OA
BRANCH  35  36
HETATM   36  C20 UNL     1      36.784   4.576   5.569  1.00  0.00     0.294 C 
HETATM   37  O9  UNL     1      35.726   4.953   6.400  1.00  0.00    -0.349 OA
HETATM   38  C21 UNL     1      35.257   3.806   7.023  1.00  0.00     0.179 C 
HETATM   39  C23 UNL     1      36.273   3.230   7.989  1.00  0.00     0.180 C 
HETATM   40  C24 UNL     1      37.613   3.028   7.354  1.00  0.00     0.184 C 
HETATM   41  C25 UNL     1      37.948   4.188   6.456  1.00  0.00     0.269 C 
BRANCH  38  42
HETATM   42  C22 UNL     1      33.997   4.087   7.833  1.00  0.00     0.198 C 
BRANCH  42  43
HETATM   43  O10 UNL     1      33.641   2.866   8.438  1.00  0.00    -0.398 OA
ATOM     44  H10 UNL     1      33.085   3.089   9.176  1.00  0.00     0.209 HD
ENDBRANCH  42  43
ENDBRANCH  38  42
BRANCH  39  45
HETATM   45  O11 UNL     1      36.343   4.036   9.126  1.00  0.00    -0.390 OA
ATOM     46  H11 UNL     1      36.554   3.500   9.881  1.00  0.00     0.210 HD
ENDBRANCH  39  45
BRANCH  40  47
HETATM   47  O12 UNL     1      38.599   2.983   8.352  1.00  0.00    -0.391 OA
ATOM     48  H12 UNL     1      39.269   3.630   8.164  1.00  0.00     0.210 HD
ENDBRANCH  40  47
BRANCH  41  49
HETATM   49  N11 UNL     1      38.286   5.315   7.274  1.00  0.00    -0.068 N 
ATOM     50 3H11 UNL     1      38.909   5.970   6.801  1.00  0.00     0.275 HD
ATOM     51 2H11 UNL     1      37.500   5.948   7.413  1.00  0.00     0.275 HD
ATOM     52 1H11 UNL     1      38.674   4.969   8.152  1.00  0.00     0.275 HD
ENDBRANCH  41  49
ENDBRANCH  35  36
ENDBRANCH   5  35
BRANCH   1  53
HETATM   53  N5  UNL     1      37.324   8.753   4.458  1.00  0.00    -0.297 N 
HETATM   54  C3  UNL     1      36.955  10.022   4.196  1.00  0.00     0.142 A 
HETATM   55  N3  UNL     1      36.171  10.624   3.287  1.00  0.00    -0.336 N 
HETATM   56  C4  UNL     1      37.558  10.884   5.121  1.00  0.00     0.122 A 
HETATM   57  C2  UNL     1      35.933  11.926   3.202  1.00  0.00     0.183 A 
ATOM     58  H3  UNL     1      35.716  10.025   2.598  1.00  0.00     0.168 HD
HETATM   59  N2  UNL     1      36.533  12.739   4.113  1.00  0.00    -0.337 N 
HETATM   60  C1  UNL     1      37.333  12.238   5.060  1.00  0.00     0.131 A 
ATOM     61  H2  UNL     1      36.369  13.745   4.073  1.00  0.00     0.168 HD
HETATM   62  N1  UNL     1      37.880  13.029   5.902  1.00  0.00    -0.383 N 
ATOM     63  H12 UNL     1      37.713  14.034   5.856  1.00  0.00     0.157 HD
ATOM     64  H11 UNL     1      38.491  12.648   6.624  1.00  0.00     0.157 HD
HETATM   65  N4  UNL     1      38.279  10.070   5.914  1.00  0.00    -0.346 N 
HETATM   66  C5  UNL     1      38.143   8.785   5.519  1.00  0.00     0.188 A 
ATOM     67  H4  UNL     1      38.848  10.379   6.702  1.00  0.00     0.167 HD
ENDBRANCH   1  53
TORSDOF 17
ENDMDL
