MODEL 1
REMARK VINA RESULT: -6.527751355      0.000      0.000
REMARK  15 active torsions:
REMARK  status: ('A' for Active; 'I' for Inactive)
REMARK    1  A    between atoms: N1_1  and  C1_4 
REMARK    2  A    between atoms: C2_7  and  C3_8 
REMARK    3  A    between atoms: N3_10  and  C5_11 
REMARK    4  A    between atoms: C6_13  and  C7_14 
REMARK    5  A    between atoms: C7_14  and  O2_15 
REMARK    6  A    between atoms: C8_17  and  O3_18 
REMARK    7  A    between atoms: C9_20  and  O4_21 
REMARK    8  A    between atoms: C10_23  and  O5_24 
REMARK    9  A    between atoms: N6_34  and  C13_35 
REMARK   10  A    between atoms: C13_35  and  C14_36 
REMARK   11  A    between atoms: C15_38  and  N7_39 
REMARK   12  A    between atoms: C17_44  and  N9_45 
REMARK   13  A    between atoms: C18_51  and  C19_52 
REMARK   14  A    between atoms: C19_52  and  C20_53 
REMARK   15  A    between atoms: C22_59  and  O11_60 
ROOT
HETATM    1  C1  UNL     1      26.814  -1.633   2.492  1.00  0.00     0.694 A 
HETATM    2  N2  UNL     1      25.865  -1.843   3.420  1.00  0.00    -0.173 N 
ATOM      3  H2  UNL     1      26.007  -2.280   4.331  1.00  0.00     0.186 HD
HETATM    4  C2  UNL     1      24.678  -1.371   2.933  1.00  0.00     0.153 A 
HETATM    5  N5  UNL     1      24.980  -0.893   1.717  1.00  0.00    -0.268 N 
ATOM      6  H5  UNL     1      24.298  -0.466   1.089  1.00  0.00     0.189 HD
HETATM    7  N6  UNL     1      26.264  -1.038   1.423  1.00  0.00    -0.119 N 
ENDROOT
BRANCH   7   8
HETATM    8  C13 UNL     1      26.901  -0.629   0.156  1.00  0.00     0.210 C 
BRANCH   8   9
HETATM    9  C14 UNL     1      27.474   0.749   0.398  1.00  0.00     0.236 C 
HETATM   10  O8  UNL     1      26.893   1.428   1.408  1.00  0.00    -0.345 OA
HETATM   11  C15 UNL     1      25.958   2.385   1.149  1.00  0.00     0.300 C 
HETATM   12  C22 UNL     1      26.351   3.443   0.172  1.00  0.00     0.270 C 
HETATM   13  N14 UNL     1      27.377   2.955  -0.723  1.00  0.00    -0.329 N 
HETATM   14  C23 UNL     1      27.583   1.565  -0.808  1.00  0.00     0.250 C 
ATOM     15  H14 UNL     1      27.936   3.602  -1.279  1.00  0.00     0.165 HD
HETATM   16  O12 UNL     1      27.859   1.038  -1.908  1.00  0.00    -0.271 OA
BRANCH  11  17
HETATM   17  N7  UNL     1      25.606   2.965   2.457  1.00  0.00    -0.097 N 
HETATM   18  C16 UNL     1      24.325   3.195   2.791  1.00  0.00     0.357 A 
HETATM   19  O9  UNL     1      23.439   2.899   1.954  1.00  0.00    -0.245 OA
HETATM   20  N8  UNL     1      23.974   3.725   3.977  1.00  0.00    -0.139 N 
HETATM   21  C17 UNL     1      24.913   4.041   4.870  1.00  0.00     0.716 A 
ATOM     22  H8  UNL     1      22.990   3.885   4.194  1.00  0.00     0.189 HD
HETATM   23  N10 UNL     1      26.193   3.826   4.570  1.00  0.00     0.092 N 
HETATM   24  N11 UNL     1      27.300   4.028   5.224  1.00  0.00    -0.252 N 
HETATM   25  C21 UNL     1      26.538   3.289   3.362  1.00  0.00     0.728 A 
HETATM   26  C18 UNL     1      28.365   3.642   4.489  1.00  0.00     0.121 A 
ATOM     27  H11 UNL     1      27.356   4.423   6.163  1.00  0.00     0.190 HD
HETATM   28  N13 UNL     1      27.878   3.185   3.335  1.00  0.00    -0.176 N 
ATOM     29  H13 UNL     1      28.430   2.816   2.560  1.00  0.00     0.185 HD
BRANCH  21  30
HETATM   30  N9  UNL     1      24.545   4.555   6.016  1.00  0.00    -0.232 N 
ATOM     31  H92 UNL     1      24.932   5.432   6.365  1.00  0.00     0.174 HD
ATOM     32  H91 UNL     1      23.849   4.061   6.574  1.00  0.00     0.174 HD
ENDBRANCH  21  30
BRANCH  26  33
HETATM   33  C19 UNL     1      29.758   3.741   4.959  1.00  0.00     0.177 C 
BRANCH  33  34
HETATM   34  C20 UNL     1      30.472   4.726   4.107  1.00  0.00     0.238 C 
HETATM   35  N12 UNL     1      29.694   5.559   3.260  1.00  0.00    -0.062 NA
HETATM   36  O10 UNL     1      31.738   4.811   4.146  1.00  0.00    -0.276 OA
ENDBRANCH  33  34
ENDBRANCH  26  33
ENDBRANCH  11  17
BRANCH  12  37
HETATM   37  O11 UNL     1      25.277   3.777  -0.700  1.00  0.00    -0.372 OA
ATOM     38  H11 UNL     1      25.305   4.691  -0.957  1.00  0.00     0.212 HD
ENDBRANCH  12  37
ENDBRANCH   8   9
ENDBRANCH   7   8
BRANCH   1  39
HETATM   39  N1  UNL     1      28.067  -1.937   2.580  1.00  0.00    -0.233 N 
ATOM     40  H12 UNL     1      28.803  -1.470   2.049  1.00  0.00     0.174 HD
ATOM     41  H11 UNL     1      28.484  -2.654   3.173  1.00  0.00     0.174 HD
ENDBRANCH   1  39
BRANCH   4  42
HETATM   42  C3  UNL     1      23.391  -1.397   3.612  1.00  0.00     0.094 A 
HETATM   43  C4  UNL     1      22.789  -0.246   4.057  1.00  0.00     0.119 A 
HETATM   44  N3  UNL     1      21.579  -0.312   4.694  1.00  0.00    -0.279 N 
HETATM   45  C11 UNL     1      20.980  -1.494   4.886  1.00  0.00     0.331 A 
HETATM   46  O6  UNL     1      19.869  -1.564   5.470  1.00  0.00    -0.246 OA
HETATM   47  N4  UNL     1      21.544  -2.645   4.462  1.00  0.00    -0.274 N 
HETATM   48  C12 UNL     1      22.750  -2.591   3.826  1.00  0.00     0.264 A 
ATOM     49  H4  UNL     1      21.077  -3.539   4.614  1.00  0.00     0.173 HD
HETATM   50  O7  UNL     1      23.306  -3.641   3.417  1.00  0.00    -0.267 OA
BRANCH  44  51
HETATM   51  C5  UNL     1      20.971   0.907   5.150  1.00  0.00     0.264 C 
HETATM   52  O1  UNL     1      21.674   1.992   4.674  1.00  0.00    -0.353 OA
HETATM   53  C6  UNL     1      21.023   3.196   4.869  1.00  0.00     0.179 C 
HETATM   54  C8  UNL     1      20.469   3.423   6.208  1.00  0.00     0.180 C 
HETATM   55  C9  UNL     1      20.213   2.218   7.051  1.00  0.00     0.182 C 
HETATM   56  C10 UNL     1      21.021   1.013   6.666  1.00  0.00     0.198 C 
BRANCH  53  57
HETATM   57  C7  UNL     1      20.015   3.351   3.744  1.00  0.00     0.198 C 
BRANCH  57  58
HETATM   58  O2  UNL     1      20.622   3.400   2.493  1.00  0.00    -0.398 OA
ATOM     59  H2  UNL     1      20.949   4.268   2.285  1.00  0.00     0.209 HD
ENDBRANCH  57  58
ENDBRANCH  53  57
BRANCH  54  60
HETATM   60  O3  UNL     1      21.255   4.310   6.970  1.00  0.00    -0.390 OA
ATOM     61  H3  UNL     1      21.267   4.082   7.892  1.00  0.00     0.210 HD
ENDBRANCH  54  60
BRANCH  55  62
HETATM   62  O4  UNL     1      18.855   1.832   6.989  1.00  0.00    -0.390 OA
ATOM     63  H4  UNL     1      18.640   1.471   6.138  1.00  0.00     0.210 HD
ENDBRANCH  55  62
BRANCH  56  64
HETATM   64  O5  UNL     1      22.358   1.237   7.036  1.00  0.00    -0.388 OA
ATOM     65  H5  UNL     1      22.403   1.219   7.985  1.00  0.00     0.210 HD
ENDBRANCH  56  64
ENDBRANCH  44  51
ENDBRANCH   4  42
TORSDOF 15
ENDMDL
MODEL 2
REMARK VINA RESULT: -6.380102330      8.482     12.648
REMARK  15 active torsions:
REMARK  status: ('A' for Active; 'I' for Inactive)
REMARK    1  A    between atoms: N1_1  and  C1_4 
REMARK    2  A    between atoms: C2_7  and  C3_8 
REMARK    3  A    between atoms: N3_10  and  C5_11 
REMARK    4  A    between atoms: C6_13  and  C7_14 
REMARK    5  A    between atoms: C7_14  and  O2_15 
REMARK    6  A    between atoms: C8_17  and  O3_18 
REMARK    7  A    between atoms: C9_20  and  O4_21 
REMARK    8  A    between atoms: C10_23  and  O5_24 
REMARK    9  A    between atoms: N6_34  and  C13_35 
REMARK   10  A    between atoms: C13_35  and  C14_36 
REMARK   11  A    between atoms: C15_38  and  N7_39 
REMARK   12  A    between atoms: C17_44  and  N9_45 
REMARK   13  A    between atoms: C18_51  and  C19_52 
REMARK   14  A    between atoms: C19_52  and  C20_53 
REMARK   15  A    between atoms: C22_59  and  O11_60 
ROOT
HETATM    1  C1  UNL     1      38.814   6.812   6.791  1.00  0.00     0.694 A 
HETATM    2  N2  UNL     1      37.706   6.348   7.392  1.00  0.00    -0.173 N 
ATOM      3  H2  UNL     1      37.296   6.711   8.253  1.00  0.00     0.186 HD
HETATM    4  C2  UNL     1      37.221   5.306   6.652  1.00  0.00     0.153 A 
HETATM    5  N5  UNL     1      38.079   5.196   5.626  1.00  0.00    -0.268 N 
ATOM      6  H5  UNL     1      37.991   4.499   4.886  1.00  0.00     0.189 HD
HETATM    7  N6  UNL     1      39.052   6.093   5.684  1.00  0.00    -0.119 N 
ENDROOT
BRANCH   7   8
HETATM    8  C13 UNL     1      40.156   6.218   4.713  1.00  0.00     0.210 C 
BRANCH   8   9
HETATM    9  C14 UNL     1      39.682   7.189   3.657  1.00  0.00     0.236 C 
HETATM   10  O8  UNL     1      38.363   7.120   3.384  1.00  0.00    -0.345 OA
HETATM   11  C15 UNL     1      37.918   6.449   2.284  1.00  0.00     0.300 C 
HETATM   12  C22 UNL     1      38.544   6.829   0.983  1.00  0.00     0.270 C 
HETATM   13  N14 UNL     1      39.859   7.392   1.195  1.00  0.00    -0.329 N 
HETATM   14  C23 UNL     1      40.485   7.179   2.438  1.00  0.00     0.250 C 
ATOM     15  H14 UNL     1      40.322   7.930   0.463  1.00  0.00     0.165 HD
HETATM   16  O12 UNL     1      41.719   6.984   2.494  1.00  0.00    -0.271 OA
BRANCH  11  17
HETATM   17  N7  UNL     1      36.459   6.646   2.257  1.00  0.00    -0.097 N 
HETATM   18  C16 UNL     1      35.618   5.598   2.245  1.00  0.00     0.357 A 
HETATM   19  O9  UNL     1      36.116   4.447   2.258  1.00  0.00    -0.245 OA
HETATM   20  N8  UNL     1      34.281   5.747   2.218  1.00  0.00    -0.139 N 
HETATM   21  C17 UNL     1      33.748   6.969   2.203  1.00  0.00     0.716 A 
ATOM     22  H8  UNL     1      33.676   4.927   2.209  1.00  0.00     0.189 HD
HETATM   23  N10 UNL     1      34.553   8.030   2.214  1.00  0.00     0.092 N 
HETATM   24  N11 UNL     1      34.327   9.312   2.206  1.00  0.00    -0.252 N 
HETATM   25  C21 UNL     1      35.908   7.866   2.240  1.00  0.00     0.728 A 
HETATM   26  C18 UNL     1      35.489  10.001   2.226  1.00  0.00     0.121 A 
ATOM     27  H11 UNL     1      33.400   9.738   2.188  1.00  0.00     0.190 HD
HETATM   28  N13 UNL     1      36.463   9.092   2.247  1.00  0.00    -0.176 N 
ATOM     29  H13 UNL     1      37.463   9.292   2.266  1.00  0.00     0.185 HD
BRANCH  21  30
HETATM   30  N9  UNL     1      32.444   7.087   2.177  1.00  0.00    -0.232 N 
ATOM     31  H92 UNL     1      31.846   6.384   1.744  1.00  0.00     0.174 HD
ATOM     32  H91 UNL     1      32.017   7.909   2.605  1.00  0.00     0.174 HD
ENDBRANCH  21  30
BRANCH  26  33
HETATM   33  C19 UNL     1      35.561  11.473   2.228  1.00  0.00     0.177 C 
BRANCH  33  34
HETATM   34  C20 UNL     1      34.177  12.012   2.235  1.00  0.00     0.238 C 
HETATM   35  N12 UNL     1      33.569  12.296   0.984  1.00  0.00    -0.062 NA
HETATM   36  O10 UNL     1      33.569  12.205   3.332  1.00  0.00    -0.276 OA
ENDBRANCH  33  34
ENDBRANCH  26  33
ENDBRANCH  11  17
BRANCH  12  37
HETATM   37  O11 UNL     1      38.795   5.689   0.169  1.00  0.00    -0.372 OA
ATOM     38  H11 UNL     1      39.073   5.937  -0.705  1.00  0.00     0.212 HD
ENDBRANCH  12  37
ENDBRANCH   8   9
ENDBRANCH   7   8
BRANCH   1  39
HETATM   39  N1  UNL     1      39.556   7.796   7.182  1.00  0.00    -0.233 N 
ATOM     40  H12 UNL     1      39.301   8.777   7.072  1.00  0.00     0.174 HD
ATOM     41  H11 UNL     1      40.464   7.734   7.643  1.00  0.00     0.174 HD
ENDBRANCH   1  39
BRANCH   4  42
HETATM   42  C3  UNL     1      36.036   4.514   6.943  1.00  0.00     0.094 A 
HETATM   43  C4  UNL     1      35.109   4.223   5.972  1.00  0.00     0.119 A 
HETATM   44  N3  UNL     1      34.005   3.477   6.286  1.00  0.00    -0.279 N 
HETATM   45  C11 UNL     1      33.824   3.029   7.535  1.00  0.00     0.331 A 
HETATM   46  O6  UNL     1      32.813   2.344   7.831  1.00  0.00    -0.246 OA
HETATM   47  N4  UNL     1      34.715   3.296   8.513  1.00  0.00    -0.274 N 
HETATM   48  C12 UNL     1      35.819   4.039   8.212  1.00  0.00     0.264 A 
ATOM     49  H4  UNL     1      34.566   2.948   9.460  1.00  0.00     0.173 HD
HETATM   50  O7  UNL     1      36.670   4.308   9.096  1.00  0.00    -0.267 OA
BRANCH  44  51
HETATM   51  C5  UNL     1      33.050   3.188   5.252  1.00  0.00     0.264 C 
HETATM   52  O1  UNL     1      33.680   3.140   4.027  1.00  0.00    -0.353 OA
HETATM   53  C6  UNL     1      32.881   2.638   3.018  1.00  0.00     0.179 C 
HETATM   54  C8  UNL     1      31.522   3.186   2.935  1.00  0.00     0.180 C 
HETATM   55  C9  UNL     1      30.969   3.819   4.168  1.00  0.00     0.182 C 
HETATM   56  C10 UNL     1      32.009   4.292   5.140  1.00  0.00     0.198 C 
BRANCH  53  57
HETATM   57  C7  UNL     1      32.937   1.123   3.110  1.00  0.00     0.198 C 
BRANCH  57  58
HETATM   58  O2  UNL     1      31.709   0.570   3.456  1.00  0.00    -0.398 OA
ATOM     59  H2  UNL     1      31.507  -0.206   2.946  1.00  0.00     0.209 HD
ENDBRANCH  57  58
ENDBRANCH  53  57
BRANCH  54  60
HETATM   60  O3  UNL     1      31.382   4.115   1.885  1.00  0.00    -0.390 OA
ATOM     61  H3  UNL     1      30.749   3.833   1.235  1.00  0.00     0.210 HD
ENDBRANCH  54  60
BRANCH  55  62
HETATM   62  O4  UNL     1      30.135   2.921   4.872  1.00  0.00    -0.390 OA
ATOM     63  H4  UNL     1      30.630   2.183   5.205  1.00  0.00     0.210 HD
ENDBRANCH  55  62
BRANCH  56  64
HETATM   64  O5  UNL     1      32.642   5.424   4.599  1.00  0.00    -0.388 OA
ATOM     65  H5  UNL     1      32.052   5.809   3.961  1.00  0.00     0.210 HD
ENDBRANCH  56  64
ENDBRANCH  44  51
ENDBRANCH   4  42
TORSDOF 15
ENDMDL
MODEL 3
REMARK VINA RESULT: -6.335994091      7.849     13.516
REMARK  15 active torsions:
REMARK  status: ('A' for Active; 'I' for Inactive)
REMARK    1  A    between atoms: N1_1  and  C1_4 
REMARK    2  A    between atoms: C2_7  and  C3_8 
REMARK    3  A    between atoms: N3_10  and  C5_11 
REMARK    4  A    between atoms: C6_13  and  C7_14 
REMARK    5  A    between atoms: C7_14  and  O2_15 
REMARK    6  A    between atoms: C8_17  and  O3_18 
REMARK    7  A    between atoms: C9_20  and  O4_21 
REMARK    8  A    between atoms: C10_23  and  O5_24 
REMARK    9  A    between atoms: N6_34  and  C13_35 
REMARK   10  A    between atoms: C13_35  and  C14_36 
REMARK   11  A    between atoms: C15_38  and  N7_39 
REMARK   12  A    between atoms: C17_44  and  N9_45 
REMARK   13  A    between atoms: C18_51  and  C19_52 
REMARK   14  A    between atoms: C19_52  and  C20_53 
REMARK   15  A    between atoms: C22_59  and  O11_60 
ROOT
HETATM    1  C1  UNL     1      37.441   5.533   7.235  1.00  0.00     0.694 A 
HETATM    2  N2  UNL     1      37.804   6.503   6.379  1.00  0.00    -0.173 N 
ATOM      3  H2  UNL     1      38.384   7.311   6.605  1.00  0.00     0.186 HD
HETATM    4  C2  UNL     1      37.264   6.220   5.156  1.00  0.00     0.153 A 
HETATM    5  N5  UNL     1      36.592   5.075   5.343  1.00  0.00    -0.268 N 
ATOM      6  H5  UNL     1      36.070   4.596   4.608  1.00  0.00     0.189 HD
HETATM    7  N6  UNL     1      36.681   4.635   6.590  1.00  0.00    -0.119 N 
ENDROOT
BRANCH   7   8
HETATM    8  C13 UNL     1      36.038   3.414   7.112  1.00  0.00     0.210 C 
BRANCH   8   9
HETATM    9  C14 UNL     1      35.462   2.695   5.914  1.00  0.00     0.236 C 
HETATM   10  O8  UNL     1      34.294   3.199   5.466  1.00  0.00    -0.345 OA
HETATM   11  C15 UNL     1      33.112   2.602   5.791  1.00  0.00     0.300 C 
HETATM   12  C22 UNL     1      33.015   1.139   5.508  1.00  0.00     0.270 C 
HETATM   13  N14 UNL     1      34.328   0.534   5.490  1.00  0.00    -0.329 N 
HETATM   14  C23 UNL     1      35.399   1.244   6.066  1.00  0.00     0.250 C 
ATOM     15  H14 UNL     1      34.475  -0.384   5.072  1.00  0.00     0.165 HD
HETATM   16  O12 UNL     1      36.288   0.635   6.701  1.00  0.00    -0.271 OA
BRANCH  11  17
HETATM   17  N7  UNL     1      32.071   3.359   5.076  1.00  0.00    -0.097 N 
HETATM   18  C16 UNL     1      30.875   3.595   5.642  1.00  0.00     0.357 A 
HETATM   19  O9  UNL     1      30.675   3.152   6.798  1.00  0.00    -0.245 OA
HETATM   20  N8  UNL     1      29.903   4.282   5.012  1.00  0.00    -0.139 N 
HETATM   21  C17 UNL     1      30.112   4.755   3.783  1.00  0.00     0.716 A 
ATOM     22  H8  UNL     1      29.008   4.440   5.475  1.00  0.00     0.189 HD
HETATM   23  N10 UNL     1      31.286   4.537   3.193  1.00  0.00     0.092 N 
HETATM   24  N11 UNL     1      31.766   4.869   2.029  1.00  0.00    -0.252 N 
HETATM   25  C21 UNL     1      32.264   3.838   3.841  1.00  0.00     0.728 A 
HETATM   26  C18 UNL     1      33.029   4.413   1.887  1.00  0.00     0.121 A 
ATOM     27  H11 UNL     1      31.258   5.402   1.322  1.00  0.00     0.190 HD
HETATM   28  N13 UNL     1      33.326   3.775   3.019  1.00  0.00    -0.176 N 
ATOM     29  H13 UNL     1      34.213   3.314   3.227  1.00  0.00     0.185 HD
BRANCH  21  30
HETATM   30  N9  UNL     1      29.150   5.419   3.193  1.00  0.00    -0.232 N 
ATOM     31  H92 UNL     1      29.314   5.979   2.356  1.00  0.00     0.174 HD
ATOM     32  H91 UNL     1      28.210   5.373   3.585  1.00  0.00     0.174 HD
ENDBRANCH  21  30
BRANCH  26  33
HETATM   33  C19 UNL     1      33.842   4.633   0.678  1.00  0.00     0.177 C 
BRANCH  33  34
HETATM   34  C20 UNL     1      34.710   5.817   0.905  1.00  0.00     0.238 C 
HETATM   35  N12 UNL     1      34.367   6.698   1.964  1.00  0.00    -0.062 NA
HETATM   36  O10 UNL     1      35.722   6.022   0.168  1.00  0.00    -0.276 OA
ENDBRANCH  33  34
ENDBRANCH  26  33
ENDBRANCH  11  17
BRANCH  12  37
HETATM   37  O11 UNL     1      32.341   0.447   6.552  1.00  0.00    -0.372 OA
ATOM     38  H11 UNL     1      31.430   0.284   6.335  1.00  0.00     0.212 HD
ENDBRANCH  12  37
ENDBRANCH   8   9
ENDBRANCH   7   8
BRANCH   1  39
HETATM   39  N1  UNL     1      37.757   5.440   8.485  1.00  0.00    -0.233 N 
ATOM     40  H12 UNL     1      38.694   5.209   8.817  1.00  0.00     0.174 HD
ATOM     41  H11 UNL     1      37.142   5.583   9.285  1.00  0.00     0.174 HD
ENDBRANCH   1  39
BRANCH   4  42
HETATM   42  C3  UNL     1      37.407   7.010   3.942  1.00  0.00     0.094 A 
HETATM   43  C4  UNL     1      36.918   8.290   3.856  1.00  0.00     0.119 A 
HETATM   44  N3  UNL     1      37.069   9.000   2.695  1.00  0.00    -0.279 N 
HETATM   45  C11 UNL     1      37.691   8.452   1.643  1.00  0.00     0.331 A 
HETATM   46  O6  UNL     1      37.835   9.096   0.574  1.00  0.00    -0.246 OA
HETATM   47  N4  UNL     1      38.184   7.196   1.694  1.00  0.00    -0.274 N 
HETATM   48  C12 UNL     1      38.039   6.479   2.846  1.00  0.00     0.264 A 
ATOM     49  H4  UNL     1      38.656   6.790   0.886  1.00  0.00     0.173 HD
HETATM   50  O7  UNL     1      38.483   5.307   2.931  1.00  0.00    -0.267 OA
BRANCH  44  51
HETATM   51  C5  UNL     1      36.548  10.337   2.630  1.00  0.00     0.264 C 
HETATM   52  O1  UNL     1      36.247  10.789   3.897  1.00  0.00    -0.353 OA
HETATM   53  C6  UNL     1      35.965  12.140   3.945  1.00  0.00     0.179 C 
HETATM   54  C8  UNL     1      35.035  12.645   2.928  1.00  0.00     0.180 C 
HETATM   55  C9  UNL     1      34.875  11.827   1.690  1.00  0.00     0.182 C 
HETATM   56  C10 UNL     1      35.242  10.382   1.852  1.00  0.00     0.198 C 
BRANCH  53  57
HETATM   57  C7  UNL     1      37.292  12.876   3.994  1.00  0.00     0.198 C 
BRANCH  57  58
HETATM   58  O2  UNL     1      37.543  13.430   5.245  1.00  0.00    -0.398 OA
ATOM     59  H2  UNL     1      37.841  12.782   5.873  1.00  0.00     0.209 HD
ENDBRANCH  57  58
ENDBRANCH  53  57
BRANCH  54  60
HETATM   60  O3  UNL     1      33.747  12.879   3.448  1.00  0.00    -0.390 OA
ATOM     61  H3  UNL     1      33.722  12.815   4.395  1.00  0.00     0.210 HD
ENDBRANCH  54  60
BRANCH  55  62
HETATM   62  O4  UNL     1      35.672  12.332   0.638  1.00  0.00    -0.390 OA
ATOM     63  H4  UNL     1      35.722  11.714  -0.081  1.00  0.00     0.210 HD
ENDBRANCH  55  62
BRANCH  56  64
HETATM   64  O5  UNL     1      34.256   9.757   2.636  1.00  0.00    -0.388 OA
ATOM     65  H5  UNL     1      33.409   9.971   2.260  1.00  0.00     0.210 HD
ENDBRANCH  56  64
ENDBRANCH  44  51
ENDBRANCH   4  42
TORSDOF 15
ENDMDL
MODEL 4
REMARK VINA RESULT: -6.304297813      3.156      9.267
REMARK  15 active torsions:
REMARK  status: ('A' for Active; 'I' for Inactive)
REMARK    1  A    between atoms: N1_1  and  C1_4 
REMARK    2  A    between atoms: C2_7  and  C3_8 
REMARK    3  A    between atoms: N3_10  and  C5_11 
REMARK    4  A    between atoms: C6_13  and  C7_14 
REMARK    5  A    between atoms: C7_14  and  O2_15 
REMARK    6  A    between atoms: C8_17  and  O3_18 
REMARK    7  A    between atoms: C9_20  and  O4_21 
REMARK    8  A    between atoms: C10_23  and  O5_24 
REMARK    9  A    between atoms: N6_34  and  C13_35 
REMARK   10  A    between atoms: C13_35  and  C14_36 
REMARK   11  A    between atoms: C15_38  and  N7_39 
REMARK   12  A    between atoms: C17_44  and  N9_45 
REMARK   13  A    between atoms: C18_51  and  C19_52 
REMARK   14  A    between atoms: C19_52  and  C20_53 
REMARK   15  A    between atoms: C22_59  and  O11_60 
ROOT
HETATM    1  C1  UNL     1      30.497   5.069  -0.888  1.00  0.00     0.694 A 
HETATM    2  N2  UNL     1      31.599   5.128  -0.121  1.00  0.00    -0.173 N 
ATOM      3  H2  UNL     1      32.560   5.173  -0.458  1.00  0.00     0.186 HD
HETATM    4  C2  UNL     1      31.209   5.116   1.189  1.00  0.00     0.153 A 
HETATM    5  N5  UNL     1      29.870   5.050   1.141  1.00  0.00    -0.268 N 
ATOM      6  H5  UNL     1      29.272   5.025   1.967  1.00  0.00     0.189 HD
HETATM    7  N6  UNL     1      29.412   5.020  -0.102  1.00  0.00    -0.119 N 
ENDROOT
BRANCH   7   8
HETATM    8  C13 UNL     1      27.989   4.930  -0.486  1.00  0.00     0.210 C 
BRANCH   8   9
HETATM    9  C14 UNL     1      27.481   3.624   0.081  1.00  0.00     0.236 C 
HETATM   10  O8  UNL     1      27.099   3.685   1.373  1.00  0.00    -0.345 OA
HETATM   11  C15 UNL     1      27.926   3.240   2.361  1.00  0.00     0.300 C 
HETATM   12  C22 UNL     1      28.460   1.855   2.199  1.00  0.00     0.270 C 
HETATM   13  N14 UNL     1      28.475   1.474   0.804  1.00  0.00    -0.329 N 
HETATM   14  C23 UNL     1      28.363   2.487  -0.167  1.00  0.00     0.250 C 
ATOM     15  H14 UNL     1      28.564   0.496   0.530  1.00  0.00     0.165 HD
HETATM   16  O12 UNL     1      29.015   2.411  -1.232  1.00  0.00    -0.271 OA
BRANCH  11  17
HETATM   17  N7  UNL     1      27.165   3.381   3.614  1.00  0.00    -0.097 N 
HETATM   18  C16 UNL     1      27.642   4.113   4.636  1.00  0.00     0.357 A 
HETATM   19  O9  UNL     1      28.755   4.672   4.487  1.00  0.00    -0.245 OA
HETATM   20  N8  UNL     1      26.970   4.257   5.793  1.00  0.00    -0.139 N 
HETATM   21  C17 UNL     1      25.787   3.664   5.955  1.00  0.00     0.716 A 
ATOM     22  H8  UNL     1      27.366   4.820   6.546  1.00  0.00     0.189 HD
HETATM   23  N10 UNL     1      25.286   2.931   4.962  1.00  0.00     0.092 N 
HETATM   24  N11 UNL     1      24.183   2.252   4.834  1.00  0.00    -0.252 N 
HETATM   25  C21 UNL     1      25.978   2.789   3.793  1.00  0.00     0.728 A 
HETATM   26  C18 UNL     1      24.122   1.667   3.618  1.00  0.00     0.121 A 
ATOM     27  H11 UNL     1      23.463   2.173   5.553  1.00  0.00     0.190 HD
HETATM   28  N13 UNL     1      25.242   2.009   2.981  1.00  0.00    -0.176 N 
ATOM     29  H13 UNL     1      25.499   1.726   2.035  1.00  0.00     0.185 HD
BRANCH  21  30
HETATM   30  N9  UNL     1      25.155   3.820   7.090  1.00  0.00    -0.232 N 
ATOM     31  H92 UNL     1      24.662   4.683   7.321  1.00  0.00     0.174 HD
ATOM     32  H91 UNL     1      25.156   3.053   7.763  1.00  0.00     0.174 HD
ENDBRANCH  21  30
BRANCH  26  33
HETATM   33  C19 UNL     1      22.992   0.834   3.172  1.00  0.00     0.177 C 
BRANCH  33  34
HETATM   34  C20 UNL     1      22.018   1.703   2.463  1.00  0.00     0.238 C 
HETATM   35  N12 UNL     1      22.295   3.095   2.400  1.00  0.00    -0.062 NA
HETATM   36  O10 UNL     1      20.977   1.206   1.935  1.00  0.00    -0.276 OA
ENDBRANCH  33  34
ENDBRANCH  26  33
ENDBRANCH  11  17
BRANCH  12  37
HETATM   37  O11 UNL     1      29.826   1.771   2.585  1.00  0.00    -0.372 OA
ATOM     38  H11 UNL     1      29.973   1.068   3.206  1.00  0.00     0.212 HD
ENDBRANCH  12  37
ENDBRANCH   8   9
ENDBRANCH   7   8
BRANCH   1  39
HETATM   39  N1  UNL     1      30.450   5.064  -2.180  1.00  0.00    -0.233 N 
ATOM     40  H12 UNL     1      30.609   5.891  -2.756  1.00  0.00     0.174 HD
ATOM     41  H11 UNL     1      30.260   4.265  -2.784  1.00  0.00     0.174 HD
ENDBRANCH   1  39
BRANCH   4  42
HETATM   42  C3  UNL     1      32.080   5.166   2.354  1.00  0.00     0.094 A 
HETATM   43  C4  UNL     1      32.171   4.112   3.229  1.00  0.00     0.119 A 
HETATM   44  N3  UNL     1      33.000   4.198   4.316  1.00  0.00    -0.279 N 
HETATM   45  C11 UNL     1      33.724   5.305   4.528  1.00  0.00     0.331 A 
HETATM   46  O6  UNL     1      34.487   5.392   5.522  1.00  0.00    -0.246 OA
HETATM   47  N4  UNL     1      33.659   6.359   3.687  1.00  0.00    -0.274 N 
HETATM   48  C12 UNL     1      32.836   6.284   2.601  1.00  0.00     0.264 A 
ATOM     49  H4  UNL     1      34.216   7.196   3.859  1.00  0.00     0.173 HD
HETATM   50  O7  UNL     1      32.749   7.245   1.796  1.00  0.00    -0.267 OA
BRANCH  44  51
HETATM   51  C5  UNL     1      33.075   3.082   5.217  1.00  0.00     0.264 C 
HETATM   52  O1  UNL     1      33.034   1.900   4.510  1.00  0.00    -0.353 OA
HETATM   53  C6  UNL     1      33.337   0.792   5.277  1.00  0.00     0.179 C 
HETATM   54  C8  UNL     1      32.662   0.698   6.576  1.00  0.00     0.180 C 
HETATM   55  C9  UNL     1      32.133   1.966   7.159  1.00  0.00     0.182 C 
HETATM   56  C10 UNL     1      31.876   3.048   6.152  1.00  0.00     0.198 C 
BRANCH  53  57
HETATM   57  C7  UNL     1      34.851   0.697   5.354  1.00  0.00     0.198 C 
BRANCH  57  58
HETATM   58  O2  UNL     1      35.330   0.930   6.638  1.00  0.00    -0.398 OA
ATOM     59  H2  UNL     1      35.056   0.260   7.253  1.00  0.00     0.209 HD
ENDBRANCH  57  58
ENDBRANCH  53  57
BRANCH  54  60
HETATM   60  O3  UNL     1      31.606  -0.234   6.566  1.00  0.00    -0.390 OA
ATOM     61  H3  UNL     1      30.760   0.179   6.433  1.00  0.00     0.210 HD
ENDBRANCH  54  60
BRANCH  55  62
HETATM   62  O4  UNL     1      33.028   2.502   8.111  1.00  0.00    -0.390 OA
ATOM     63  H4  UNL     1      33.807   1.964   8.191  1.00  0.00     0.210 HD
ENDBRANCH  55  62
BRANCH  56  64
HETATM   64  O5  UNL     1      30.750   2.690   5.391  1.00  0.00    -0.388 OA
ATOM     65  H5  UNL     1      30.037   2.512   5.994  1.00  0.00     0.210 HD
ENDBRANCH  56  64
ENDBRANCH  44  51
ENDBRANCH   4  42
TORSDOF 15
ENDMDL
MODEL 5
REMARK VINA RESULT: -6.303444090     10.545     14.670
REMARK  15 active torsions:
REMARK  status: ('A' for Active; 'I' for Inactive)
REMARK    1  A    between atoms: N1_1  and  C1_4 
REMARK    2  A    between atoms: C2_7  and  C3_8 
REMARK    3  A    between atoms: N3_10  and  C5_11 
REMARK    4  A    between atoms: C6_13  and  C7_14 
REMARK    5  A    between atoms: C7_14  and  O2_15 
REMARK    6  A    between atoms: C8_17  and  O3_18 
REMARK    7  A    between atoms: C9_20  and  O4_21 
REMARK    8  A    between atoms: C10_23  and  O5_24 
REMARK    9  A    between atoms: N6_34  and  C13_35 
REMARK   10  A    between atoms: C13_35  and  C14_36 
REMARK   11  A    between atoms: C15_38  and  N7_39 
REMARK   12  A    between atoms: C17_44  and  N9_45 
REMARK   13  A    between atoms: C18_51  and  C19_52 
REMARK   14  A    between atoms: C19_52  and  C20_53 
REMARK   15  A    between atoms: C22_59  and  O11_60 
ROOT
HETATM    1  C1  UNL     1      33.441   5.005   4.720  1.00  0.00     0.694 A 
HETATM    2  N2  UNL     1      34.412   4.424   5.443  1.00  0.00    -0.173 N 
ATOM      3  H2  UNL     1      34.275   3.742   6.190  1.00  0.00     0.186 HD
HETATM    4  C2  UNL     1      35.616   4.902   5.007  1.00  0.00     0.153 A 
HETATM    5  N5  UNL     1      35.300   5.762   4.027  1.00  0.00    -0.268 N 
ATOM      6  H5  UNL     1      35.989   6.292   3.493  1.00  0.00     0.189 HD
HETATM    7  N6  UNL     1      33.992   5.844   3.831  1.00  0.00    -0.119 N 
ENDROOT
BRANCH   7   8
HETATM    8  C13 UNL     1      33.331   6.713   2.838  1.00  0.00     0.210 C 
BRANCH   8   9
HETATM    9  C14 UNL     1      34.440   7.374   2.051  1.00  0.00     0.236 C 
HETATM   10  O8  UNL     1      34.969   8.467   2.638  1.00  0.00    -0.345 OA
HETATM   11  C15 UNL     1      34.593   9.715   2.242  1.00  0.00     0.300 C 
HETATM   12  C22 UNL     1      34.691   9.999   0.779  1.00  0.00     0.270 C 
HETATM   13  N14 UNL     1      34.608   8.774   0.015  1.00  0.00    -0.329 N 
HETATM   14  C23 UNL     1      34.107   7.622   0.651  1.00  0.00     0.250 C 
ATOM     15  H14 UNL     1      34.905   8.744  -0.960  1.00  0.00     0.165 HD
HETATM   16  O12 UNL     1      33.384   6.820   0.020  1.00  0.00    -0.271 OA
BRANCH  11  17
HETATM   17  N7  UNL     1      35.417  10.650   3.027  1.00  0.00    -0.097 N 
HETATM   18  C16 UNL     1      34.934  11.844   3.413  1.00  0.00     0.357 A 
HETATM   19  O9  UNL     1      33.760  12.134   3.083  1.00  0.00    -0.245 OA
HETATM   20  N8  UNL     1      35.664  12.718   4.129  1.00  0.00    -0.139 N 
HETATM   21  C17 UNL     1      36.913  12.412   4.481  1.00  0.00     0.716 A 
ATOM     22  H8  UNL     1      35.262  13.615   4.402  1.00  0.00     0.189 HD
HETATM   23  N10 UNL     1      37.423  11.237   4.115  1.00  0.00     0.092 N 
HETATM   24  N11 UNL     1      38.582  10.677   4.308  1.00  0.00    -0.252 N 
HETATM   25  C21 UNL     1      36.673  10.358   3.386  1.00  0.00     0.728 A 
HETATM   26  C18 UNL     1      38.623   9.456   3.733  1.00  0.00     0.121 A 
ATOM     27  H11 UNL     1      39.353  11.102   4.825  1.00  0.00     0.190 HD
HETATM   28  N13 UNL     1      37.432   9.270   3.164  1.00  0.00    -0.176 N 
ATOM     29  H13 UNL     1      37.143   8.440   2.646  1.00  0.00     0.185 HD
BRANCH  21  30
HETATM   30  N9  UNL     1      37.602  13.281   5.178  1.00  0.00    -0.232 N 
ATOM     31  H92 UNL     1      37.390  14.279   5.160  1.00  0.00     0.174 HD
ATOM     32  H91 UNL     1      38.373  12.946   5.756  1.00  0.00     0.174 HD
ENDBRANCH  21  30
BRANCH  26  33
HETATM   33  C19 UNL     1      39.801   8.573   3.782  1.00  0.00     0.177 C 
BRANCH  33  34
HETATM   34  C20 UNL     1      39.632   7.628   4.916  1.00  0.00     0.238 C 
HETATM   35  N12 UNL     1      38.541   7.840   5.799  1.00  0.00    -0.062 NA
HETATM   36  O10 UNL     1      40.443   6.666   5.077  1.00  0.00    -0.276 OA
ENDBRANCH  33  34
ENDBRANCH  26  33
ENDBRANCH  11  17
BRANCH  12  37
HETATM   37  O11 UNL     1      33.580  10.758   0.316  1.00  0.00    -0.372 OA
ATOM     38  H11 UNL     1      33.858  11.563  -0.105  1.00  0.00     0.212 HD
ENDBRANCH  12  37
ENDBRANCH   8   9
ENDBRANCH   7   8
BRANCH   1  39
HETATM   39  N1  UNL     1      32.168   4.808   4.829  1.00  0.00    -0.233 N 
ATOM     40  H12 UNL     1      31.729   3.888   4.776  1.00  0.00     0.174 HD
ATOM     41  H11 UNL     1      31.449   5.515   4.981  1.00  0.00     0.174 HD
ENDBRANCH   1  39
BRANCH   4  42
HETATM   42  C3  UNL     1      36.930   4.539   5.517  1.00  0.00     0.094 A 
HETATM   43  C4  UNL     1      37.238   4.646   6.851  1.00  0.00     0.119 A 
HETATM   44  N3  UNL     1      38.487   4.297   7.292  1.00  0.00    -0.279 N 
HETATM   45  C11 UNL     1      39.409   3.852   6.428  1.00  0.00     0.331 A 
HETATM   46  O6  UNL     1      40.557   3.530   6.823  1.00  0.00    -0.246 OA
HETATM   47  N4  UNL     1      39.139   3.735   5.110  1.00  0.00    -0.274 N 
HETATM   48  C12 UNL     1      37.898   4.080   4.660  1.00  0.00     0.264 A 
ATOM     49  H4  UNL     1      39.850   3.395   4.463  1.00  0.00     0.173 HD
HETATM   50  O7  UNL     1      37.610   3.985   3.441  1.00  0.00    -0.267 OA
BRANCH  44  51
HETATM   51  C5  UNL     1      38.784   4.418   8.692  1.00  0.00     0.264 C 
HETATM   52  O1  UNL     1      37.646   4.767   9.388  1.00  0.00    -0.353 OA
HETATM   53  C6  UNL     1      37.792   4.673  10.758  1.00  0.00     0.179 C 
HETATM   54  C8  UNL     1      39.007   5.271  11.324  1.00  0.00     0.180 C 
HETATM   55  C9  UNL     1      40.161   5.466  10.397  1.00  0.00     0.182 C 
HETATM   56  C10 UNL     1      39.785   5.535   8.947  1.00  0.00     0.198 C 
BRANCH  53  57
HETATM   57  C7  UNL     1      37.582   3.218  11.136  1.00  0.00     0.198 C 
BRANCH  57  58
HETATM   58  O2  UNL     1      38.738   2.629  11.636  1.00  0.00    -0.398 OA
ATOM     59  H2  UNL     1      38.550   1.918  12.238  1.00  0.00     0.209 HD
ENDBRANCH  57  58
ENDBRANCH  53  57
BRANCH  54  60
HETATM   60  O3  UNL     1      38.755   6.508  11.949  1.00  0.00    -0.390 OA
ATOM     61  H3  UNL     1      39.509   7.086  11.926  1.00  0.00     0.210 HD
ENDBRANCH  54  60
BRANCH  55  62
HETATM   62  O4  UNL     1      41.099   4.417  10.523  1.00  0.00    -0.390 OA
ATOM     63  H4  UNL     1      41.417   4.137   9.673  1.00  0.00     0.210 HD
ENDBRANCH  55  62
BRANCH  56  64
HETATM   64  O5  UNL     1      39.131   6.757   8.714  1.00  0.00    -0.388 OA
ATOM     65  H5  UNL     1      39.784   7.446   8.747  1.00  0.00     0.210 HD
ENDBRANCH  56  64
ENDBRANCH  44  51
ENDBRANCH   4  42
TORSDOF 15
ENDMDL
