MODEL 1
REMARK VINA RESULT: -7.139372583      0.000      0.000
REMARK  17 active torsions:
REMARK  status: ('A' for Active; 'I' for Inactive)
REMARK    1  A    between atoms: N1_1  and  C1_4 
REMARK    2  A    between atoms: N4_13  and  C5_14 
REMARK    3  A    between atoms: C6_16  and  C7_17 
REMARK    4  A    between atoms: C7_17  and  N5_18 
REMARK    5  A    between atoms: C7_17  and  C8_22 
REMARK    6  A    between atoms: C8_22  and  O4_24 
REMARK    7  A    between atoms: O4_24  and  C9_25 
REMARK    8  A    between atoms: C9_25  and  C10_26 
REMARK    9  A    between atoms: C12_29  and  O6_30 
REMARK   10  A    between atoms: C19_41  and  O10_42 
REMARK   11  A    between atoms: O10_42  and  C20_43 
REMARK   12  A    between atoms: C20_43  and  O11_44 
REMARK   13  A    between atoms: C21_46  and  O12_47 
REMARK   14  A    between atoms: C22_49  and  O13_50 
REMARK   15  A    between atoms: C23_52  and  O14_53 
REMARK   16  A    between atoms: C24_55  and  O15_56 
REMARK   17  A    between atoms: C25_58  and  O16_59 
ROOT
HETATM    1  C8  UNL     1      29.982   4.822   0.806  1.00  0.00     0.292 C 
HETATM    2  O3  UNL     1      29.316   5.496   0.001  1.00  0.00    -0.263 OA
ENDROOT
BRANCH   1   3
HETATM    3  C7  UNL     1      29.315   4.285   2.018  1.00  0.00     0.313 C 
BRANCH   3   4
HETATM    4  C6  UNL     1      28.140   3.385   1.687  1.00  0.00     0.196 C 
HETATM    5  O2  UNL     1      26.986   3.909   2.268  1.00  0.00    -0.353 OA
HETATM    6  C5  UNL     1      26.079   2.885   2.085  1.00  0.00     0.262 C 
HETATM    7  C25 UNL     1      26.799   1.602   2.440  1.00  0.00     0.198 C 
HETATM    8  C24 UNL     1      28.261   2.044   2.373  1.00  0.00     0.182 C 
BRANCH   6   9
HETATM    9  N4  UNL     1      24.908   3.110   2.893  1.00  0.00    -0.297 N 
HETATM   10  C4  UNL     1      23.636   3.048   2.492  1.00  0.00     0.188 A 
HETATM   11  N3  UNL     1      22.829   3.320   3.537  1.00  0.00    -0.345 N 
HETATM   12  C3  UNL     1      23.583   3.560   4.624  1.00  0.00     0.147 A 
ATOM     13  H3  UNL     1      21.810   3.341   3.509  1.00  0.00     0.167 HD
HETATM   14  C2  UNL     1      23.276   3.884   5.940  1.00  0.00     0.290 A 
HETATM   15  C26 UNL     1      24.888   3.424   4.200  1.00  0.00     0.159 A 
HETATM   16  N2  UNL     1      24.327   4.053   6.764  1.00  0.00    -0.154 N 
HETATM   17  O1  UNL     1      22.088   4.011   6.332  1.00  0.00    -0.265 OA
HETATM   18  C1  UNL     1      25.599   3.923   6.366  1.00  0.00     0.680 A 
ATOM     19  H2  UNL     1      24.146   4.292   7.739  1.00  0.00     0.187 HD
HETATM   20  N6  UNL     1      25.878   3.607   5.077  1.00  0.00    -0.174 N 
ATOM     21  H6  UNL     1      26.848   3.509   4.777  1.00  0.00     0.186 HD
BRANCH  18  22
HETATM   22  N1  UNL     1      26.596   4.086   7.160  1.00  0.00    -0.234 N 
ATOM     23  H12 UNL     1      26.422   4.594   8.028  1.00  0.00     0.174 HD
ATOM     24  H11 UNL     1      27.529   3.732   6.952  1.00  0.00     0.174 HD
ENDBRANCH  18  22
ENDBRANCH   6   9
BRANCH   7  25
HETATM   25  O16 UNL     1      26.476   1.151   3.707  1.00  0.00    -0.388 OA
ATOM     26  H16 UNL     1      26.870   0.309   3.902  1.00  0.00     0.210 HD
ENDBRANCH   7  25
BRANCH   8  27
HETATM   27  O15 UNL     1      28.711   2.153   3.678  1.00  0.00    -0.390 OA
ATOM     28  H15 UNL     1      28.466   1.407   4.211  1.00  0.00     0.210 HD
ENDBRANCH   8  27
ENDBRANCH   3   4
BRANCH   3  29
HETATM   29  N5  UNL     1      28.911   5.358   2.915  1.00  0.00    -0.063 N 
ATOM     30  H53 UNL     1      27.915   5.564   2.831  1.00  0.00     0.275 HD
ATOM     31  H52 UNL     1      28.927   5.060   3.890  1.00  0.00     0.275 HD
ATOM     32  H51 UNL     1      29.481   6.190   2.767  1.00  0.00     0.275 HD
ENDBRANCH   3  29
ENDBRANCH   1   3
BRANCH   1  33
HETATM   33  O4  UNL     1      31.322   4.600   0.535  1.00  0.00    -0.317 OA
BRANCH  33  34
HETATM   34  C9  UNL     1      32.317   4.734   1.578  1.00  0.00     0.212 C 
BRANCH  34  35
HETATM   35  C10 UNL     1      32.409   3.423   2.239  1.00  0.00     0.167 C 
HETATM   36  O5  UNL     1      33.109   2.495   1.471  1.00  0.00    -0.379 OA
HETATM   37  C11 UNL     1      33.531   1.484   2.328  1.00  0.00     0.210 C 
HETATM   38  C12 UNL     1      33.004   1.794   3.708  1.00  0.00     0.128 C 
HETATM   39  C13 UNL     1      33.994   1.555   4.809  1.00  0.00     0.209 C 
HETATM   40  C18 UNL     1      32.905   3.320   3.623  1.00  0.00     0.113 C 
HETATM   41  O7  UNL     1      33.331   0.855   5.827  1.00  0.00    -0.309 OA
HETATM   42  C21 UNL     1      34.611   2.828   5.180  1.00  0.00     0.143 C 
HETATM   43  C14 UNL     1      32.312   1.318   6.634  1.00  0.00     0.266 C 
HETATM   44  O8  UNL     1      31.640   0.404   7.177  1.00  0.00    -0.265 OA
HETATM   45  C15 UNL     1      31.982   2.739   6.886  1.00  0.00     0.124 C 
HETATM   46  C16 UNL     1      31.191   3.372   5.796  1.00  0.00     0.097 C 
HETATM   47  C23 UNL     1      33.230   3.443   7.276  1.00  0.00     0.164 C 
HETATM   48  C17 UNL     1      31.983   3.849   4.651  1.00  0.00     0.145 C 
HETATM   49  O9  UNL     1      31.835   5.047   4.504  1.00  0.00    -0.297 OA
HETATM   50  C22 UNL     1      34.401   3.492   6.446  1.00  0.00     0.187 C 
HETATM   51  C19 UNL     1      34.277   3.723   3.950  1.00  0.00     0.185 C 
BRANCH  38  52
HETATM   52  O6  UNL     1      31.797   1.181   3.869  1.00  0.00    -0.383 OA
ATOM     53  H6  UNL     1      31.126   1.707   3.449  1.00  0.00     0.210 HD
ENDBRANCH  38  52
BRANCH  47  54
HETATM   54  O14 UNL     1      33.548   2.900   8.554  1.00  0.00    -0.392 OA
ATOM     55  H14 UNL     1      34.359   3.332   8.792  1.00  0.00     0.210 HD
ENDBRANCH  47  54
BRANCH  50  56
HETATM   56  O13 UNL     1      34.739   4.868   6.238  1.00  0.00    -0.390 OA
ATOM     57  H13 UNL     1      35.484   5.046   6.800  1.00  0.00     0.210 HD
ENDBRANCH  50  56
BRANCH  42  58
HETATM   58  O12 UNL     1      36.017   2.632   5.013  1.00  0.00    -0.382 OA
ATOM     59  H12 UNL     1      36.345   2.406   5.876  1.00  0.00     0.211 HD
ENDBRANCH  42  58
BRANCH  51  60
HETATM   60  O10 UNL     1      35.240   3.574   2.981  1.00  0.00    -0.357 OA
BRANCH  60  61
HETATM   61  C20 UNL     1      35.826   4.796   2.658  1.00  0.00     0.335 C 
BRANCH  61  62
HETATM   62  O11 UNL     1      36.339   5.438   3.777  1.00  0.00    -0.377 OA
ATOM     63  H11 UNL     1      36.025   6.331   3.850  1.00  0.00     0.212 HD
ENDBRANCH  61  62
ENDBRANCH  60  61
ENDBRANCH  51  60
ENDBRANCH  34  35
ENDBRANCH  33  34
ENDBRANCH   1  33
TORSDOF 17
ENDMDL
MODEL 2
REMARK VINA RESULT: -6.965054358      0.709      1.695
REMARK  17 active torsions:
REMARK  status: ('A' for Active; 'I' for Inactive)
REMARK    1  A    between atoms: N1_1  and  C1_4 
REMARK    2  A    between atoms: N4_13  and  C5_14 
REMARK    3  A    between atoms: C6_16  and  C7_17 
REMARK    4  A    between atoms: C7_17  and  N5_18 
REMARK    5  A    between atoms: C7_17  and  C8_22 
REMARK    6  A    between atoms: C8_22  and  O4_24 
REMARK    7  A    between atoms: O4_24  and  C9_25 
REMARK    8  A    between atoms: C9_25  and  C10_26 
REMARK    9  A    between atoms: C12_29  and  O6_30 
REMARK   10  A    between atoms: C19_41  and  O10_42 
REMARK   11  A    between atoms: O10_42  and  C20_43 
REMARK   12  A    between atoms: C20_43  and  O11_44 
REMARK   13  A    between atoms: C21_46  and  O12_47 
REMARK   14  A    between atoms: C22_49  and  O13_50 
REMARK   15  A    between atoms: C23_52  and  O14_53 
REMARK   16  A    between atoms: C24_55  and  O15_56 
REMARK   17  A    between atoms: C25_58  and  O16_59 
ROOT
HETATM    1  C8  UNL     1      30.081   4.724   0.875  1.00  0.00     0.292 C 
HETATM    2  O3  UNL     1      29.419   5.305  -0.003  1.00  0.00    -0.263 OA
ENDROOT
BRANCH   1   3
HETATM    3  C7  UNL     1      29.451   4.462   2.194  1.00  0.00     0.313 C 
BRANCH   3   4
HETATM    4  C6  UNL     1      28.066   3.858   2.068  1.00  0.00     0.196 C 
HETATM    5  O2  UNL     1      27.239   4.406   3.049  1.00  0.00    -0.353 OA
HETATM    6  C5  UNL     1      26.117   3.607   2.961  1.00  0.00     0.262 C 
HETATM    7  C25 UNL     1      26.610   2.180   2.851  1.00  0.00     0.198 C 
HETATM    8  C24 UNL     1      28.066   2.392   2.435  1.00  0.00     0.182 C 
BRANCH   6   9
HETATM    9  N4  UNL     1      25.268   3.818   4.105  1.00  0.00    -0.297 N 
HETATM   10  C4  UNL     1      25.648   4.229   5.317  1.00  0.00     0.188 A 
HETATM   11  N3  UNL     1      24.566   4.306   6.117  1.00  0.00    -0.345 N 
HETATM   12  C3  UNL     1      23.476   3.942   5.420  1.00  0.00     0.147 A 
ATOM     13  H3  UNL     1      24.572   4.593   7.096  1.00  0.00     0.167 HD
HETATM   14  C2  UNL     1      22.129   3.841   5.747  1.00  0.00     0.290 A 
HETATM   15  C26 UNL     1      23.936   3.638   4.156  1.00  0.00     0.159 A 
HETATM   16  N2  UNL     1      21.313   3.432   4.757  1.00  0.00    -0.154 N 
HETATM   17  O1  UNL     1      21.704   4.115   6.898  1.00  0.00    -0.265 OA
HETATM   18  C1  UNL     1      21.747   3.135   3.525  1.00  0.00     0.680 A 
ATOM     19  H2  UNL     1      20.316   3.344   4.955  1.00  0.00     0.187 HD
HETATM   20  N6  UNL     1      23.065   3.239   3.226  1.00  0.00    -0.174 N 
ATOM     21  H6  UNL     1      23.393   3.012   2.287  1.00  0.00     0.186 HD
BRANCH  18  22
HETATM   22  N1  UNL     1      20.961   2.745   2.588  1.00  0.00    -0.234 N 
ATOM     23  H12 UNL     1      20.395   1.916   2.768  1.00  0.00     0.174 HD
ATOM     24  H11 UNL     1      20.888   3.229   1.692  1.00  0.00     0.174 HD
ENDBRANCH  18  22
ENDBRANCH   6   9
BRANCH   7  25
HETATM   25  O16 UNL     1      26.533   1.503   4.054  1.00  0.00    -0.388 OA
ATOM     26  H16 UNL     1      27.163   0.794   4.111  1.00  0.00     0.210 HD
ENDBRANCH   7  25
BRANCH   8  27
HETATM   27  O15 UNL     1      28.848   2.123   3.545  1.00  0.00    -0.390 OA
ATOM     28  H15 UNL     1      28.350   1.736   4.256  1.00  0.00     0.210 HD
ENDBRANCH   8  27
ENDBRANCH   3   4
BRANCH   3  29
HETATM   29  N5  UNL     1      29.422   5.665   3.011  1.00  0.00    -0.063 N 
ATOM     30  H53 UNL     1      28.848   5.539   3.845  1.00  0.00     0.275 HD
ATOM     31  H52 UNL     1      30.320   5.833   3.465  1.00  0.00     0.275 HD
ATOM     32  H51 UNL     1      29.120   6.470   2.464  1.00  0.00     0.275 HD
ENDBRANCH   3  29
ENDBRANCH   1   3
BRANCH   1  33
HETATM   33  O4  UNL     1      31.380   4.345   0.583  1.00  0.00    -0.317 OA
BRANCH  33  34
HETATM   34  C9  UNL     1      32.433   4.501   1.566  1.00  0.00     0.212 C 
BRANCH  34  35
HETATM   35  C10 UNL     1      32.512   3.228   2.298  1.00  0.00     0.167 C 
HETATM   36  O5  UNL     1      33.194   2.249   1.578  1.00  0.00    -0.379 OA
HETATM   37  C11 UNL     1      33.609   1.282   2.488  1.00  0.00     0.210 C 
HETATM   38  C12 UNL     1      33.098   1.677   3.852  1.00  0.00     0.128 C 
HETATM   39  C13 UNL     1      34.092   1.486   4.958  1.00  0.00     0.209 C 
HETATM   40  C18 UNL     1      33.018   3.197   3.682  1.00  0.00     0.113 C 
HETATM   41  O7  UNL     1      33.429   0.853   6.019  1.00  0.00    -0.309 OA
HETATM   42  C21 UNL     1      34.730   2.769   5.252  1.00  0.00     0.143 C 
HETATM   43  C14 UNL     1      32.423   1.374   6.806  1.00  0.00     0.266 C 
HETATM   44  O8  UNL     1      31.742   0.502   7.404  1.00  0.00    -0.265 OA
HETATM   45  C15 UNL     1      32.114   2.813   6.979  1.00  0.00     0.124 C 
HETATM   46  C16 UNL     1      31.322   3.394   5.861  1.00  0.00     0.097 C 
HETATM   47  C23 UNL     1      33.373   3.519   7.320  1.00  0.00     0.164 C 
HETATM   48  C17 UNL     1      32.111   3.795   4.686  1.00  0.00     0.145 C 
HETATM   49  O9  UNL     1      31.977   4.985   4.473  1.00  0.00    -0.297 OA
HETATM   50  C22 UNL     1      34.538   3.506   6.480  1.00  0.00     0.187 C 
HETATM   51  C19 UNL     1      34.398   3.598   3.976  1.00  0.00     0.185 C 
BRANCH  38  52
HETATM   52  O6  UNL     1      31.883   1.090   4.056  1.00  0.00    -0.383 OA
ATOM     53  H6  UNL     1      31.343   1.673   4.577  1.00  0.00     0.210 HD
ENDBRANCH  38  52
BRANCH  47  54
HETATM   54  O14 UNL     1      33.694   3.045   8.624  1.00  0.00    -0.392 OA
ATOM     55  H14 UNL     1      34.582   2.718   8.539  1.00  0.00     0.210 HD
ENDBRANCH  47  54
BRANCH  50  56
HETATM   56  O13 UNL     1      34.893   4.863   6.193  1.00  0.00    -0.390 OA
ATOM     57  H13 UNL     1      35.638   5.066   6.747  1.00  0.00     0.210 HD
ENDBRANCH  50  56
BRANCH  42  58
HETATM   58  O12 UNL     1      36.132   2.545   5.086  1.00  0.00    -0.382 OA
ATOM     59  H12 UNL     1      36.553   3.073   5.754  1.00  0.00     0.211 HD
ENDBRANCH  42  58
BRANCH  51  60
HETATM   60  O10 UNL     1      35.350   3.382   3.010  1.00  0.00    -0.357 OA
BRANCH  60  61
HETATM   61  C20 UNL     1      35.950   4.576   2.614  1.00  0.00     0.335 C 
BRANCH  61  62
HETATM   62  O11 UNL     1      36.481   5.272   3.691  1.00  0.00    -0.377 OA
ATOM     63  H11 UNL     1      36.597   6.195   3.495  1.00  0.00     0.212 HD
ENDBRANCH  61  62
ENDBRANCH  60  61
ENDBRANCH  51  60
ENDBRANCH  34  35
ENDBRANCH  33  34
ENDBRANCH   1  33
TORSDOF 17
ENDMDL
MODEL 3
REMARK VINA RESULT: -6.376137552      1.602      2.010
REMARK  17 active torsions:
REMARK  status: ('A' for Active; 'I' for Inactive)
REMARK    1  A    between atoms: N1_1  and  C1_4 
REMARK    2  A    between atoms: N4_13  and  C5_14 
REMARK    3  A    between atoms: C6_16  and  C7_17 
REMARK    4  A    between atoms: C7_17  and  N5_18 
REMARK    5  A    between atoms: C7_17  and  C8_22 
REMARK    6  A    between atoms: C8_22  and  O4_24 
REMARK    7  A    between atoms: O4_24  and  C9_25 
REMARK    8  A    between atoms: C9_25  and  C10_26 
REMARK    9  A    between atoms: C12_29  and  O6_30 
REMARK   10  A    between atoms: C19_41  and  O10_42 
REMARK   11  A    between atoms: O10_42  and  C20_43 
REMARK   12  A    between atoms: C20_43  and  O11_44 
REMARK   13  A    between atoms: C21_46  and  O12_47 
REMARK   14  A    between atoms: C22_49  and  O13_50 
REMARK   15  A    between atoms: C23_52  and  O14_53 
REMARK   16  A    between atoms: C24_55  and  O15_56 
REMARK   17  A    between atoms: C25_58  and  O16_59 
ROOT
HETATM    1  C8  UNL     1      27.967   4.589   0.560  1.00  0.00     0.292 C 
HETATM    2  O3  UNL     1      27.968   5.809   0.318  1.00  0.00    -0.263 OA
ENDROOT
BRANCH   1   3
HETATM    3  C7  UNL     1      27.556   3.646  -0.510  1.00  0.00     0.313 C 
BRANCH   3   4
HETATM    4  C6  UNL     1      26.255   2.935  -0.191  1.00  0.00     0.196 C 
HETATM    5  O2  UNL     1      25.637   3.576   0.883  1.00  0.00    -0.353 OA
HETATM    6  C5  UNL     1      24.620   2.697   1.198  1.00  0.00     0.262 C 
HETATM    7  C25 UNL     1      25.223   1.309   1.164  1.00  0.00     0.198 C 
HETATM    8  C24 UNL     1      26.502   1.551   0.364  1.00  0.00     0.182 C 
BRANCH   6   9
HETATM    9  N4  UNL     1      24.057   3.030   2.481  1.00  0.00    -0.297 N 
HETATM   10  C4  UNL     1      22.763   3.046   2.807  1.00  0.00     0.188 A 
HETATM   11  N3  UNL     1      22.636   3.408   4.100  1.00  0.00    -0.345 N 
HETATM   12  C3  UNL     1      23.857   3.628   4.617  1.00  0.00     0.147 A 
ATOM     13  H3  UNL     1      21.755   3.500   4.605  1.00  0.00     0.167 HD
HETATM   14  C2  UNL     1      24.300   4.014   5.876  1.00  0.00     0.290 A 
HETATM   15  C26 UNL     1      24.740   3.386   3.584  1.00  0.00     0.159 A 
HETATM   16  N2  UNL     1      25.634   4.134   6.019  1.00  0.00    -0.154 N 
HETATM   17  O1  UNL     1      23.501   4.237   6.820  1.00  0.00    -0.265 OA
HETATM   18  C1  UNL     1      26.501   3.901   5.025  1.00  0.00     0.680 A 
ATOM     19  H2  UNL     1      26.001   4.416   6.927  1.00  0.00     0.187 HD
HETATM   20  N6  UNL     1      26.049   3.526   3.803  1.00  0.00    -0.174 N 
ATOM     21  H6  UNL     1      26.712   3.349   3.048  1.00  0.00     0.186 HD
BRANCH  18  22
HETATM   22  N1  UNL     1      27.772   4.018   5.171  1.00  0.00    -0.234 N 
ATOM     23  H12 UNL     1      28.124   4.925   5.478  1.00  0.00     0.174 HD
ATOM     24  H11 UNL     1      28.420   3.250   4.994  1.00  0.00     0.174 HD
ENDBRANCH  18  22
ENDBRANCH   6   9
BRANCH   7  25
HETATM   25  O16 UNL     1      25.513   0.831   2.429  1.00  0.00    -0.388 OA
ATOM     26  H16 UNL     1      25.438  -0.115   2.484  1.00  0.00     0.210 HD
ENDBRANCH   7  25
BRANCH   8  27
HETATM   27  O15 UNL     1      27.555   1.520   1.263  1.00  0.00    -0.390 OA
ATOM     28  H15 UNL     1      27.474   2.180   1.941  1.00  0.00     0.210 HD
ENDBRANCH   8  27
ENDBRANCH   3   4
BRANCH   3  29
HETATM   29  N5  UNL     1      28.612   2.690  -0.804  1.00  0.00    -0.063 N 
ATOM     30  H53 UNL     1      29.491   2.952  -0.357  1.00  0.00     0.275 HD
ATOM     31  H52 UNL     1      28.457   1.800  -0.331  1.00  0.00     0.275 HD
ATOM     32  H51 UNL     1      28.724   2.568  -1.810  1.00  0.00     0.275 HD
ENDBRANCH   3  29
ENDBRANCH   1   3
BRANCH   1  33
HETATM   33  O4  UNL     1      28.350   4.163   1.821  1.00  0.00    -0.317 OA
BRANCH  33  34
HETATM   34  C9  UNL     1      29.663   4.482   2.341  1.00  0.00     0.212 C 
BRANCH  34  35
HETATM   35  C10 UNL     1      30.364   3.202   2.519  1.00  0.00     0.167 C 
HETATM   36  O5  UNL     1      30.700   2.613   1.301  1.00  0.00    -0.379 OA
HETATM   37  C11 UNL     1      31.716   1.697   1.553  1.00  0.00     0.210 C 
HETATM   38  C12 UNL     1      31.982   1.692   3.039  1.00  0.00     0.128 C 
HETATM   39  C13 UNL     1      33.436   1.655   3.401  1.00  0.00     0.209 C 
HETATM   40  C18 UNL     1      31.546   3.116   3.396  1.00  0.00     0.113 C 
HETATM   41  O7  UNL     1      33.597   0.688   4.404  1.00  0.00    -0.309 OA
HETATM   42  C21 UNL     1      33.883   3.011   3.716  1.00  0.00     0.143 C 
HETATM   43  C14 UNL     1      33.118   0.736   5.696  1.00  0.00     0.266 C 
HETATM   44  O8  UNL     1      33.054  -0.388   6.256  1.00  0.00    -0.265 OA
HETATM   45  C15 UNL     1      32.700   1.957   6.422  1.00  0.00     0.124 C 
HETATM   46  C16 UNL     1      31.333   2.426   6.068  1.00  0.00     0.097 C 
HETATM   47  C23 UNL     1      33.784   2.964   6.299  1.00  0.00     0.164 C 
HETATM   48  C17 UNL     1      31.252   3.233   4.841  1.00  0.00     0.145 C 
HETATM   49  O9  UNL     1      30.809   4.338   5.090  1.00  0.00    -0.297 OA
HETATM   50  C22 UNL     1      34.271   3.449   5.038  1.00  0.00     0.187 C 
HETATM   51  C19 UNL     1      32.757   3.881   3.083  1.00  0.00     0.185 C 
BRANCH  38  52
HETATM   52  O6  UNL     1      31.213   0.728   3.622  1.00  0.00    -0.383 OA
ATOM     53  H6  UNL     1      31.185   0.882   4.559  1.00  0.00     0.210 HD
ENDBRANCH  38  52
BRANCH  47  54
HETATM   54  O14 UNL     1      34.852   2.418   7.068  1.00  0.00    -0.392 OA
ATOM     55  H14 UNL     1      35.549   2.289   6.435  1.00  0.00     0.210 HD
ENDBRANCH  47  54
BRANCH  50  56
HETATM   56  O13 UNL     1      34.153   4.877   5.038  1.00  0.00    -0.390 OA
ATOM     57  H13 UNL     1      34.478   5.170   5.882  1.00  0.00     0.210 HD
ENDBRANCH  50  56
BRANCH  42  58
HETATM   58  O12 UNL     1      34.973   3.270   2.829  1.00  0.00    -0.382 OA
ATOM     59  H12 UNL     1      35.483   2.469   2.814  1.00  0.00     0.211 HD
ENDBRANCH  42  58
BRANCH  51  60
HETATM   60  O10 UNL     1      33.038   4.131   1.762  1.00  0.00    -0.357 OA
BRANCH  60  61
HETATM   61  C20 UNL     1      33.044   5.498   1.494  1.00  0.00     0.335 C 
BRANCH  61  62
HETATM   62  O11 UNL     1      32.895   6.253   2.650  1.00  0.00    -0.377 OA
ATOM     63  H11 UNL     1      32.288   6.974   2.527  1.00  0.00     0.212 HD
ENDBRANCH  61  62
ENDBRANCH  60  61
ENDBRANCH  51  60
ENDBRANCH  34  35
ENDBRANCH  33  34
ENDBRANCH   1  33
TORSDOF 17
ENDMDL
MODEL 4
REMARK VINA RESULT: -6.342562684      1.750      2.178
REMARK  17 active torsions:
REMARK  status: ('A' for Active; 'I' for Inactive)
REMARK    1  A    between atoms: N1_1  and  C1_4 
REMARK    2  A    between atoms: N4_13  and  C5_14 
REMARK    3  A    between atoms: C6_16  and  C7_17 
REMARK    4  A    between atoms: C7_17  and  N5_18 
REMARK    5  A    between atoms: C7_17  and  C8_22 
REMARK    6  A    between atoms: C8_22  and  O4_24 
REMARK    7  A    between atoms: O4_24  and  C9_25 
REMARK    8  A    between atoms: C9_25  and  C10_26 
REMARK    9  A    between atoms: C12_29  and  O6_30 
REMARK   10  A    between atoms: C19_41  and  O10_42 
REMARK   11  A    between atoms: O10_42  and  C20_43 
REMARK   12  A    between atoms: C20_43  and  O11_44 
REMARK   13  A    between atoms: C21_46  and  O12_47 
REMARK   14  A    between atoms: C22_49  and  O13_50 
REMARK   15  A    between atoms: C23_52  and  O14_53 
REMARK   16  A    between atoms: C24_55  and  O15_56 
REMARK   17  A    between atoms: C25_58  and  O16_59 
ROOT
HETATM    1  C8  UNL     1      30.140   4.657   0.136  1.00  0.00     0.292 C 
HETATM    2  O3  UNL     1      30.123   5.174  -0.996  1.00  0.00    -0.263 OA
ENDROOT
BRANCH   1   3
HETATM    3  C7  UNL     1      29.038   4.965   1.082  1.00  0.00     0.313 C 
BRANCH   3   4
HETATM    4  C6  UNL     1      28.667   3.778   1.949  1.00  0.00     0.196 C 
HETATM    5  O2  UNL     1      27.326   3.459   1.733  1.00  0.00    -0.353 OA
HETATM    6  C5  UNL     1      27.082   2.543   2.738  1.00  0.00     0.262 C 
HETATM    7  C25 UNL     1      27.715   3.101   3.994  1.00  0.00     0.198 C 
HETATM    8  C24 UNL     1      28.675   4.140   3.416  1.00  0.00     0.182 C 
BRANCH   6   9
HETATM    9  N4  UNL     1      25.664   2.326   2.875  1.00  0.00    -0.297 N 
HETATM   10  C4  UNL     1      24.693   3.208   2.632  1.00  0.00     0.188 A 
HETATM   11  N3  UNL     1      23.500   2.630   2.876  1.00  0.00    -0.345 N 
HETATM   12  C3  UNL     1      23.698   1.364   3.280  1.00  0.00     0.147 A 
ATOM     13  H3  UNL     1      22.591   3.082   2.771  1.00  0.00     0.167 HD
HETATM   14  C2  UNL     1      22.836   0.341   3.655  1.00  0.00     0.290 A 
HETATM   15  C26 UNL     1      25.066   1.189   3.274  1.00  0.00     0.159 A 
HETATM   16  N2  UNL     1      23.420  -0.820   4.008  1.00  0.00    -0.154 N 
HETATM   17  O1  UNL     1      21.588   0.495   3.664  1.00  0.00    -0.265 OA
HETATM   18  C1  UNL     1      24.747  -1.003   4.005  1.00  0.00     0.680 A 
ATOM     19  H2  UNL     1      22.823  -1.597   4.290  1.00  0.00     0.187 HD
HETATM   20  N6  UNL     1      25.571   0.008   3.637  1.00  0.00    -0.174 N 
ATOM     21  H6  UNL     1      26.581  -0.135   3.637  1.00  0.00     0.186 HD
BRANCH  18  22
HETATM   22  N1  UNL     1      25.295  -2.115   4.343  1.00  0.00    -0.234 N 
ATOM     23  H12 UNL     1      24.673  -2.881   4.603  1.00  0.00     0.174 HD
ATOM     24  H11 UNL     1      26.306  -2.248   4.358  1.00  0.00     0.174 HD
ENDBRANCH  18  22
ENDBRANCH   6   9
BRANCH   7  25
HETATM   25  O16 UNL     1      26.788   3.695   4.830  1.00  0.00    -0.388 OA
ATOM     26  H16 UNL     1      25.899   3.602   4.509  1.00  0.00     0.210 HD
ENDBRANCH   7  25
BRANCH   8  27
HETATM   27  O15 UNL     1      28.119   5.385   3.658  1.00  0.00    -0.390 OA
ATOM     28  H15 UNL     1      27.285   5.330   4.110  1.00  0.00     0.210 HD
ENDBRANCH   8  27
ENDBRANCH   3   4
BRANCH   3  29
HETATM   29  N5  UNL     1      27.873   5.483   0.382  1.00  0.00    -0.063 N 
ATOM     30  H53 UNL     1      27.280   6.040   0.998  1.00  0.00     0.275 HD
ATOM     31  H52 UNL     1      28.128   6.211  -0.286  1.00  0.00     0.275 HD
ATOM     32  H51 UNL     1      27.350   4.730  -0.064  1.00  0.00     0.275 HD
ENDBRANCH   3  29
ENDBRANCH   1   3
BRANCH   1  33
HETATM   33  O4  UNL     1      31.189   3.816   0.465  1.00  0.00    -0.317 OA
BRANCH  33  34
HETATM   34  C9  UNL     1      32.087   4.145   1.552  1.00  0.00     0.212 C 
BRANCH  34  35
HETATM   35  C10 UNL     1      32.246   2.919   2.349  1.00  0.00     0.167 C 
HETATM   36  O5  UNL     1      32.926   1.923   1.650  1.00  0.00    -0.379 OA
HETATM   37  C11 UNL     1      33.417   1.023   2.590  1.00  0.00     0.210 C 
HETATM   38  C12 UNL     1      32.958   1.477   3.955  1.00  0.00     0.128 C 
HETATM   39  C13 UNL     1      34.011   1.381   5.018  1.00  0.00     0.209 C 
HETATM   40  C18 UNL     1      32.818   2.982   3.705  1.00  0.00     0.113 C 
HETATM   41  O7  UNL     1      33.421   0.788   6.144  1.00  0.00    -0.309 OA
HETATM   42  C21 UNL     1      34.616   2.698   5.209  1.00  0.00     0.143 C 
HETATM   43  C14 UNL     1      32.436   1.321   6.950  1.00  0.00     0.266 C 
HETATM   44  O8  UNL     1      31.816   0.462   7.628  1.00  0.00    -0.265 OA
HETATM   45  C15 UNL     1      32.085   2.755   7.059  1.00  0.00     0.124 C 
HETATM   46  C16 UNL     1      31.222   3.247   5.952  1.00  0.00     0.097 C 
HETATM   47  C23 UNL     1      33.335   3.521   7.298  1.00  0.00     0.164 C 
HETATM   48  C17 UNL     1      31.939   3.606   4.718  1.00  0.00     0.145 C 
HETATM   49  O9  UNL     1      31.754   4.777   4.447  1.00  0.00    -0.297 OA
HETATM   50  C22 UNL     1      34.458   3.497   6.404  1.00  0.00     0.187 C 
HETATM   51  C19 UNL     1      34.195   3.443   3.908  1.00  0.00     0.185 C 
BRANCH  38  52
HETATM   52  O6  UNL     1      31.776   0.864   4.250  1.00  0.00    -0.383 OA
ATOM     53  H6  UNL     1      31.753   0.673   5.180  1.00  0.00     0.210 HD
ENDBRANCH  38  52
BRANCH  47  54
HETATM   54  O14 UNL     1      33.734   3.131   8.608  1.00  0.00    -0.392 OA
ATOM     55  H14 UNL     1      34.600   2.762   8.486  1.00  0.00     0.210 HD
ENDBRANCH  47  54
BRANCH  50  56
HETATM   56  O13 UNL     1      34.751   4.847   6.025  1.00  0.00    -0.390 OA
ATOM     57  H13 UNL     1      35.177   5.246   6.774  1.00  0.00     0.210 HD
ENDBRANCH  50  56
BRANCH  42  58
HETATM   58  O12 UNL     1      36.016   2.511   4.987  1.00  0.00    -0.382 OA
ATOM     59  H12 UNL     1      36.320   3.320   4.593  1.00  0.00     0.211 HD
ENDBRANCH  42  58
BRANCH  51  60
HETATM   60  O10 UNL     1      35.107   3.204   2.909  1.00  0.00    -0.357 OA
BRANCH  60  61
HETATM   61  C20 UNL     1      35.641   4.392   2.415  1.00  0.00     0.335 C 
BRANCH  61  62
HETATM   62  O11 UNL     1      36.107   5.214   3.432  1.00  0.00    -0.377 OA
ATOM     63  H11 UNL     1      36.868   5.715   3.164  1.00  0.00     0.212 HD
ENDBRANCH  61  62
ENDBRANCH  60  61
ENDBRANCH  51  60
ENDBRANCH  34  35
ENDBRANCH  33  34
ENDBRANCH   1  33
TORSDOF 17
ENDMDL
MODEL 5
REMARK VINA RESULT: -6.291659067      1.811      2.761
REMARK  17 active torsions:
REMARK  status: ('A' for Active; 'I' for Inactive)
REMARK    1  A    between atoms: N1_1  and  C1_4 
REMARK    2  A    between atoms: N4_13  and  C5_14 
REMARK    3  A    between atoms: C6_16  and  C7_17 
REMARK    4  A    between atoms: C7_17  and  N5_18 
REMARK    5  A    between atoms: C7_17  and  C8_22 
REMARK    6  A    between atoms: C8_22  and  O4_24 
REMARK    7  A    between atoms: O4_24  and  C9_25 
REMARK    8  A    between atoms: C9_25  and  C10_26 
REMARK    9  A    between atoms: C12_29  and  O6_30 
REMARK   10  A    between atoms: C19_41  and  O10_42 
REMARK   11  A    between atoms: O10_42  and  C20_43 
REMARK   12  A    between atoms: C20_43  and  O11_44 
REMARK   13  A    between atoms: C21_46  and  O12_47 
REMARK   14  A    between atoms: C22_49  and  O13_50 
REMARK   15  A    between atoms: C23_52  and  O14_53 
REMARK   16  A    between atoms: C24_55  and  O15_56 
REMARK   17  A    between atoms: C25_58  and  O16_59 
ROOT
HETATM    1  C8  UNL     1      27.083   2.530   0.526  1.00  0.00     0.292 C 
HETATM    2  O3  UNL     1      26.764   3.488  -0.200  1.00  0.00    -0.263 OA
ENDROOT
BRANCH   1   3
HETATM    3  C7  UNL     1      26.839   1.149   0.038  1.00  0.00     0.313 C 
BRANCH   3   4
HETATM    4  C6  UNL     1      25.702   0.464   0.773  1.00  0.00     0.196 C 
HETATM    5  O2  UNL     1      25.028   1.407   1.549  1.00  0.00    -0.353 OA
HETATM    6  C5  UNL     1      24.201   0.611   2.316  1.00  0.00     0.262 C 
HETATM    7  C25 UNL     1      25.042  -0.554   2.791  1.00  0.00     0.198 C 
HETATM    8  C24 UNL     1      26.219  -0.497   1.819  1.00  0.00     0.182 C 
BRANCH   6   9
HETATM    9  N4  UNL     1      23.645   1.378   3.402  1.00  0.00    -0.297 N 
HETATM   10  C4  UNL     1      22.394   1.320   3.863  1.00  0.00     0.188 A 
HETATM   11  N3  UNL     1      22.259   2.189   4.885  1.00  0.00    -0.345 N 
HETATM   12  C3  UNL     1      23.430   2.815   5.089  1.00  0.00     0.147 A 
ATOM     13  H3  UNL     1      21.404   2.346   5.419  1.00  0.00     0.167 HD
HETATM   14  C2  UNL     1      23.844   3.785   5.993  1.00  0.00     0.290 A 
HETATM   15  C26 UNL     1      24.291   2.293   4.146  1.00  0.00     0.159 A 
HETATM   16  N2  UNL     1      25.128   4.177   5.889  1.00  0.00    -0.154 N 
HETATM   17  O1  UNL     1      23.063   4.265   6.853  1.00  0.00    -0.265 OA
HETATM   18  C1  UNL     1      25.975   3.678   4.978  1.00  0.00     0.680 A 
ATOM     19  H2  UNL     1      25.472   4.888   6.533  1.00  0.00     0.187 HD
HETATM   20  N6  UNL     1      25.552   2.732   4.104  1.00  0.00    -0.174 N 
ATOM     21  H6  UNL     1      26.199   2.354   3.412  1.00  0.00     0.186 HD
BRANCH  18  22
HETATM   22  N1  UNL     1      27.198   4.058   4.886  1.00  0.00    -0.234 N 
ATOM     23  H12 UNL     1      27.410   4.786   4.204  1.00  0.00     0.174 HD
ATOM     24  H11 UNL     1      27.942   3.663   5.462  1.00  0.00     0.174 HD
ENDBRANCH  18  22
ENDBRANCH   6   9
BRANCH   7  25
HETATM   25  O16 UNL     1      25.469  -0.396   4.097  1.00  0.00    -0.388 OA
ATOM     26  H16 UNL     1      26.066   0.337   4.195  1.00  0.00     0.210 HD
ENDBRANCH   7  25
BRANCH   8  27
HETATM   27  O15 UNL     1      27.299   0.013   2.520  1.00  0.00    -0.390 OA
ATOM     28  H15 UNL     1      27.609  -0.581   3.193  1.00  0.00     0.210 HD
ENDBRANCH   8  27
ENDBRANCH   3   4
BRANCH   3  29
HETATM   29  N5  UNL     1      28.052   0.348   0.095  1.00  0.00    -0.063 N 
ATOM     30  H53 UNL     1      28.042  -0.401  -0.598  1.00  0.00     0.275 HD
ATOM     31  H52 UNL     1      28.861   0.866  -0.249  1.00  0.00     0.275 HD
ATOM     32  H51 UNL     1      28.208  -0.011   1.036  1.00  0.00     0.275 HD
ENDBRANCH   3  29
ENDBRANCH   1   3
BRANCH   1  33
HETATM   33  O4  UNL     1      27.652   2.792   1.760  1.00  0.00    -0.317 OA
BRANCH  33  34
HETATM   34  C9  UNL     1      28.870   3.570   1.861  1.00  0.00     0.212 C 
BRANCH  34  35
HETATM   35  C10 UNL     1      29.913   2.651   2.343  1.00  0.00     0.167 C 
HETATM   36  O5  UNL     1      30.363   1.795   1.341  1.00  0.00    -0.379 OA
HETATM   37  C11 UNL     1      31.606   1.313   1.739  1.00  0.00     0.210 C 
HETATM   38  C12 UNL     1      31.909   1.876   3.106  1.00  0.00     0.128 C 
HETATM   39  C13 UNL     1      33.324   2.341   3.278  1.00  0.00     0.209 C 
HETATM   40  C18 UNL     1      31.096   3.174   3.049  1.00  0.00     0.113 C 
HETATM   41  O7  UNL     1      33.785   1.844   4.505  1.00  0.00    -0.309 OA
HETATM   42  C21 UNL     1      33.375   3.790   3.093  1.00  0.00     0.143 C 
HETATM   43  C14 UNL     1      33.354   2.198   5.766  1.00  0.00     0.266 C 
HETATM   44  O8  UNL     1      33.630   1.351   6.654  1.00  0.00    -0.265 OA
HETATM   45  C15 UNL     1      32.628   3.440   6.118  1.00  0.00     0.124 C 
HETATM   46  C16 UNL     1      31.173   3.392   5.808  1.00  0.00     0.097 C 
HETATM   47  C23 UNL     1      33.375   4.590   5.551  1.00  0.00     0.164 C 
HETATM   48  C17 UNL     1      30.827   3.690   4.409  1.00  0.00     0.145 C 
HETATM   49  O9  UNL     1      30.095   4.659   4.351  1.00  0.00    -0.297 OA
HETATM   50  C22 UNL     1      33.663   4.732   4.152  1.00  0.00     0.187 C 
HETATM   51  C19 UNL     1      32.029   4.074   2.364  1.00  0.00     0.185 C 
BRANCH  38  52
HETATM   52  O6  UNL     1      31.466   1.001   4.053  1.00  0.00    -0.383 OA
ATOM     53  H6  UNL     1      31.980   1.117   4.843  1.00  0.00     0.210 HD
ENDBRANCH  38  52
BRANCH  47  54
HETATM   54  O14 UNL     1      34.578   4.630   6.314  1.00  0.00    -0.392 OA
ATOM     55  H14 UNL     1      34.590   3.796   6.769  1.00  0.00     0.210 HD
ENDBRANCH  47  54
BRANCH  50  56
HETATM   56  O13 UNL     1      33.144   5.994   3.718  1.00  0.00    -0.390 OA
ATOM     57  H13 UNL     1      32.968   6.494   4.507  1.00  0.00     0.210 HD
ENDBRANCH  50  56
BRANCH  42  58
HETATM   58  O12 UNL     1      34.318   4.008   2.041  1.00  0.00    -0.382 OA
ATOM     59  H12 UNL     1      34.446   3.159   1.635  1.00  0.00     0.211 HD
ENDBRANCH  42  58
BRANCH  51  60
HETATM   60  O10 UNL     1      32.185   3.929   1.007  1.00  0.00    -0.357 OA
BRANCH  60  61
HETATM   61  C20 UNL     1      31.858   5.102   0.330  1.00  0.00     0.335 C 
BRANCH  61  62
HETATM   62  O11 UNL     1      32.544   6.200   0.833  1.00  0.00    -0.377 OA
ATOM     63  H11 UNL     1      33.146   6.564   0.195  1.00  0.00     0.212 HD
ENDBRANCH  61  62
ENDBRANCH  60  61
ENDBRANCH  51  60
ENDBRANCH  34  35
ENDBRANCH  33  34
ENDBRANCH   1  33
TORSDOF 17
ENDMDL
