MODEL 1
REMARK VINA RESULT: -7.697060424      0.000      0.000
REMARK  2 active torsions:
REMARK  status: ('A' for Active; 'I' for Inactive)
REMARK    1  A    between atoms: C3_3  and  C4_4 
REMARK    2  A    between atoms: C4_4  and  N1_7 
REMARK       I    between atoms: N1_7  and  C7_9 
REMARK       I    between atoms: C7_9  and  N2_11 
ROOT
HETATM    1  C1  UNL     1       1.242  65.733  69.562  1.00  0.00     0.112 C 
HETATM    2  C2  UNL     1       0.712  66.543  68.463  1.00  0.00    -0.108 C 
HETATM    3  C3  UNL     1       0.277  67.235  67.552  1.00  0.00    -0.076 C 
ENDROOT
BRANCH   3   4
HETATM    4  C4  UNL     1      -0.236  68.082  66.476  1.00  0.00     0.091 C 
HETATM    5  C5  UNL     1      -1.689  67.727  66.167  1.00  0.00     0.053 C 
HETATM    6  C6  UNL     1      -0.238  69.513  66.992  1.00  0.00     0.053 C 
BRANCH   4   7
HETATM    7  N1  UNL     1       0.597  67.979  65.318  1.00  0.00    -0.324 N 
HETATM    8  C7  UNL     1       2.020  68.016  65.365  1.00  0.00     0.320 C 
HETATM    9  O1  UNL     1       2.636  68.147  66.471  1.00  0.00    -0.247 OA
HETATM   10  N2  UNL     1       2.817  67.911  64.198  1.00  0.00    -0.328 N 
HETATM   11  C8  UNL     1       2.031  67.766  62.992  1.00  0.00     0.158 C 
HETATM   12  C12 UNL     1       4.246  67.966  64.404  1.00  0.00     0.092 C 
HETATM   13  C9  UNL     1       2.835  67.754  61.737  1.00  0.00     0.292 C 
HETATM   14  N3  UNL     1       4.207  67.424  61.879  1.00  0.00     0.090 N 
HETATM   15  C10 UNL     1       5.061  68.540  62.188  1.00  0.00     0.274 C 
HETATM   16  C14 UNL     1       4.471  66.256  62.660  1.00  0.00     0.274 C 
HETATM   17  C11 UNL     1       4.856  69.058  63.590  1.00  0.00     0.055 C 
HETATM   18  C13 UNL     1       4.918  66.656  64.050  1.00  0.00     0.055 C 
ATOM     19  H1  UNL     1       0.148  67.874  64.409  1.00  0.00     0.166 HD
ENDBRANCH   4   7
ENDBRANCH   3   4
TORSDOF 2
ENDMDL
MODEL 2
REMARK VINA RESULT: -7.434261604      1.476      5.734
REMARK  2 active torsions:
REMARK  status: ('A' for Active; 'I' for Inactive)
REMARK    1  A    between atoms: C3_3  and  C4_4 
REMARK    2  A    between atoms: C4_4  and  N1_7 
REMARK       I    between atoms: N1_7  and  C7_9 
REMARK       I    between atoms: C7_9  and  N2_11 
ROOT
HETATM    1  C1  UNL     1       4.796  63.125  63.482  1.00  0.00     0.112 C 
HETATM    2  C2  UNL     1       4.525  64.551  63.284  1.00  0.00    -0.108 C 
HETATM    3  C3  UNL     1       4.281  65.738  63.122  1.00  0.00    -0.076 C 
ENDROOT
BRANCH   3   4
HETATM    4  C4  UNL     1       3.964  67.152  62.927  1.00  0.00     0.091 C 
HETATM    5  C5  UNL     1       5.066  68.031  63.516  1.00  0.00     0.053 C 
HETATM    6  C6  UNL     1       3.956  67.411  61.428  1.00  0.00     0.053 C 
BRANCH   4   7
HETATM    7  N1  UNL     1       2.682  67.459  63.484  1.00  0.00    -0.324 N 
HETATM    8  C7  UNL     1       2.364  67.305  64.864  1.00  0.00     0.320 C 
HETATM    9  O1  UNL     1       3.231  66.873  65.690  1.00  0.00    -0.247 OA
HETATM   10  N2  UNL     1       1.084  67.617  65.384  1.00  0.00    -0.328 N 
HETATM   11  C8  UNL     1       0.169  68.098  64.372  1.00  0.00     0.158 C 
HETATM   12  C12 UNL     1       0.912  67.409  66.803  1.00  0.00     0.092 C 
HETATM   13  C9  UNL     1      -1.216  68.341  64.866  1.00  0.00     0.292 C 
HETATM   14  N3  UNL     1      -1.354  68.525  66.266  1.00  0.00     0.090 N 
HETATM   15  C10 UNL     1      -1.506  67.306  67.016  1.00  0.00     0.274 C 
HETATM   16  C14 UNL     1      -0.439  69.456  66.848  1.00  0.00     0.274 C 
HETATM   17  C11 UNL     1      -0.236  66.494  67.068  1.00  0.00     0.055 C 
HETATM   18  C13 UNL     1       0.682  68.711  67.541  1.00  0.00     0.055 C 
ATOM     19  H1  UNL     1       1.956  67.806  62.859  1.00  0.00     0.166 HD
ENDBRANCH   4   7
ENDBRANCH   3   4
TORSDOF 2
ENDMDL
MODEL 3
REMARK VINA RESULT: -7.295466492      1.403      5.760
REMARK  2 active torsions:
REMARK  status: ('A' for Active; 'I' for Inactive)
REMARK    1  A    between atoms: C3_3  and  C4_4 
REMARK    2  A    between atoms: C4_4  and  N1_7 
REMARK       I    between atoms: N1_7  and  C7_9 
REMARK       I    between atoms: C7_9  and  N2_11 
ROOT
HETATM    1  C1  UNL     1       6.442  69.984  65.804  1.00  0.00     0.112 C 
HETATM    2  C2  UNL     1       5.592  69.267  64.849  1.00  0.00    -0.108 C 
HETATM    3  C3  UNL     1       4.870  68.667  64.066  1.00  0.00    -0.076 C 
ENDROOT
BRANCH   3   4
HETATM    4  C4  UNL     1       3.993  67.941  63.148  1.00  0.00     0.091 C 
HETATM    5  C5  UNL     1       4.167  68.461  61.722  1.00  0.00     0.053 C 
HETATM    6  C6  UNL     1       4.450  66.490  63.141  1.00  0.00     0.053 C 
BRANCH   4   7
HETATM    7  N1  UNL     1       2.634  68.025  63.585  1.00  0.00    -0.324 N 
HETATM    8  C7  UNL     1       2.219  67.769  64.923  1.00  0.00     0.320 C 
HETATM    9  O1  UNL     1       3.062  67.442  65.819  1.00  0.00    -0.247 OA
HETATM   10  N2  UNL     1       0.863  67.860  65.325  1.00  0.00    -0.328 N 
HETATM   11  C8  UNL     1      -0.019  68.235  64.241  1.00  0.00     0.158 C 
HETATM   12  C12 UNL     1       0.596  67.571  66.714  1.00  0.00     0.092 C 
HETATM   13  C9  UNL     1      -1.464  68.243  64.605  1.00  0.00     0.292 C 
HETATM   14  N3  UNL     1      -1.758  68.346  65.989  1.00  0.00     0.090 N 
HETATM   15  C10 UNL     1      -1.785  67.089  66.689  1.00  0.00     0.274 C 
HETATM   16  C14 UNL     1      -1.057  69.382  66.680  1.00  0.00     0.274 C 
HETATM   17  C11 UNL     1      -0.414  66.480  66.843  1.00  0.00     0.055 C 
HETATM   18  C13 UNL     1       0.098  68.791  67.460  1.00  0.00     0.055 C 
ATOM     19  H1  UNL     1       1.923  68.282  62.902  1.00  0.00     0.166 HD
ENDBRANCH   4   7
ENDBRANCH   3   4
TORSDOF 2
ENDMDL
MODEL 4
REMARK VINA RESULT: -7.142782143      1.280      2.881
REMARK  2 active torsions:
REMARK  status: ('A' for Active; 'I' for Inactive)
REMARK    1  A    between atoms: C3_3  and  C4_4 
REMARK    2  A    between atoms: C4_4  and  N1_7 
REMARK       I    between atoms: N1_7  and  C7_9 
REMARK       I    between atoms: C7_9  and  N2_11 
ROOT
HETATM    1  C1  UNL     1      -2.609  68.348  65.363  1.00  0.00     0.112 C 
HETATM    2  C2  UNL     1      -1.260  68.352  65.935  1.00  0.00    -0.108 C 
HETATM    3  C3  UNL     1      -0.142  68.356  66.430  1.00  0.00    -0.076 C 
ENDROOT
BRANCH   3   4
HETATM    4  C4  UNL     1       1.185  68.370  67.044  1.00  0.00     0.091 C 
HETATM    5  C5  UNL     1       1.282  69.489  68.079  1.00  0.00     0.053 C 
HETATM    6  C6  UNL     1       1.345  67.061  67.802  1.00  0.00     0.053 C 
BRANCH   4   7
HETATM    7  N1  UNL     1       2.199  68.481  66.040  1.00  0.00    -0.324 N 
HETATM    8  C7  UNL     1       2.267  67.642  64.892  1.00  0.00     0.320 C 
HETATM    9  O1  UNL     1       1.404  66.726  64.699  1.00  0.00    -0.247 OA
HETATM   10  N2  UNL     1       3.284  67.778  63.915  1.00  0.00    -0.328 N 
HETATM   11  C8  UNL     1       4.216  68.842  64.220  1.00  0.00     0.158 C 
HETATM   12  C12 UNL     1       3.222  66.855  62.807  1.00  0.00     0.092 C 
HETATM   13  C9  UNL     1       5.356  68.948  63.266  1.00  0.00     0.292 C 
HETATM   14  N3  UNL     1       5.160  68.355  61.992  1.00  0.00     0.090 N 
HETATM   15  C10 UNL     1       5.485  66.955  61.929  1.00  0.00     0.274 C 
HETATM   16  C14 UNL     1       3.929  68.697  61.350  1.00  0.00     0.274 C 
HETATM   17  C11 UNL     1       4.500  66.095  62.679  1.00  0.00     0.055 C 
HETATM   18  C13 UNL     1       2.939  67.561  61.498  1.00  0.00     0.055 C 
ATOM     19  H1  UNL     1       2.912  69.200  66.154  1.00  0.00     0.166 HD
ENDBRANCH   4   7
ENDBRANCH   3   4
TORSDOF 2
ENDMDL
MODEL 5
REMARK VINA RESULT: -7.141122269      1.154      1.974
REMARK  2 active torsions:
REMARK  status: ('A' for Active; 'I' for Inactive)
REMARK    1  A    between atoms: C3_3  and  C4_4 
REMARK    2  A    between atoms: C4_4  and  N1_7 
REMARK       I    between atoms: N1_7  and  C7_9 
REMARK       I    between atoms: C7_9  and  N2_11 
ROOT
HETATM    1  C1  UNL     1       1.549  65.364  69.772  1.00  0.00     0.112 C 
HETATM    2  C2  UNL     1       1.257  66.339  68.719  1.00  0.00    -0.108 C 
HETATM    3  C3  UNL     1       1.004  67.164  67.852  1.00  0.00    -0.076 C 
ENDROOT
BRANCH   3   4
HETATM    4  C4  UNL     1       0.684  68.160  66.831  1.00  0.00     0.091 C 
HETATM    5  C5  UNL     1      -0.595  67.772  66.091  1.00  0.00     0.053 C 
HETATM    6  C6  UNL     1       0.390  69.467  67.552  1.00  0.00     0.053 C 
BRANCH   4   7
HETATM    7  N1  UNL     1       1.787  68.332  65.936  1.00  0.00    -0.324 N 
HETATM    8  C7  UNL     1       1.996  67.529  64.779  1.00  0.00     0.320 C 
HETATM    9  O1  UNL     1       1.189  66.592  64.478  1.00  0.00    -0.247 OA
HETATM   10  N2  UNL     1       3.099  67.724  63.912  1.00  0.00    -0.328 N 
HETATM   11  C8  UNL     1       3.960  68.808  64.335  1.00  0.00     0.158 C 
HETATM   12  C12 UNL     1       3.179  66.831  62.780  1.00  0.00     0.092 C 
HETATM   13  C9  UNL     1       5.184  68.977  63.502  1.00  0.00     0.292 C 
HETATM   14  N3  UNL     1       5.134  68.415  62.200  1.00  0.00     0.090 N 
HETATM   15  C10 UNL     1       5.512  67.028  62.134  1.00  0.00     0.274 C 
HETATM   16  C14 UNL     1       3.962  68.735  61.448  1.00  0.00     0.274 C 
HETATM   17  C11 UNL     1       4.488  66.116  62.761  1.00  0.00     0.055 C 
HETATM   18  C13 UNL     1       3.001  67.566  61.468  1.00  0.00     0.055 C 
ATOM     19  H1  UNL     1       2.461  69.070  66.138  1.00  0.00     0.166 HD
ENDBRANCH   4   7
ENDBRANCH   3   4
TORSDOF 2
ENDMDL
