MODEL 1
REMARK VINA RESULT: -7.507134971      0.000      0.000
REMARK  3 active torsions:
REMARK  status: ('A' for Active; 'I' for Inactive)
REMARK    1  A    between atoms: C2_2  and  N1_3 
REMARK       I    between atoms: N1_3  and  C3_5 
REMARK    2  A    between atoms: N3_7  and  C4_9 
REMARK    3  A    between atoms: C4_9  and  N4_11 
ROOT
HETATM    1  C4  UNL     1       3.493  65.604  64.977  1.00  0.00     0.176 C 
HETATM    2  S1  UNL     1       3.693  64.032  64.503  1.00  0.00    -0.041 SA
ENDROOT
BRANCH   1   3
HETATM    3  N3  UNL     1       2.437  65.898  65.814  1.00  0.00    -0.307 N 
HETATM    4  C3  UNL     1       1.355  66.537  65.578  1.00  0.00     0.190 C 
HETATM    5  N1  UNL     1       0.410  66.696  66.653  1.00  0.00    -0.365 N 
HETATM    6  N2  UNL     1       1.087  67.071  64.285  1.00  0.00    -0.063 NA
ATOM      7  H1  UNL     1       0.599  66.274  67.563  1.00  0.00     0.162 HD
ATOM      8  H3  UNL     1       2.534  65.553  66.769  1.00  0.00     0.171 HD
BRANCH   5   9
HETATM    9  C2  UNL     1      -0.789  67.441  66.451  1.00  0.00     0.118 C 
HETATM   10  C1  UNL     1      -2.015  66.702  66.987  1.00  0.00     0.026 C 
ENDBRANCH   5   9
ENDBRANCH   1   3
BRANCH   1  11
HETATM   11  N4  UNL     1       4.437  66.536  64.477  1.00  0.00    -0.357 N 
HETATM   12  C5  UNL     1       4.529  66.846  63.058  1.00  0.00     0.129 C 
HETATM   13  C6  UNL     1       5.196  68.226  63.008  1.00  0.00    -0.000 C 
HETATM   14  C7  UNL     1       5.169  68.763  61.590  1.00  0.00     0.011 C 
HETATM   15  C8  UNL     1       4.417  69.094  63.955  1.00  0.00     0.011 C 
HETATM   16  C9  UNL     1       4.927  68.753  65.352  1.00  0.00    -0.000 C 
HETATM   17  C10 UNL     1       6.065  69.660  65.700  1.00  0.00     0.011 C 
HETATM   18  C11 UNL     1       5.331  67.275  65.349  1.00  0.00     0.129 C 
ENDBRANCH   1  11
TORSDOF 3
ENDMDL
MODEL 2
REMARK VINA RESULT: -7.275420358      1.247      2.477
REMARK  3 active torsions:
REMARK  status: ('A' for Active; 'I' for Inactive)
REMARK    1  A    between atoms: C2_2  and  N1_3 
REMARK       I    between atoms: N1_3  and  C3_5 
REMARK    2  A    between atoms: N3_7  and  C4_9 
REMARK    3  A    between atoms: C4_9  and  N4_11 
ROOT
HETATM    1  C4  UNL     1       2.590  66.891  64.956  1.00  0.00     0.176 C 
HETATM    2  S1  UNL     1       3.354  65.464  65.302  1.00  0.00    -0.041 SA
ENDROOT
BRANCH   1   3
HETATM    3  N3  UNL     1       1.211  66.908  64.982  1.00  0.00    -0.307 N 
HETATM    4  C3  UNL     1       0.411  67.257  65.916  1.00  0.00     0.190 C 
HETATM    5  N1  UNL     1      -1.005  67.176  65.665  1.00  0.00    -0.365 N 
HETATM    6  N2  UNL     1       0.905  67.720  67.169  1.00  0.00    -0.063 NA
ATOM      7  H1  UNL     1      -1.343  66.879  64.749  1.00  0.00     0.162 HD
ATOM      8  H3  UNL     1       0.759  66.595  64.123  1.00  0.00     0.171 HD
BRANCH   5   9
HETATM    9  C2  UNL     1      -1.937  67.509  66.692  1.00  0.00     0.118 C 
HETATM   10  C1  UNL     1      -2.336  66.286  67.517  1.00  0.00     0.026 C 
ENDBRANCH   5   9
ENDBRANCH   1   3
BRANCH   1  11
HETATM   11  N4  UNL     1       3.426  67.995  64.656  1.00  0.00    -0.357 N 
HETATM   12  C5  UNL     1       4.061  68.781  65.703  1.00  0.00     0.129 C 
HETATM   13  C6  UNL     1       5.261  69.442  65.014  1.00  0.00    -0.000 C 
HETATM   14  C7  UNL     1       6.134  70.134  66.043  1.00  0.00     0.011 C 
HETATM   15  C8  UNL     1       5.991  68.335  64.307  1.00  0.00     0.011 C 
HETATM   16  C9  UNL     1       5.221  68.082  63.015  1.00  0.00    -0.000 C 
HETATM   17  C10 UNL     1       5.783  68.940  61.926  1.00  0.00     0.011 C 
HETATM   18  C11 UNL     1       3.742  68.377  63.292  1.00  0.00     0.129 C 
ENDBRANCH   1  11
TORSDOF 3
ENDMDL
MODEL 3
REMARK VINA RESULT: -7.023041301      2.312      3.221
REMARK  3 active torsions:
REMARK  status: ('A' for Active; 'I' for Inactive)
REMARK    1  A    between atoms: C2_2  and  N1_3 
REMARK       I    between atoms: N1_3  and  C3_5 
REMARK    2  A    between atoms: N3_7  and  C4_9 
REMARK    3  A    between atoms: C4_9  and  N4_11 
ROOT
HETATM    1  C4  UNL     1       2.136  67.653  65.144  1.00  0.00     0.176 C 
HETATM    2  S1  UNL     1       0.814  67.746  64.154  1.00  0.00    -0.041 SA
ENDROOT
BRANCH   1   3
HETATM    3  N3  UNL     1       2.072  66.806  66.231  1.00  0.00    -0.307 N 
HETATM    4  C3  UNL     1       1.543  66.984  67.381  1.00  0.00     0.190 C 
HETATM    5  N1  UNL     1       1.622  65.912  68.340  1.00  0.00    -0.365 N 
HETATM    6  N2  UNL     1       0.886  68.205  67.704  1.00  0.00    -0.063 NA
ATOM      7  H1  UNL     1       2.062  65.028  68.080  1.00  0.00     0.162 HD
ATOM      8  H3  UNL     1       2.515  65.897  66.097  1.00  0.00     0.171 HD
BRANCH   5   9
HETATM    9  C2  UNL     1       1.088  66.080  69.652  1.00  0.00     0.118 C 
HETATM   10  C1  UNL     1       0.577  64.762  70.232  1.00  0.00     0.026 C 
ENDBRANCH   5   9
ENDBRANCH   1   3
BRANCH   1  11
HETATM   11  N4  UNL     1       3.244  68.464  64.791  1.00  0.00    -0.357 N 
HETATM   12  C5  UNL     1       3.988  69.219  65.787  1.00  0.00     0.129 C 
HETATM   13  C6  UNL     1       5.359  69.459  65.143  1.00  0.00    -0.000 C 
HETATM   14  C7  UNL     1       6.310  70.063  66.158  1.00  0.00     0.011 C 
HETATM   15  C8  UNL     1       5.827  68.116  64.661  1.00  0.00     0.011 C 
HETATM   16  C9  UNL     1       5.104  67.868  63.341  1.00  0.00    -0.000 C 
HETATM   17  C10 UNL     1       5.937  68.391  62.214  1.00  0.00     0.011 C 
HETATM   18  C11 UNL     1       3.735  68.550  63.428  1.00  0.00     0.129 C 
ENDBRANCH   1  11
TORSDOF 3
ENDMDL
MODEL 4
REMARK VINA RESULT: -6.905341321      2.244      4.127
REMARK  3 active torsions:
REMARK  status: ('A' for Active; 'I' for Inactive)
REMARK    1  A    between atoms: C2_2  and  N1_3 
REMARK       I    between atoms: N1_3  and  C3_5 
REMARK    2  A    between atoms: N3_7  and  C4_9 
REMARK    3  A    between atoms: C4_9  and  N4_11 
ROOT
HETATM    1  C4  UNL     1       2.403  67.344  65.427  1.00  0.00     0.176 C 
HETATM    2  S1  UNL     1       1.287  67.818  66.552  1.00  0.00    -0.041 SA
ENDROOT
BRANCH   1   3
HETATM    3  N3  UNL     1       2.362  66.038  64.985  1.00  0.00    -0.307 N 
HETATM    4  C3  UNL     1       3.266  65.135  65.007  1.00  0.00     0.190 C 
HETATM    5  N1  UNL     1       2.944  63.837  64.472  1.00  0.00    -0.365 N 
HETATM    6  N2  UNL     1       4.555  65.401  65.551  1.00  0.00    -0.063 NA
ATOM      7  H1  UNL     1       2.004  63.650  64.122  1.00  0.00     0.162 HD
ATOM      8  H3  UNL     1       1.473  65.748  64.579  1.00  0.00     0.171 HD
BRANCH   5   9
HETATM    9  C2  UNL     1       3.934  62.811  64.431  1.00  0.00     0.118 C 
HETATM   10  C1  UNL     1       4.880  62.980  63.243  1.00  0.00     0.026 C 
ENDBRANCH   5   9
ENDBRANCH   1   3
BRANCH   1  11
HETATM   11  N4  UNL     1       3.326  68.333  65.003  1.00  0.00    -0.357 N 
HETATM   12  C5  UNL     1       4.114  69.104  65.953  1.00  0.00     0.129 C 
HETATM   13  C6  UNL     1       5.323  69.591  65.145  1.00  0.00    -0.000 C 
HETATM   14  C7  UNL     1       6.335  70.241  66.068  1.00  0.00     0.011 C 
HETATM   15  C8  UNL     1       5.880  68.373  64.464  1.00  0.00     0.011 C 
HETATM   16  C9  UNL     1       4.996  68.133  63.245  1.00  0.00    -0.000 C 
HETATM   17  C10 UNL     1       5.565  68.862  62.068  1.00  0.00     0.011 C 
HETATM   18  C11 UNL     1       3.581  68.601  63.599  1.00  0.00     0.129 C 
ENDBRANCH   1  11
TORSDOF 3
ENDMDL
MODEL 5
REMARK VINA RESULT: -6.774251663      2.050      3.131
REMARK  3 active torsions:
REMARK  status: ('A' for Active; 'I' for Inactive)
REMARK    1  A    between atoms: C2_2  and  N1_3 
REMARK       I    between atoms: N1_3  and  C3_5 
REMARK    2  A    between atoms: N3_7  and  C4_9 
REMARK    3  A    between atoms: C4_9  and  N4_11 
ROOT
HETATM    1  C4  UNL     1       1.803  68.162  63.234  1.00  0.00     0.176 C 
HETATM    2  S1  UNL     1       1.210  68.376  61.705  1.00  0.00    -0.041 SA
ENDROOT
BRANCH   1   3
HETATM    3  N3  UNL     1       0.966  68.431  64.297  1.00  0.00    -0.307 N 
HETATM    4  C3  UNL     1       0.511  67.652  65.202  1.00  0.00     0.190 C 
HETATM    5  N1  UNL     1      -0.357  68.210  66.207  1.00  0.00    -0.365 N 
HETATM    6  N2  UNL     1       0.858  66.271  65.222  1.00  0.00    -0.063 NA
ATOM      7  H1  UNL     1      -0.565  69.209  66.202  1.00  0.00     0.162 HD
ATOM      8  H3  UNL     1       0.661  69.402  64.371  1.00  0.00     0.171 HD
BRANCH   5   9
HETATM    9  C2  UNL     1      -0.926  67.371  67.210  1.00  0.00     0.118 C 
HETATM   10  C1  UNL     1      -2.343  66.929  66.846  1.00  0.00     0.026 C 
ENDBRANCH   5   9
ENDBRANCH   1   3
BRANCH   1  11
HETATM   11  N4  UNL     1       3.145  67.715  63.331  1.00  0.00    -0.357 N 
HETATM   12  C5  UNL     1       4.157  68.478  64.044  1.00  0.00     0.129 C 
HETATM   13  C6  UNL     1       5.234  67.448  64.405  1.00  0.00    -0.000 C 
HETATM   14  C7  UNL     1       6.258  68.071  65.333  1.00  0.00     0.011 C 
HETATM   15  C8  UNL     1       4.507  66.304  65.054  1.00  0.00     0.011 C 
HETATM   16  C9  UNL     1       3.916  65.482  63.914  1.00  0.00    -0.000 C 
HETATM   17  C10 UNL     1       4.894  64.426  63.504  1.00  0.00     0.011 C 
HETATM   18  C11 UNL     1       3.579  66.448  62.772  1.00  0.00     0.129 C 
ENDBRANCH   1  11
TORSDOF 3
ENDMDL
