MODEL 1
REMARK VINA RESULT: -10.026004904      0.000      0.000
REMARK  1 active torsions:
REMARK  status: ('A' for Active; 'I' for Inactive)
REMARK       I    between atoms: N3_4  and  C2_6 
REMARK    1  A    between atoms: C2_6  and  C3_8 
ROOT
HETATM    1  C3  UNL     1       2.600  67.404  64.273  1.00  0.00     0.046 C 
HETATM    2  C4  UNL     1       2.913  68.270  63.073  1.00  0.00     0.024 C 
HETATM    3  C5  UNL     1       4.318  68.155  62.616  1.00  0.00    -0.013 C 
HETATM    4  C6  UNL     1       5.255  69.151  63.270  1.00  0.00     0.009 C 
HETATM    5  C7  UNL     1       5.407  68.937  64.737  1.00  0.00    -0.013 C 
HETATM    6  C8  UNL     1       5.964  67.585  65.092  1.00  0.00     0.010 C 
HETATM    7  C9  UNL     1       4.723  66.733  65.178  1.00  0.00    -0.005 C 
HETATM    8  C10 UNL     1       4.442  66.001  63.898  1.00  0.00    -0.009 C 
HETATM    9  C11 UNL     1       4.873  66.749  62.675  1.00  0.00     0.010 C 
HETATM   10  C12 UNL     1       2.918  65.977  63.884  1.00  0.00     0.024 C 
HETATM   11  C13 UNL     1       3.565  67.650  65.410  1.00  0.00     0.008 C 
HETATM   12  C14 UNL     1       4.080  69.048  65.458  1.00  0.00     0.011 C 
ENDROOT
BRANCH   1  13
HETATM   13  C2  UNL     1       1.203  67.494  64.671  1.00  0.00     0.233 C 
HETATM   14  N3  UNL     1       0.637  66.696  65.728  1.00  0.00    -0.303 N 
HETATM   15  C1  UNL     1      -0.303  67.156  66.460  1.00  0.00     0.203 C 
ATOM     16  H3  UNL     1       0.991  65.754  65.894  1.00  0.00     0.171 HD
HETATM   17  N1  UNL     1      -0.843  66.357  67.490  1.00  0.00    -0.066 NA
HETATM   18  N2  UNL     1      -0.799  68.459  66.236  1.00  0.00    -0.066 NA
HETATM   19  O1  UNL     1       0.434  68.295  64.084  1.00  0.00    -0.272 OA
ENDBRANCH   1  13
TORSDOF 1
ENDMDL
MODEL 2
REMARK VINA RESULT: -9.783195665      0.663      2.209
REMARK  1 active torsions:
REMARK  status: ('A' for Active; 'I' for Inactive)
REMARK       I    between atoms: N3_4  and  C2_6 
REMARK    1  A    between atoms: C2_6  and  C3_8 
ROOT
HETATM    1  C3  UNL     1       2.389  67.449  64.553  1.00  0.00     0.046 C 
HETATM    2  C4  UNL     1       2.857  66.033  64.303  1.00  0.00     0.024 C 
HETATM    3  C5  UNL     1       4.314  65.931  64.051  1.00  0.00    -0.013 C 
HETATM    4  C6  UNL     1       4.688  66.051  62.586  1.00  0.00     0.009 C 
HETATM    5  C7  UNL     1       4.385  67.393  62.012  1.00  0.00    -0.013 C 
HETATM    6  C8  UNL     1       5.114  68.518  62.696  1.00  0.00     0.010 C 
HETATM    7  C9  UNL     1       4.178  68.877  63.821  1.00  0.00    -0.005 C 
HETATM    8  C10 UNL     1       4.542  68.196  65.108  1.00  0.00    -0.009 C 
HETATM    9  C11 UNL     1       5.155  66.844  64.916  1.00  0.00     0.010 C 
HETATM   10  C12 UNL     1       3.172  67.972  65.737  1.00  0.00     0.024 C 
HETATM   11  C13 UNL     1       2.816  68.386  63.446  1.00  0.00     0.008 C 
HETATM   12  C14 UNL     1       2.911  67.724  62.113  1.00  0.00     0.011 C 
ENDROOT
BRANCH   1  13
HETATM   13  C2  UNL     1       0.965  67.517  64.850  1.00  0.00     0.233 C 
HETATM   14  N3  UNL     1       0.332  66.685  65.840  1.00  0.00    -0.303 N 
HETATM   15  C1  UNL     1      -0.664  67.116  66.513  1.00  0.00     0.203 C 
ATOM     16  H3  UNL     1       0.682  65.741  66.006  1.00  0.00     0.171 HD
HETATM   17  N1  UNL     1      -1.270  66.284  67.478  1.00  0.00    -0.066 NA
HETATM   18  N2  UNL     1      -1.155  68.421  66.289  1.00  0.00    -0.066 NA
HETATM   19  O1  UNL     1       0.233  68.328  64.231  1.00  0.00    -0.272 OA
ENDBRANCH   1  13
TORSDOF 1
ENDMDL
MODEL 3
REMARK VINA RESULT: -9.387153771      0.807      1.996
REMARK  1 active torsions:
REMARK  status: ('A' for Active; 'I' for Inactive)
REMARK       I    between atoms: N3_4  and  C2_6 
REMARK    1  A    between atoms: C2_6  and  C3_8 
ROOT
HETATM    1  C3  UNL     1       2.078  67.615  64.408  1.00  0.00     0.046 C 
HETATM    2  C4  UNL     1       2.926  68.489  65.305  1.00  0.00     0.024 C 
HETATM    3  C5  UNL     1       4.309  68.675  64.806  1.00  0.00    -0.013 C 
HETATM    4  C6  UNL     1       5.285  67.631  65.315  1.00  0.00     0.009 C 
HETATM    5  C7  UNL     1       4.981  66.257  64.826  1.00  0.00    -0.013 C 
HETATM    6  C8  UNL     1       5.018  66.130  63.327  1.00  0.00     0.010 C 
HETATM    7  C9  UNL     1       3.609  66.495  62.933  1.00  0.00    -0.005 C 
HETATM    8  C10 UNL     1       3.478  67.941  62.555  1.00  0.00    -0.009 C 
HETATM    9  C11 UNL     1       4.407  68.843  63.306  1.00  0.00     0.010 C 
HETATM   10  C12 UNL     1       2.068  68.260  63.040  1.00  0.00     0.024 C 
HETATM   11  C13 UNL     1       2.740  66.284  64.132  1.00  0.00     0.008 C 
HETATM   12  C14 UNL     1       3.599  65.805  65.252  1.00  0.00     0.011 C 
ENDROOT
BRANCH   1  13
HETATM   13  C2  UNL     1       0.710  67.490  64.891  1.00  0.00     0.233 C 
HETATM   14  N3  UNL     1       0.348  66.656  66.009  1.00  0.00    -0.303 N 
HETATM   15  C1  UNL     1      -0.613  66.986  66.782  1.00  0.00     0.203 C 
ATOM     16  H3  UNL     1       0.864  65.794  66.184  1.00  0.00     0.171 HD
HETATM   17  N1  UNL     1      -0.951  66.155  67.872  1.00  0.00    -0.066 NA
HETATM   18  N2  UNL     1      -1.332  68.178  66.546  1.00  0.00    -0.066 NA
HETATM   19  O1  UNL     1      -0.215  68.125  64.327  1.00  0.00    -0.272 OA
ENDBRANCH   1  13
TORSDOF 1
ENDMDL
MODEL 4
REMARK VINA RESULT: -9.324943407      1.149      1.389
REMARK  1 active torsions:
REMARK  status: ('A' for Active; 'I' for Inactive)
REMARK       I    between atoms: N3_4  and  C2_6 
REMARK    1  A    between atoms: C2_6  and  C3_8 
ROOT
HETATM    1  C3  UNL     1       2.800  67.167  64.901  1.00  0.00     0.046 C 
HETATM    2  C4  UNL     1       2.562  67.791  63.543  1.00  0.00     0.024 C 
HETATM    3  C5  UNL     1       3.725  67.679  62.633  1.00  0.00    -0.013 C 
HETATM    4  C6  UNL     1       4.687  68.847  62.727  1.00  0.00     0.009 C 
HETATM    5  C7  UNL     1       5.361  68.946  64.052  1.00  0.00    -0.013 C 
HETATM    6  C8  UNL     1       6.183  67.734  64.399  1.00  0.00     0.010 C 
HETATM    7  C9  UNL     1       5.174  66.837  65.070  1.00  0.00    -0.005 C 
HETATM    8  C10 UNL     1       4.572  65.844  64.121  1.00  0.00    -0.009 C 
HETATM    9  C11 UNL     1       4.451  66.354  62.719  1.00  0.00     0.010 C 
HETATM   10  C12 UNL     1       3.154  65.716  64.666  1.00  0.00     0.024 C 
HETATM   11  C13 UNL     1       4.055  67.703  65.552  1.00  0.00     0.008 C 
HETATM   12  C14 UNL     1       4.362  69.113  65.177  1.00  0.00     0.011 C 
ENDROOT
BRANCH   1  13
HETATM   13  C2  UNL     1       1.626  67.244  65.759  1.00  0.00     0.233 C 
HETATM   14  N3  UNL     1       0.463  68.025  65.425  1.00  0.00    -0.303 N 
HETATM   15  C1  UNL     1      -0.702  67.644  65.785  1.00  0.00     0.203 C 
ATOM     16  H3  UNL     1       0.570  68.890  64.897  1.00  0.00     0.171 HD
HETATM   17  N1  UNL     1      -1.828  68.425  65.447  1.00  0.00    -0.066 NA
HETATM   18  N2  UNL     1      -0.859  66.447  66.517  1.00  0.00    -0.066 NA
HETATM   19  O1  UNL     1       1.599  66.611  66.843  1.00  0.00    -0.272 OA
ENDBRANCH   1  13
TORSDOF 1
ENDMDL
MODEL 5
REMARK VINA RESULT: -9.294664520      1.255      2.397
REMARK  1 active torsions:
REMARK  status: ('A' for Active; 'I' for Inactive)
REMARK       I    between atoms: N3_4  and  C2_6 
REMARK    1  A    between atoms: C2_6  and  C3_8 
ROOT
HETATM    1  C3  UNL     1       2.330  67.769  65.110  1.00  0.00     0.046 C 
HETATM    2  C4  UNL     1       3.480  68.540  65.721  1.00  0.00     0.024 C 
HETATM    3  C5  UNL     1       4.673  68.606  64.846  1.00  0.00    -0.013 C 
HETATM    4  C6  UNL     1       5.649  67.464  65.060  1.00  0.00     0.009 C 
HETATM    5  C7  UNL     1       5.087  66.136  64.686  1.00  0.00    -0.013 C 
HETATM    6  C8  UNL     1       4.682  66.040  63.240  1.00  0.00     0.010 C 
HETATM    7  C9  UNL     1       3.261  66.543  63.265  1.00  0.00    -0.005 C 
HETATM    8  C10 UNL     1       3.167  68.003  62.932  1.00  0.00    -0.009 C 
HETATM    9  C11 UNL     1       4.355  68.797  63.379  1.00  0.00     0.010 C 
HETATM   10  C12 UNL     1       1.993  68.442  63.798  1.00  0.00     0.024 C 
HETATM   11  C13 UNL     1       2.755  66.389  64.663  1.00  0.00     0.008 C 
HETATM   12  C14 UNL     1       3.848  65.807  65.493  1.00  0.00     0.011 C 
ENDROOT
BRANCH   1  13
HETATM   13  C2  UNL     1       1.152  67.762  65.965  1.00  0.00     0.233 C 
HETATM   14  N3  UNL     1      -0.143  68.207  65.517  1.00  0.00    -0.303 N 
HETATM   15  C1  UNL     1      -1.209  67.670  65.969  1.00  0.00     0.203 C 
ATOM     16  H3  UNL     1      -0.209  68.960  64.831  1.00  0.00     0.171 HD
HETATM   17  N1  UNL     1      -2.467  68.121  65.516  1.00  0.00    -0.066 NA
HETATM   18  N2  UNL     1      -1.126  66.628  66.919  1.00  0.00    -0.066 NA
HETATM   19  O1  UNL     1       1.239  67.356  67.150  1.00  0.00    -0.272 OA
ENDBRANCH   1  13
TORSDOF 1
ENDMDL
