MODEL 1
REMARK VINA RESULT: -9.791618877      0.000      0.000
REMARK  1 active torsions:
REMARK  status: ('A' for Active; 'I' for Inactive)
REMARK    1  A    between atoms: C9_9  and  C10_10 
REMARK       I    between atoms: C10_10  and  N1_12 
ROOT
HETATM    1  C1  UNL     1       5.810  69.644  65.731  1.00  0.00     0.014 C 
HETATM    2  C2  UNL     1       5.127  69.056  64.761  1.00  0.00    -0.084 C 
HETATM    3  C3  UNL     1       5.730  68.383  63.548  1.00  0.00     0.039 C 
HETATM    4  C4  UNL     1       4.893  67.096  63.538  1.00  0.00    -0.005 C 
HETATM    5  C5  UNL     1       5.426  66.217  64.604  1.00  0.00     0.005 C 
HETATM    6  C6  UNL     1       4.458  65.201  65.122  1.00  0.00     0.001 C 
HETATM    7  C7  UNL     1       3.053  65.644  65.250  1.00  0.00     0.006 C 
HETATM    8  C8  UNL     1       2.568  66.745  64.430  1.00  0.00     0.004 C 
HETATM    9  C9  UNL     1       1.763  67.750  65.274  1.00  0.00     0.083 C 
HETATM   10  C12 UNL     1       2.942  68.555  65.844  1.00  0.00     0.023 C 
HETATM   11  C13 UNL     1       3.667  68.898  64.589  1.00  0.00     0.019 C 
HETATM   12  C14 UNL     1       3.528  67.630  63.759  1.00  0.00     0.003 C 
ENDROOT
BRANCH   9  13
HETATM   13  C10 UNL     1       0.991  67.098  66.324  1.00  0.00     0.228 C 
HETATM   14  O1  UNL     1       1.510  66.791  67.428  1.00  0.00    -0.273 OA
HETATM   15  N1  UNL     1      -0.363  66.799  66.117  1.00  0.00    -0.303 N 
HETATM   16  C11 UNL     1      -1.287  67.690  66.330  1.00  0.00     0.203 C 
ATOM     17  H1  UNL     1      -0.628  65.869  65.794  1.00  0.00     0.171 HD
HETATM   18  N2  UNL     1      -0.947  69.006  66.784  1.00  0.00    -0.066 NA
HETATM   19  N3  UNL     1      -2.645  67.367  66.114  1.00  0.00    -0.066 NA
ENDBRANCH   9  13
TORSDOF 1
ENDMDL
MODEL 2
REMARK VINA RESULT: -8.965309731      1.483      2.099
REMARK  1 active torsions:
REMARK  status: ('A' for Active; 'I' for Inactive)
REMARK    1  A    between atoms: C9_9  and  C10_10 
REMARK       I    between atoms: C10_10  and  N1_12 
ROOT
HETATM    1  C1  UNL     1       6.662  67.028  65.358  1.00  0.00     0.014 C 
HETATM    2  C2  UNL     1       5.859  68.015  64.991  1.00  0.00    -0.084 C 
HETATM    3  C3  UNL     1       6.202  69.097  63.991  1.00  0.00     0.039 C 
HETATM    4  C4  UNL     1       4.907  69.093  63.168  1.00  0.00    -0.005 C 
HETATM    5  C5  UNL     1       4.954  67.908  62.280  1.00  0.00     0.005 C 
HETATM    6  C6  UNL     1       3.620  67.416  61.818  1.00  0.00     0.001 C 
HETATM    7  C7  UNL     1       2.523  67.476  62.808  1.00  0.00     0.006 C 
HETATM    8  C8  UNL     1       2.596  68.429  63.906  1.00  0.00     0.004 C 
HETATM    9  C9  UNL     1       2.232  67.761  65.244  1.00  0.00     0.083 C 
HETATM   10  C12 UNL     1       3.601  67.135  65.559  1.00  0.00     0.023 C 
HETATM   11  C13 UNL     1       4.481  68.329  65.424  1.00  0.00     0.019 C 
HETATM   12  C14 UNL     1       3.878  69.064  64.235  1.00  0.00     0.003 C 
ENDROOT
BRANCH   9  13
HETATM   13  C10 UNL     1       1.193  66.750  65.094  1.00  0.00     0.228 C 
HETATM   14  O1  UNL     1       1.467  65.572  64.746  1.00  0.00    -0.273 OA
HETATM   15  N1  UNL     1      -0.147  67.079  65.339  1.00  0.00    -0.303 N 
HETATM   16  C11 UNL     1      -0.636  67.049  66.545  1.00  0.00     0.203 C 
ATOM     17  H1  UNL     1      -0.749  67.346  64.560  1.00  0.00     0.171 HD
HETATM   18  N2  UNL     1       0.184  66.678  67.659  1.00  0.00    -0.066 NA
HETATM   19  N3  UNL     1      -1.989  67.386  66.769  1.00  0.00    -0.066 NA
ENDBRANCH   9  13
TORSDOF 1
ENDMDL
MODEL 3
REMARK VINA RESULT: -8.775427327      2.070      3.233
REMARK  1 active torsions:
REMARK  status: ('A' for Active; 'I' for Inactive)
REMARK    1  A    between atoms: C9_9  and  C10_10 
REMARK       I    between atoms: C10_10  and  N1_12 
ROOT
HETATM    1  C1  UNL     1       0.797  69.481  61.860  1.00  0.00     0.014 C 
HETATM    2  C2  UNL     1       1.424  68.400  62.297  1.00  0.00    -0.084 C 
HETATM    3  C3  UNL     1       2.709  67.841  61.726  1.00  0.00     0.039 C 
HETATM    4  C4  UNL     1       3.464  67.570  63.035  1.00  0.00    -0.005 C 
HETATM    5  C5  UNL     1       3.958  68.874  63.535  1.00  0.00     0.005 C 
HETATM    6  C6  UNL     1       4.223  68.923  65.005  1.00  0.00     0.001 C 
HETATM    7  C7  UNL     1       3.271  68.187  65.865  1.00  0.00     0.006 C 
HETATM    8  C8  UNL     1       2.509  67.078  65.309  1.00  0.00     0.004 C 
HETATM    9  C9  UNL     1       1.025  67.172  65.705  1.00  0.00     0.083 C 
HETATM   10  C12 UNL     1       0.569  68.164  64.623  1.00  0.00     0.023 C 
HETATM   11  C13 UNL     1       1.074  67.480  63.400  1.00  0.00     0.019 C 
HETATM   12  C14 UNL     1       2.413  66.918  63.853  1.00  0.00     0.003 C 
ENDROOT
BRANCH   9  13
HETATM   13  C10 UNL     1       0.844  67.709  67.048  1.00  0.00     0.228 C 
HETATM   14  O1  UNL     1       0.468  68.896  67.236  1.00  0.00    -0.273 OA
HETATM   15  N1  UNL     1       1.087  66.901  68.167  1.00  0.00    -0.303 N 
HETATM   16  C11 UNL     1       0.170  66.101  68.629  1.00  0.00     0.203 C 
ATOM     17  H1  UNL     1       1.997  66.940  68.626  1.00  0.00     0.171 HD
HETATM   18  N2  UNL     1      -1.118  66.024  68.006  1.00  0.00    -0.066 NA
HETATM   19  N3  UNL     1       0.437  65.295  69.757  1.00  0.00    -0.066 NA
ENDBRANCH   9  13
TORSDOF 1
ENDMDL
MODEL 4
REMARK VINA RESULT: -8.652240908      1.622      2.830
REMARK  1 active torsions:
REMARK  status: ('A' for Active; 'I' for Inactive)
REMARK    1  A    between atoms: C9_9  and  C10_10 
REMARK       I    between atoms: C10_10  and  N1_12 
ROOT
HETATM    1  C1  UNL     1       2.574  68.405  61.113  1.00  0.00     0.014 C 
HETATM    2  C2  UNL     1       3.313  67.649  61.911  1.00  0.00    -0.084 C 
HETATM    3  C3  UNL     1       4.792  67.383  61.743  1.00  0.00     0.039 C 
HETATM    4  C4  UNL     1       5.248  67.590  63.194  1.00  0.00    -0.005 C 
HETATM    5  C5  UNL     1       5.282  69.050  63.439  1.00  0.00     0.005 C 
HETATM    6  C6  UNL     1       5.161  69.449  64.875  1.00  0.00     0.001 C 
HETATM    7  C7  UNL     1       4.231  68.646  65.699  1.00  0.00     0.006 C 
HETATM    8  C8  UNL     1       3.912  67.282  65.303  1.00  0.00     0.004 C 
HETATM    9  C9  UNL     1       2.397  67.022  65.382  1.00  0.00     0.083 C 
HETATM   10  C12 UNL     1       1.997  67.621  64.024  1.00  0.00     0.023 C 
HETATM   11  C13 UNL     1       2.932  66.892  63.122  1.00  0.00     0.019 C 
HETATM   12  C14 UNL     1       4.215  66.831  63.939  1.00  0.00     0.003 C 
ENDROOT
BRANCH   9  13
HETATM   13  C10 UNL     1       1.772  67.727  66.494  1.00  0.00     0.228 C 
HETATM   14  O1  UNL     1       1.661  68.981  66.498  1.00  0.00    -0.273 OA
HETATM   15  N1  UNL     1       1.277  67.010  67.591  1.00  0.00    -0.303 N 
HETATM   16  C11 UNL     1       0.083  66.492  67.570  1.00  0.00     0.203 C 
ATOM     17  H1  UNL     1       1.860  66.892  68.419  1.00  0.00     0.171 HD
HETATM   18  N2  UNL     1      -0.761  66.640  66.422  1.00  0.00    -0.066 NA
HETATM   19  N3  UNL     1      -0.396  65.772  68.687  1.00  0.00    -0.066 NA
ENDBRANCH   9  13
TORSDOF 1
ENDMDL
MODEL 5
REMARK VINA RESULT: -7.958627600      1.705      2.690
REMARK  1 active torsions:
REMARK  status: ('A' for Active; 'I' for Inactive)
REMARK    1  A    between atoms: C9_9  and  C10_10 
REMARK       I    between atoms: C10_10  and  N1_12 
ROOT
HETATM    1  C1  UNL     1       5.178  65.380  65.118  1.00  0.00     0.014 C 
HETATM    2  C2  UNL     1       5.050  66.689  64.960  1.00  0.00    -0.084 C 
HETATM    3  C3  UNL     1       6.117  67.614  64.417  1.00  0.00     0.039 C 
HETATM    4  C4  UNL     1       5.259  68.435  63.444  1.00  0.00    -0.005 C 
HETATM    5  C5  UNL     1       5.024  67.594  62.247  1.00  0.00     0.005 C 
HETATM    6  C6  UNL     1       3.811  67.957  61.453  1.00  0.00     0.001 C 
HETATM    7  C7  UNL     1       2.623  68.375  62.230  1.00  0.00     0.006 C 
HETATM    8  C8  UNL     1       2.795  68.919  63.569  1.00  0.00     0.004 C 
HETATM    9  C9  UNL     1       1.799  68.285  64.557  1.00  0.00     0.083 C 
HETATM   10  C12 UNL     1       2.582  66.999  64.866  1.00  0.00     0.023 C 
HETATM   11  C13 UNL     1       3.901  67.573  65.251  1.00  0.00     0.019 C 
HETATM   12  C14 UNL     1       4.067  68.729  64.275  1.00  0.00     0.003 C 
ENDROOT
BRANCH   9  13
HETATM   13  C10 UNL     1       0.510  68.002  63.938  1.00  0.00     0.228 C 
HETATM   14  O1  UNL     1       0.421  67.306  62.893  1.00  0.00    -0.273 OA
HETATM   15  N1  UNL     1      -0.668  68.507  64.505  1.00  0.00    -0.303 N 
HETATM   16  C11 UNL     1      -1.270  67.877  65.472  1.00  0.00     0.203 C 
ATOM     17  H1  UNL     1      -1.059  69.382  64.156  1.00  0.00     0.171 HD
HETATM   18  N2  UNL     1      -0.746  66.646  65.984  1.00  0.00    -0.066 NA
HETATM   19  N3  UNL     1      -2.456  68.404  66.030  1.00  0.00    -0.066 NA
ENDBRANCH   9  13
TORSDOF 1
ENDMDL
