MODEL 1
REMARK VINA RESULT: -6.991882164      0.000      0.000
REMARK  1 active torsions:
REMARK  status: ('A' for Active; 'I' for Inactive)
REMARK       I    between atoms: N3_13  and  C9_15 
REMARK    1  A    between atoms: N5_17  and  C10_19 
ROOT
HETATM    1  C1  UNL     1       2.966  65.560  63.645  1.00  0.00     0.040 C 
HETATM    2  C2  UNL     1       3.453  66.943  63.337  1.00  0.00     0.156 C 
HETATM    3  N1  UNL     1       4.828  66.830  62.895  1.00  0.00    -0.348 N 
ATOM      4  H1  UNL     1       5.197  65.948  62.541  1.00  0.00     0.163 HD
HETATM    5  C3  UNL     1       5.646  67.988  62.973  1.00  0.00     0.249 C 
HETATM    6  O1  UNL     1       6.733  68.050  62.341  1.00  0.00    -0.271 OA
HETATM    7  C4  UNL     1       5.158  69.102  63.825  1.00  0.00     0.284 C 
HETATM    8  C5  UNL     1       6.276  70.025  64.245  1.00  0.00     0.051 C 
HETATM    9  N2  UNL     1       4.485  68.501  64.959  1.00  0.00    -0.019 N 
HETATM   10  C6  UNL     1       4.194  69.488  65.976  1.00  0.00     0.281 C 
HETATM   11  C7  UNL     1       5.231  67.433  65.564  1.00  0.00     0.281 C 
HETATM   12  C8  UNL     1       3.281  67.921  64.413  1.00  0.00     0.209 C 
HETATM   13  N3  UNL     1       2.179  68.320  64.914  1.00  0.00    -0.312 N 
ATOM     14  H3  UNL     1       2.239  69.010  65.662  1.00  0.00     0.169 HD
HETATM   15  C9  UNL     1       0.884  67.901  64.539  1.00  0.00     0.190 C 
HETATM   16  N4  UNL     1       0.466  67.880  63.158  1.00  0.00    -0.063 NA
HETATM   17  N5  UNL     1      -0.009  67.514  65.374  1.00  0.00    -0.356 N 
ATOM     18  H5  UNL     1      -0.908  67.235  64.981  1.00  0.00     0.163 HD
ENDROOT
BRANCH  17  19
HETATM   19  C10 UNL     1       0.115  67.430  66.792  1.00  0.00     0.021 C 
HETATM   20  C11 UNL     1       1.346  66.736  67.273  1.00  0.00     0.037 C 
HETATM   21  C12 UNL     1      -1.116  66.753  67.352  1.00  0.00     0.037 C 
HETATM   22  C13 UNL     1       0.137  68.856  67.348  1.00  0.00     0.037 C 
ENDBRANCH  17  19
TORSDOF 1
ENDMDL
MODEL 2
REMARK VINA RESULT: -6.721178936      1.188      1.424
REMARK  1 active torsions:
REMARK  status: ('A' for Active; 'I' for Inactive)
REMARK       I    between atoms: N3_13  and  C9_15 
REMARK    1  A    between atoms: N5_17  and  C10_19 
ROOT
HETATM    1  C1  UNL     1       2.418  65.176  64.574  1.00  0.00     0.040 C 
HETATM    2  C2  UNL     1       2.958  66.205  63.627  1.00  0.00     0.156 C 
HETATM    3  N1  UNL     1       4.131  65.637  62.993  1.00  0.00    -0.348 N 
ATOM      4  H1  UNL     1       4.279  64.629  62.966  1.00  0.00     0.163 HD
HETATM    5  C3  UNL     1       5.068  66.532  62.412  1.00  0.00     0.249 C 
HETATM    6  O1  UNL     1       5.934  66.115  61.599  1.00  0.00    -0.271 OA
HETATM    7  C4  UNL     1       4.973  67.959  62.809  1.00  0.00     0.284 C 
HETATM    8  C5  UNL     1       6.263  68.703  62.565  1.00  0.00     0.051 C 
HETATM    9  N2  UNL     1       4.579  67.983  64.203  1.00  0.00    -0.019 N 
HETATM   10  C6  UNL     1       4.702  69.314  64.758  1.00  0.00     0.281 C 
HETATM   11  C7  UNL     1       5.333  67.079  65.024  1.00  0.00     0.281 C 
HETATM   12  C8  UNL     1       3.210  67.523  64.211  1.00  0.00     0.209 C 
HETATM   13  N3  UNL     1       2.348  68.310  64.723  1.00  0.00    -0.312 N 
ATOM     14  H3  UNL     1       2.695  69.196  65.087  1.00  0.00     0.169 HD
HETATM   15  C9  UNL     1       0.960  68.078  64.835  1.00  0.00     0.190 C 
HETATM   16  N4  UNL     1       0.172  67.641  63.707  1.00  0.00    -0.063 NA
HETATM   17  N5  UNL     1       0.297  68.233  65.923  1.00  0.00    -0.356 N 
ATOM     18  H5  UNL     1      -0.702  68.033  65.877  1.00  0.00     0.163 HD
ENDROOT
BRANCH  17  19
HETATM   19  C10 UNL     1       0.804  68.654  67.187  1.00  0.00     0.021 C 
HETATM   20  C11 UNL     1       2.162  69.270  67.144  1.00  0.00     0.037 C 
HETATM   21  C12 UNL     1       0.798  67.474  68.134  1.00  0.00     0.037 C 
HETATM   22  C13 UNL     1      -0.162  69.695  67.758  1.00  0.00     0.037 C 
ENDBRANCH  17  19
TORSDOF 1
ENDMDL
MODEL 3
REMARK VINA RESULT: -6.311976693      2.632      5.708
REMARK  1 active torsions:
REMARK  status: ('A' for Active; 'I' for Inactive)
REMARK       I    between atoms: N3_13  and  C9_15 
REMARK    1  A    between atoms: N5_17  and  C10_19 
ROOT
HETATM    1  C1  UNL     1       0.581  69.299  63.553  1.00  0.00     0.040 C 
HETATM    2  C2  UNL     1       0.211  68.089  64.357  1.00  0.00     0.156 C 
HETATM    3  N1  UNL     1      -1.123  68.308  64.880  1.00  0.00    -0.348 N 
ATOM      4  H1  UNL     1      -1.752  68.985  64.451  1.00  0.00     0.163 HD
HETATM    5  C3  UNL     1      -1.524  67.547  66.010  1.00  0.00     0.249 C 
HETATM    6  O1  UNL     1      -2.739  67.461  66.327  1.00  0.00    -0.271 OA
HETATM    7  C4  UNL     1      -0.451  66.873  66.784  1.00  0.00     0.284 C 
HETATM    8  C5  UNL     1      -0.889  66.542  68.189  1.00  0.00     0.051 C 
HETATM    9  N2  UNL     1       0.702  67.750  66.758  1.00  0.00    -0.019 N 
HETATM   10  C6  UNL     1       1.716  67.308  67.690  1.00  0.00     0.281 C 
HETATM   11  C7  UNL     1       0.383  69.119  67.053  1.00  0.00     0.281 C 
HETATM   12  C8  UNL     1       1.172  67.709  65.394  1.00  0.00     0.209 C 
HETATM   13  N3  UNL     1       2.379  67.339  65.218  1.00  0.00    -0.312 N 
ATOM     14  H3  UNL     1       2.914  67.108  66.055  1.00  0.00     0.169 HD
HETATM   15  C9  UNL     1       3.050  67.217  63.982  1.00  0.00     0.190 C 
HETATM   16  N4  UNL     1       2.469  66.498  62.873  1.00  0.00    -0.063 NA
HETATM   17  N5  UNL     1       4.205  67.722  63.746  1.00  0.00    -0.356 N 
ATOM     18  H5  UNL     1       4.586  67.566  62.813  1.00  0.00     0.163 HD
ENDROOT
BRANCH  17  19
HETATM   19  C10 UNL     1       5.016  68.477  64.644  1.00  0.00     0.021 C 
HETATM   20  C11 UNL     1       4.262  69.201  65.709  1.00  0.00     0.037 C 
HETATM   21  C12 UNL     1       5.852  69.452  63.846  1.00  0.00     0.037 C 
HETATM   22  C13 UNL     1       5.982  67.510  65.332  1.00  0.00     0.037 C 
ENDBRANCH  17  19
TORSDOF 1
ENDMDL
MODEL 4
REMARK VINA RESULT: -5.961499862      2.576      5.376
REMARK  1 active torsions:
REMARK  status: ('A' for Active; 'I' for Inactive)
REMARK       I    between atoms: N3_13  and  C9_15 
REMARK    1  A    between atoms: N5_17  and  C10_19 
ROOT
HETATM    1  C1  UNL     1       1.692  66.996  66.413  1.00  0.00     0.040 C 
HETATM    2  C2  UNL     1       1.254  68.108  65.509  1.00  0.00     0.156 C 
HETATM    3  N1  UNL     1      -0.105  67.821  65.097  1.00  0.00    -0.348 N 
ATOM      4  H1  UNL     1      -0.696  67.187  65.634  1.00  0.00     0.163 HD
HETATM    5  C3  UNL     1      -0.587  68.452  63.919  1.00  0.00     0.249 C 
HETATM    6  O1  UNL     1      -1.821  68.491  63.671  1.00  0.00    -0.271 OA
HETATM    7  C4  UNL     1       0.425  69.049  63.013  1.00  0.00     0.284 C 
HETATM    8  C5  UNL     1      -0.103  69.223  61.610  1.00  0.00     0.051 C 
HETATM    9  N2  UNL     1       1.592  68.191  63.060  1.00  0.00    -0.019 N 
HETATM   10  C6  UNL     1       2.540  68.541  62.024  1.00  0.00     0.281 C 
HETATM   11  C7  UNL     1       1.278  66.796  62.933  1.00  0.00     0.281 C 
HETATM   12  C8  UNL     1       2.143  68.384  64.380  1.00  0.00     0.209 C 
HETATM   13  N3  UNL     1       3.353  68.783  64.440  1.00  0.00    -0.312 N 
ATOM     14  H3  UNL     1       3.832  68.928  63.551  1.00  0.00     0.169 HD
HETATM   15  C9  UNL     1       4.095  69.044  65.611  1.00  0.00     0.190 C 
HETATM   16  N4  UNL     1       3.572  69.873  66.671  1.00  0.00    -0.063 NA
HETATM   17  N5  UNL     1       5.271  68.579  65.827  1.00  0.00    -0.356 N 
ATOM     18  H5  UNL     1       5.706  68.839  66.712  1.00  0.00     0.163 HD
ENDROOT
BRANCH  17  19
HETATM   19  C10 UNL     1       6.038  67.740  64.966  1.00  0.00     0.021 C 
HETATM   20  C11 UNL     1       6.190  68.247  63.571  1.00  0.00     0.037 C 
HETATM   21  C12 UNL     1       5.421  66.359  64.953  1.00  0.00     0.037 C 
HETATM   22  C13 UNL     1       7.439  67.603  65.567  1.00  0.00     0.037 C 
ENDBRANCH  17  19
TORSDOF 1
ENDMDL
MODEL 5
REMARK VINA RESULT: -5.525888024      2.319      3.608
REMARK  1 active torsions:
REMARK  status: ('A' for Active; 'I' for Inactive)
REMARK       I    between atoms: N3_13  and  C9_15 
REMARK    1  A    between atoms: N5_17  and  C10_19 
ROOT
HETATM    1  C1  UNL     1       4.234  68.375  64.480  1.00  0.00     0.040 C 
HETATM    2  C2  UNL     1       3.478  67.738  63.353  1.00  0.00     0.156 C 
HETATM    3  N1  UNL     1       3.811  68.463  62.143  1.00  0.00    -0.348 N 
ATOM      4  H1  UNL     1       4.660  69.024  62.083  1.00  0.00     0.163 HD
HETATM    5  C3  UNL     1       2.917  68.364  61.045  1.00  0.00     0.249 C 
HETATM    6  O1  UNL     1       3.280  68.706  59.889  1.00  0.00    -0.271 OA
HETATM    7  C4  UNL     1       1.555  67.845  61.329  1.00  0.00     0.284 C 
HETATM    8  C5  UNL     1       0.562  68.247  60.266  1.00  0.00     0.051 C 
HETATM    9  N2  UNL     1       1.184  68.333  62.642  1.00  0.00    -0.019 N 
HETATM   10  C6  UNL     1      -0.219  68.098  62.910  1.00  0.00     0.281 C 
HETATM   11  C7  UNL     1       1.451  69.732  62.826  1.00  0.00     0.281 C 
HETATM   12  C8  UNL     1       2.034  67.614  63.561  1.00  0.00     0.209 C 
HETATM   13  N3  UNL     1       1.448  66.932  64.465  1.00  0.00    -0.312 N 
ATOM     14  H3  UNL     1       0.428  66.955  64.467  1.00  0.00     0.169 HD
HETATM   15  C9  UNL     1       2.067  66.149  65.462  1.00  0.00     0.190 C 
HETATM   16  N4  UNL     1       3.097  65.190  65.141  1.00  0.00    -0.063 NA
HETATM   17  N5  UNL     1       1.774  66.222  66.709  1.00  0.00    -0.356 N 
ATOM     18  H5  UNL     1       2.292  65.604  67.333  1.00  0.00     0.163 HD
ENDROOT
BRANCH  17  19
HETATM   19  C10 UNL     1       0.803  67.070  67.318  1.00  0.00     0.021 C 
HETATM   20  C11 UNL     1      -0.566  66.978  66.731  1.00  0.00     0.037 C 
HETATM   21  C12 UNL     1       1.298  68.499  67.261  1.00  0.00     0.037 C 
HETATM   22  C13 UNL     1       0.703  66.686  68.796  1.00  0.00     0.037 C 
ENDBRANCH  17  19
TORSDOF 1
ENDMDL
