MODEL 1
REMARK VINA RESULT: -7.777884403      0.000      0.000
REMARK  0 active torsions:
REMARK  status: ('A' for Active; 'I' for Inactive)
REMARK       I    between atoms: N2_11  and  C10_12 
ROOT
HETATM    1  C1  UNL     1       5.296  66.599  62.000  1.00  0.00     0.272 C 
HETATM    2  N1  UNL     1       5.318  67.336  63.252  1.00  0.00    -0.075 N 
HETATM    3  C2  UNL     1       6.583  68.101  63.228  1.00  0.00     0.272 C 
HETATM    4  C3  UNL     1       5.448  66.455  64.349  1.00  0.00     0.236 C 
HETATM    5  C4  UNL     1       4.536  65.283  64.400  1.00  0.00     0.028 C 
HETATM    6  C5  UNL     1       3.085  65.594  64.505  1.00  0.00     0.002 C 
HETATM    7  C6  UNL     1       2.824  66.597  65.572  1.00  0.00     0.010 C 
HETATM    8  C7  UNL     1       2.526  67.979  65.086  1.00  0.00    -0.036 C 
HETATM    9  C8  UNL     1       2.135  68.780  66.343  1.00  0.00     0.029 C 
HETATM   10  C9  UNL     1       0.953  68.211  67.039  1.00  0.00     0.126 C 
HETATM   11  N2  UNL     1      -0.127  67.850  66.144  1.00  0.00    -0.356 N 
HETATM   12  C10 UNL     1      -1.429  67.788  66.680  1.00  0.00     0.183 C 
HETATM   13  N3  UNL     1      -2.035  68.859  67.026  1.00  0.00    -0.374 N 
ATOM     14  H31 UNL     1      -2.977  68.814  67.414  1.00  0.00     0.158 HD
ATOM     15  H32 UNL     1      -1.579  69.764  66.917  1.00  0.00     0.158 HD
HETATM   16  N4  UNL     1      -2.059  66.537  66.831  1.00  0.00    -0.064 NA
HETATM   17  C11 UNL     1       0.074  67.560  64.764  1.00  0.00     0.126 C 
HETATM   18  C12 UNL     1       1.342  68.054  64.172  1.00  0.00     0.029 C 
HETATM   19  C13 UNL     1       3.707  68.714  64.529  1.00  0.00     0.037 C 
HETATM   20  C14 UNL     1       4.249  68.256  63.250  1.00  0.00     0.237 C 
ENDROOT
TORSDOF 0
ENDMDL
MODEL 2
REMARK VINA RESULT: -7.593013243      1.673      2.403
REMARK  0 active torsions:
REMARK  status: ('A' for Active; 'I' for Inactive)
REMARK       I    between atoms: N2_11  and  C10_12 
ROOT
HETATM    1  C1  UNL     1       5.920  67.299  62.231  1.00  0.00     0.272 C 
HETATM    2  N1  UNL     1       4.800  68.209  62.397  1.00  0.00    -0.075 N 
HETATM    3  C2  UNL     1       4.688  68.923  61.106  1.00  0.00     0.272 C 
HETATM    4  C3  UNL     1       5.107  69.214  63.341  1.00  0.00     0.236 C 
HETATM    5  C4  UNL     1       5.680  68.782  64.642  1.00  0.00     0.028 C 
HETATM    6  C5  UNL     1       4.806  67.917  65.480  1.00  0.00     0.002 C 
HETATM    7  C6  UNL     1       3.435  68.482  65.593  1.00  0.00     0.010 C 
HETATM    8  C7  UNL     1       2.395  67.796  64.767  1.00  0.00    -0.036 C 
HETATM    9  C8  UNL     1       1.057  68.444  65.172  1.00  0.00     0.029 C 
HETATM   10  C9  UNL     1       0.758  68.283  66.618  1.00  0.00     0.126 C 
HETATM   11  N2  UNL     1       1.002  66.943  67.113  1.00  0.00    -0.356 N 
HETATM   12  C10 UNL     1       0.310  66.538  68.272  1.00  0.00     0.183 C 
HETATM   13  N3  UNL     1      -0.950  66.324  68.229  1.00  0.00    -0.374 N 
ATOM     14  H31 UNL     1      -1.450  66.030  69.068  1.00  0.00     0.158 HD
ATOM     15  H32 UNL     1      -1.462  66.447  67.356  1.00  0.00     0.158 HD
HETATM   16  N4  UNL     1       1.016  66.368  69.479  1.00  0.00    -0.064 NA
HETATM   17  C11 UNL     1       1.899  66.035  66.483  1.00  0.00     0.126 C 
HETATM   18  C12 UNL     1       2.249  66.338  65.073  1.00  0.00     0.029 C 
HETATM   19  C13 UNL     1       2.499  68.049  63.293  1.00  0.00     0.037 C 
HETATM   20  C14 UNL     1       3.627  67.449  62.581  1.00  0.00     0.237 C 
ENDROOT
TORSDOF 0
ENDMDL
MODEL 3
REMARK VINA RESULT: -7.576321568      1.161      6.119
REMARK  0 active torsions:
REMARK  status: ('A' for Active; 'I' for Inactive)
REMARK       I    between atoms: N2_11  and  C10_12 
ROOT
HETATM    1  C1  UNL     1      -1.038  69.270  66.925  1.00  0.00     0.272 C 
HETATM    2  N1  UNL     1      -0.465  67.935  66.897  1.00  0.00    -0.075 N 
HETATM    3  C2  UNL     1      -1.505  67.056  67.472  1.00  0.00     0.272 C 
HETATM    4  C3  UNL     1       0.625  67.841  67.792  1.00  0.00     0.236 C 
HETATM    5  C4  UNL     1       1.662  68.902  67.725  1.00  0.00     0.028 C 
HETATM    6  C5  UNL     1       2.407  69.002  66.441  1.00  0.00     0.002 C 
HETATM    7  C6  UNL     1       2.891  67.669  65.993  1.00  0.00     0.010 C 
HETATM    8  C7  UNL     1       2.120  67.059  64.866  1.00  0.00    -0.036 C 
HETATM    9  C8  UNL     1       2.897  65.786  64.480  1.00  0.00     0.029 C 
HETATM   10  C9  UNL     1       4.292  66.074  64.056  1.00  0.00     0.126 C 
HETATM   11  N2  UNL     1       4.398  67.196  63.145  1.00  0.00    -0.356 N 
HETATM   12  C10 UNL     1       5.528  67.251  62.304  1.00  0.00     0.183 C 
HETATM   13  N3  UNL     1       5.657  66.420  61.342  1.00  0.00    -0.374 N 
ATOM     14  H31 UNL     1       6.474  66.461  60.733  1.00  0.00     0.158 HD
ATOM     15  H32 UNL     1       4.942  65.711  61.177  1.00  0.00     0.158 HD
HETATM   16  N4  UNL     1       6.516  68.230  62.532  1.00  0.00    -0.064 NA
HETATM   17  C11 UNL     1       3.420  68.228  63.068  1.00  0.00     0.126 C 
HETATM   18  C12 UNL     1       2.086  67.904  63.632  1.00  0.00     0.029 C 
HETATM   19  C13 UNL     1       0.756  66.562  65.240  1.00  0.00     0.037 C 
HETATM   20  C14 UNL     1      -0.267  67.560  65.553  1.00  0.00     0.237 C 
ENDROOT
TORSDOF 0
ENDMDL
MODEL 4
REMARK VINA RESULT: -7.107955098      0.996      1.049
REMARK  0 active torsions:
REMARK  status: ('A' for Active; 'I' for Inactive)
REMARK       I    between atoms: N2_11  and  C10_12 
ROOT
HETATM    1  C1  UNL     1       5.423  66.525  62.003  1.00  0.00     0.272 C 
HETATM    2  N1  UNL     1       5.168  67.688  62.835  1.00  0.00    -0.075 N 
HETATM    3  C2  UNL     1       5.936  68.786  62.209  1.00  0.00     0.272 C 
HETATM    4  C3  UNL     1       5.746  67.525  64.113  1.00  0.00     0.236 C 
HETATM    5  C4  UNL     1       5.481  66.250  64.829  1.00  0.00     0.028 C 
HETATM    6  C5  UNL     1       4.057  65.980  65.167  1.00  0.00     0.002 C 
HETATM    7  C6  UNL     1       3.420  67.163  65.804  1.00  0.00     0.010 C 
HETATM    8  C7  UNL     1       2.493  67.938  64.922  1.00  0.00    -0.036 C 
HETATM    9  C8  UNL     1       1.844  68.994  65.836  1.00  0.00     0.029 C 
HETATM   10  C9  UNL     1       1.095  68.389  66.967  1.00  0.00     0.126 C 
HETATM   11  N2  UNL     1       0.258  67.273  66.574  1.00  0.00    -0.356 N 
HETATM   12  C10 UNL     1      -0.840  66.956  67.400  1.00  0.00     0.183 C 
HETATM   13  N3  UNL     1      -1.852  67.734  67.454  1.00  0.00    -0.374 N 
ATOM     14  H31 UNL     1      -2.646  67.504  68.052  1.00  0.00     0.158 HD
ATOM     15  H32 UNL     1      -1.871  68.591  66.901  1.00  0.00     0.158 HD
HETATM   16  N4  UNL     1      -0.814  65.773  68.165  1.00  0.00    -0.064 NA
HETATM   17  C11 UNL     1       0.497  66.498  65.404  1.00  0.00     0.126 C 
HETATM   18  C12 UNL     1       1.363  67.125  64.373  1.00  0.00     0.029 C 
HETATM   19  C13 UNL     1       3.173  68.740  63.853  1.00  0.00     0.037 C 
HETATM   20  C14 UNL     1       3.798  68.008  62.751  1.00  0.00     0.237 C 
ENDROOT
TORSDOF 0
ENDMDL
MODEL 5
REMARK VINA RESULT: -7.019142504      1.141      2.328
REMARK  0 active torsions:
REMARK  status: ('A' for Active; 'I' for Inactive)
REMARK       I    between atoms: N2_11  and  C10_12 
ROOT
HETATM    1  C1  UNL     1       6.607  67.330  64.826  1.00  0.00     0.272 C 
HETATM    2  N1  UNL     1       5.604  67.787  63.881  1.00  0.00    -0.075 N 
HETATM    3  C2  UNL     1       6.276  67.768  62.564  1.00  0.00     0.272 C 
HETATM    4  C3  UNL     1       5.287  69.146  64.105  1.00  0.00     0.236 C 
HETATM    5  C4  UNL     1       4.978  69.557  65.500  1.00  0.00     0.028 C 
HETATM    6  C5  UNL     1       3.781  68.921  66.113  1.00  0.00     0.002 C 
HETATM    7  C6  UNL     1       2.608  68.985  65.201  1.00  0.00     0.010 C 
HETATM    8  C7  UNL     1       2.263  67.700  64.519  1.00  0.00    -0.036 C 
HETATM    9  C8  UNL     1       0.943  67.973  63.773  1.00  0.00     0.029 C 
HETATM   10  C9  UNL     1      -0.155  68.385  64.685  1.00  0.00     0.126 C 
HETATM   11  N2  UNL     1      -0.246  67.573  65.882  1.00  0.00    -0.356 N 
HETATM   12  C10 UNL     1      -1.489  67.522  66.544  1.00  0.00     0.183 C 
HETATM   13  N3  UNL     1      -2.477  66.906  66.016  1.00  0.00    -0.374 N 
ATOM     14  H31 UNL     1      -3.376  66.869  66.496  1.00  0.00     0.158 HD
ATOM     15  H32 UNL     1      -2.371  66.449  65.111  1.00  0.00     0.158 HD
HETATM   16  N4  UNL     1      -1.636  68.154  67.795  1.00  0.00    -0.064 NA
HETATM   17  C11 UNL     1       0.854  66.836  66.405  1.00  0.00     0.126 C 
HETATM   18  C12 UNL     1       1.971  66.576  65.463  1.00  0.00     0.029 C 
HETATM   19  C13 UNL     1       3.220  67.288  63.441  1.00  0.00     0.037 C 
HETATM   20  C14 UNL     1       4.553  66.847  63.851  1.00  0.00     0.237 C 
ENDROOT
TORSDOF 0
ENDMDL
