MODEL 1
REMARK VINA RESULT: -7.857657931      0.000      0.000
REMARK  0 active torsions:
REMARK  status: ('A' for Active; 'I' for Inactive)
ROOT
HETATM    1  C1  UNL     1      -2.641  67.588  66.474  1.00  0.00     0.003 C 
HETATM    2  C2  UNL     1      -1.941  68.846  66.049  1.00  0.00     0.028 C 
HETATM    3  C3  UNL     1      -0.541  68.946  66.586  1.00  0.00     0.237 C 
HETATM    4  N1  UNL     1       0.268  67.803  66.259  1.00  0.00    -0.064 N 
HETATM    5  C4  UNL     1      -0.371  66.549  66.564  1.00  0.00     0.237 C 
HETATM    6  C5  UNL     1      -1.699  66.713  67.255  1.00  0.00     0.028 C 
HETATM    7  C6  UNL     1       0.552  67.831  64.850  1.00  0.00     0.265 C 
HETATM    8  C7  UNL     1       1.972  68.335  64.563  1.00  0.00     0.265 C 
HETATM    9  N2  UNL     1       2.971  67.433  65.073  1.00  0.00    -0.062 N 
HETATM   10  C8  UNL     1       4.184  68.153  65.310  1.00  0.00     0.237 C 
HETATM   11  C9  UNL     1       4.545  69.149  64.271  1.00  0.00     0.029 C 
HETATM   12  C10 UNL     1       5.722  68.710  63.403  1.00  0.00     0.029 C 
HETATM   13  C11 UNL     1       5.239  68.110  62.101  1.00  0.00     0.232 C 
HETATM   14  N3  UNL     1       4.096  67.261  62.275  1.00  0.00    -0.074 N 
ATOM     15  H31 UNL     1       3.841  66.807  61.397  1.00  0.00     0.277 HD
ATOM     16  H32 UNL     1       3.251  67.812  62.429  1.00  0.00     0.277 HD
HETATM   17  C12 UNL     1       4.277  66.286  63.329  1.00  0.00     0.260 C 
HETATM   18  C13 UNL     1       3.076  66.311  64.214  1.00  0.00     0.265 C 
HETATM   19  C14 UNL     1       2.521  66.932  66.384  1.00  0.00     0.265 C 
HETATM   20  C15 UNL     1       1.515  67.881  66.996  1.00  0.00     0.265 C 
ENDROOT
TORSDOF 0
ENDMDL
MODEL 2
REMARK VINA RESULT: -7.449988610      1.139      5.957
REMARK  0 active torsions:
REMARK  status: ('A' for Active; 'I' for Inactive)
ROOT
HETATM    1  C1  UNL     1       5.192  66.926  61.837  1.00  0.00     0.003 C 
HETATM    2  C2  UNL     1       4.838  65.813  62.781  1.00  0.00     0.028 C 
HETATM    3  C3  UNL     1       4.675  66.279  64.199  1.00  0.00     0.237 C 
HETATM    4  N1  UNL     1       3.724  67.349  64.332  1.00  0.00    -0.064 N 
HETATM    5  C4  UNL     1       3.949  68.426  63.401  1.00  0.00     0.237 C 
HETATM    6  C5  UNL     1       5.191  68.240  62.569  1.00  0.00     0.028 C 
HETATM    7  C6  UNL     1       2.407  66.824  64.100  1.00  0.00     0.265 C 
HETATM    8  C7  UNL     1       1.640  66.605  65.411  1.00  0.00     0.265 C 
HETATM    9  N2  UNL     1       1.376  67.848  66.088  1.00  0.00    -0.062 N 
HETATM   10  C8  UNL     1       1.205  67.601  67.486  1.00  0.00     0.237 C 
HETATM   11  C9  UNL     1       0.419  66.389  67.826  1.00  0.00     0.029 C 
HETATM   12  C10 UNL     1      -0.975  66.709  68.361  1.00  0.00     0.029 C 
HETATM   13  C11 UNL     1      -2.013  66.596  67.267  1.00  0.00     0.232 C 
HETATM   14  N3  UNL     1      -1.561  67.140  66.019  1.00  0.00    -0.074 N 
ATOM     15  H31 UNL     1      -2.306  67.124  65.322  1.00  0.00     0.277 HD
ATOM     16  H32 UNL     1      -0.896  66.513  65.565  1.00  0.00     0.277 HD
HETATM   17  C12 UNL     1      -1.007  68.470  66.155  1.00  0.00     0.260 C 
HETATM   18  C13 UNL     1       0.304  68.516  65.444  1.00  0.00     0.265 C 
HETATM   19  C14 UNL     1       2.562  68.711  65.959  1.00  0.00     0.265 C 
HETATM   20  C15 UNL     1       3.794  67.879  65.681  1.00  0.00     0.265 C 
ENDROOT
TORSDOF 0
ENDMDL
MODEL 3
REMARK VINA RESULT: -7.159825454      0.975      5.966
REMARK  0 active torsions:
REMARK  status: ('A' for Active; 'I' for Inactive)
ROOT
HETATM    1  C1  UNL     1       5.138  68.760  62.057  1.00  0.00     0.003 C 
HETATM    2  C2  UNL     1       4.141  67.645  61.932  1.00  0.00     0.028 C 
HETATM    3  C3  UNL     1       3.850  66.971  63.243  1.00  0.00     0.237 C 
HETATM    4  N1  UNL     1       3.426  67.891  64.264  1.00  0.00    -0.064 N 
HETATM    5  C4  UNL     1       4.292  69.035  64.391  1.00  0.00     0.237 C 
HETATM    6  C5  UNL     1       5.505  68.962  63.501  1.00  0.00     0.028 C 
HETATM    7  C6  UNL     1       2.107  68.361  63.939  1.00  0.00     0.265 C 
HETATM    8  C7  UNL     1       1.029  67.661  64.777  1.00  0.00     0.265 C 
HETATM    9  N2  UNL     1       1.149  67.981  66.175  1.00  0.00    -0.062 N 
HETATM   10  C8  UNL     1       0.561  66.936  66.954  1.00  0.00     0.237 C 
HETATM   11  C9  UNL     1      -0.712  66.387  66.425  1.00  0.00     0.029 C 
HETATM   12  C10 UNL     1      -1.932  66.812  67.239  1.00  0.00     0.029 C 
HETATM   13  C11 UNL     1      -2.628  67.991  66.595  1.00  0.00     0.232 C 
HETATM   14  N3  UNL     1      -1.706  68.965  66.086  1.00  0.00    -0.074 N 
ATOM     15  H31 UNL     1      -2.200  69.784  65.730  1.00  0.00     0.277 HD
ATOM     16  H32 UNL     1      -1.274  68.643  65.221  1.00  0.00     0.277 HD
HETATM   17  C12 UNL     1      -0.702  69.347  67.056  1.00  0.00     0.260 C 
HETATM   18  C13 UNL     1       0.638  69.284  66.404  1.00  0.00     0.265 C 
HETATM   19  C14 UNL     1       2.579  68.011  66.527  1.00  0.00     0.265 C 
HETATM   20  C15 UNL     1       3.383  67.197  65.537  1.00  0.00     0.265 C 
ENDROOT
TORSDOF 0
ENDMDL
MODEL 4
REMARK VINA RESULT: -7.000318328      1.209      1.512
REMARK  0 active torsions:
REMARK  status: ('A' for Active; 'I' for Inactive)
ROOT
HETATM    1  C1  UNL     1      -1.360  66.172  67.991  1.00  0.00     0.003 C 
HETATM    2  C2  UNL     1      -1.528  66.875  66.675  1.00  0.00     0.028 C 
HETATM    3  C3  UNL     1      -0.488  67.933  66.440  1.00  0.00     0.237 C 
HETATM    4  N1  UNL     1       0.855  67.434  66.558  1.00  0.00    -0.064 N 
HETATM    5  C4  UNL     1       1.076  66.676  67.762  1.00  0.00     0.237 C 
HETATM    6  C5  UNL     1      -0.118  66.663  68.682  1.00  0.00     0.028 C 
HETATM    7  C6  UNL     1       1.127  66.580  65.434  1.00  0.00     0.265 C 
HETATM    8  C7  UNL     1       1.979  67.286  64.372  1.00  0.00     0.265 C 
HETATM    9  N2  UNL     1       3.295  67.596  64.864  1.00  0.00    -0.062 N 
HETATM   10  C8  UNL     1       3.831  68.698  64.128  1.00  0.00     0.237 C 
HETATM   11  C9  UNL     1       3.572  68.672  62.666  1.00  0.00     0.029 C 
HETATM   12  C10 UNL     1       4.815  68.341  61.844  1.00  0.00     0.029 C 
HETATM   13  C11 UNL     1       4.841  66.876  61.468  1.00  0.00     0.232 C 
HETATM   14  N3  UNL     1       4.421  66.024  62.543  1.00  0.00    -0.074 N 
ATOM     15  H31 UNL     1       4.524  65.040  62.291  1.00  0.00     0.277 HD
ATOM     16  H32 UNL     1       3.409  66.059  62.664  1.00  0.00     0.277 HD
HETATM   17  C12 UNL     1       5.101  66.313  63.787  1.00  0.00     0.260 C 
HETATM   18  C13 UNL     1       4.084  66.418  64.874  1.00  0.00     0.265 C 
HETATM   19  C14 UNL     1       3.177  68.046  66.262  1.00  0.00     0.265 C 
HETATM   20  C15 UNL     1       1.778  68.553  66.537  1.00  0.00     0.265 C 
ENDROOT
TORSDOF 0
ENDMDL
MODEL 5
REMARK VINA RESULT: -6.721681027      1.804      5.649
REMARK  0 active torsions:
REMARK  status: ('A' for Active; 'I' for Inactive)
ROOT
HETATM    1  C1  UNL     1       4.671  63.167  63.345  1.00  0.00     0.003 C 
HETATM    2  C2  UNL     1       3.927  63.149  64.649  1.00  0.00     0.028 C 
HETATM    3  C3  UNL     1       3.990  64.462  65.376  1.00  0.00     0.237 C 
HETATM    4  N1  UNL     1       3.541  65.569  64.575  1.00  0.00    -0.064 N 
HETATM    5  C4  UNL     1       4.152  65.609  63.271  1.00  0.00     0.237 C 
HETATM    6  C5  UNL     1       5.203  64.548  63.075  1.00  0.00     0.028 C 
HETATM    7  C6  UNL     1       2.119  65.461  64.399  1.00  0.00     0.265 C 
HETATM    8  C7  UNL     1       1.355  66.422  65.320  1.00  0.00     0.265 C 
HETATM    9  N2  UNL     1       1.616  67.798  64.988  1.00  0.00    -0.062 N 
HETATM   10  C8  UNL     1       1.390  68.616  66.139  1.00  0.00     0.237 C 
HETATM   11  C9  UNL     1       0.197  68.260  66.947  1.00  0.00     0.029 C 
HETATM   12  C10 UNL     1      -0.946  69.262  66.800  1.00  0.00     0.029 C 
HETATM   13  C11 UNL     1      -1.967  68.773  65.797  1.00  0.00     0.232 C 
HETATM   14  N3  UNL     1      -1.362  68.171  64.643  1.00  0.00    -0.074 N 
ATOM     15  H31 UNL     1      -2.068  67.923  63.948  1.00  0.00     0.277 HD
ATOM     16  H32 UNL     1      -1.008  67.239  64.860  1.00  0.00     0.277 HD
HETATM   17  C12 UNL     1      -0.326  68.995  64.059  1.00  0.00     0.260 C 
HETATM   18  C13 UNL     1       0.881  68.150  63.827  1.00  0.00     0.265 C 
HETATM   19  C14 UNL     1       3.043  67.935  64.652  1.00  0.00     0.265 C 
HETATM   20  C15 UNL     1       3.842  66.807  65.268  1.00  0.00     0.265 C 
ENDROOT
TORSDOF 0
ENDMDL
