MODEL 1
REMARK VINA RESULT: -10.834019177      0.000      0.000
REMARK  0 active torsions:
REMARK  status: ('A' for Active; 'I' for Inactive)
REMARK       I    between atoms: C1_4  and  N3_6 
ROOT
HETATM    1  N1  UNL     1       4.157  66.702  61.585  1.00  0.00    -0.372 N 
ATOM      2  H11 UNL     1       4.014  66.278  62.501  1.00  0.00     0.158 HD
ATOM      3  H12 UNL     1       4.780  66.280  60.897  1.00  0.00     0.158 HD
HETATM    4  C1  UNL     1       3.540  67.805  61.336  1.00  0.00     0.204 C 
HETATM    5  N2  UNL     1       3.739  68.395  60.061  1.00  0.00    -0.062 NA
HETATM    6  N3  UNL     1       2.701  68.373  62.262  1.00  0.00    -0.248 N 
HETATM    7  C2  UNL     1       1.326  68.648  61.625  1.00  0.00     0.237 C 
HETATM    8  C3  UNL     1       0.475  68.556  62.739  1.00  0.00    -0.133 C 
HETATM    9  C4  UNL     1       0.149  68.431  63.690  1.00  0.00     0.065 C 
HETATM   10  C5  UNL     1       0.233  68.188  65.050  1.00  0.00    -0.016 A 
HETATM   11  C6  UNL     1      -0.745  67.871  65.788  1.00  0.00     0.013 A 
HETATM   12  C7  UNL     1      -0.498  67.455  67.119  1.00  0.00     0.001 A 
HETATM   13  C8  UNL     1       0.799  67.409  67.562  1.00  0.00     0.001 A 
HETATM   14  C9  UNL     1       1.918  67.757  66.766  1.00  0.00     0.014 A 
HETATM   15  C10 UNL     1       1.644  68.142  65.544  1.00  0.00     0.003 A 
HETATM   16  C11 UNL     1       2.865  68.549  64.841  1.00  0.00     0.067 A 
HETATM   17  C12 UNL     1       3.677  68.903  65.897  1.00  0.00     0.032 A 
HETATM   18  C13 UNL     1       4.956  69.306  65.609  1.00  0.00     0.004 A 
HETATM   19  C14 UNL     1       5.348  69.335  64.265  1.00  0.00     0.019 A 
HETATM   20  C15 UNL     1       4.513  68.984  63.262  1.00  0.00     0.117 A 
HETATM   21  N4  UNL     1       3.232  68.578  63.521  1.00  0.00    -0.262 N 
ENDROOT
TORSDOF 0
ENDMDL
MODEL 2
REMARK VINA RESULT: -10.254240292      2.119      5.476
REMARK  0 active torsions:
REMARK  status: ('A' for Active; 'I' for Inactive)
REMARK       I    between atoms: C1_4  and  N3_6 
ROOT
HETATM    1  N1  UNL     1       0.044  66.338  66.051  1.00  0.00    -0.372 N 
ATOM      2  H11 UNL     1       0.656  65.954  65.332  1.00  0.00     0.158 HD
ATOM      3  H12 UNL     1      -0.693  65.774  66.476  1.00  0.00     0.158 HD
HETATM    4  C1  UNL     1       0.218  67.569  66.387  1.00  0.00     0.204 C 
HETATM    5  N2  UNL     1      -0.634  68.102  67.389  1.00  0.00    -0.062 NA
HETATM    6  N3  UNL     1       1.209  68.326  65.817  1.00  0.00    -0.248 N 
HETATM    7  C2  UNL     1       2.078  68.968  66.914  1.00  0.00     0.237 C 
HETATM    8  C3  UNL     1       3.315  69.091  66.260  1.00  0.00    -0.133 C 
HETATM    9  C4  UNL     1       4.032  69.044  65.546  1.00  0.00     0.065 C 
HETATM   10  C5  UNL     1       4.591  68.768  64.310  1.00  0.00    -0.016 A 
HETATM   11  C6  UNL     1       5.834  68.713  64.077  1.00  0.00     0.013 A 
HETATM   12  C7  UNL     1       6.278  68.227  62.823  1.00  0.00     0.001 A 
HETATM   13  C8  UNL     1       5.342  67.831  61.903  1.00  0.00     0.001 A 
HETATM   14  C9  UNL     1       3.944  67.879  62.129  1.00  0.00     0.014 A 
HETATM   15  C10 UNL     1       3.576  68.340  63.299  1.00  0.00     0.003 A 
HETATM   16  C11 UNL     1       2.115  68.416  63.391  1.00  0.00     0.067 A 
HETATM   17  C12 UNL     1       1.767  68.525  62.062  1.00  0.00     0.032 A 
HETATM   18  C13 UNL     1       0.431  68.576  61.756  1.00  0.00     0.004 A 
HETATM   19  C14 UNL     1      -0.487  68.518  62.812  1.00  0.00     0.019 A 
HETATM   20  C15 UNL     1      -0.097  68.417  64.102  1.00  0.00     0.117 A 
HETATM   21  N4  UNL     1       1.228  68.364  64.436  1.00  0.00    -0.262 N 
ENDROOT
TORSDOF 0
ENDMDL
MODEL 3
REMARK VINA RESULT: -10.151872962      1.303      4.193
REMARK  0 active torsions:
REMARK  status: ('A' for Active; 'I' for Inactive)
REMARK       I    between atoms: C1_4  and  N3_6 
ROOT
HETATM    1  N1  UNL     1       0.547  69.940  61.331  1.00  0.00    -0.372 N 
ATOM      2  H11 UNL     1       0.855  70.459  62.153  1.00  0.00     0.158 HD
ATOM      3  H12 UNL     1      -0.234  70.266  60.761  1.00  0.00     0.158 HD
HETATM    4  C1  UNL     1       1.164  68.844  61.052  1.00  0.00     0.204 C 
HETATM    5  N2  UNL     1       0.734  68.123  59.908  1.00  0.00    -0.062 NA
HETATM    6  N3  UNL     1       2.214  68.407  61.818  1.00  0.00    -0.248 N 
HETATM    7  C2  UNL     1       3.436  68.127  60.923  1.00  0.00     0.237 C 
HETATM    8  C3  UNL     1       4.498  68.364  61.812  1.00  0.00    -0.133 C 
HETATM    9  C4  UNL     1       5.011  68.597  62.654  1.00  0.00     0.065 C 
HETATM   10  C5  UNL     1       5.205  68.970  63.972  1.00  0.00    -0.016 A 
HETATM   11  C6  UNL     1       6.297  69.400  64.448  1.00  0.00     0.013 A 
HETATM   12  C7  UNL     1       6.314  69.935  65.758  1.00  0.00     0.001 A 
HETATM   13  C8  UNL     1       5.142  69.971  66.468  1.00  0.00     0.001 A 
HETATM   14  C9  UNL     1       3.902  69.500  65.970  1.00  0.00     0.014 A 
HETATM   15  C10 UNL     1       3.932  69.007  64.756  1.00  0.00     0.003 A 
HETATM   16  C11 UNL     1       2.617  68.482  64.376  1.00  0.00     0.067 A 
HETATM   17  C12 UNL     1       2.072  68.202  65.611  1.00  0.00     0.032 A 
HETATM   18  C13 UNL     1       0.789  67.720  65.646  1.00  0.00     0.004 A 
HETATM   19  C14 UNL     1       0.121  67.541  64.428  1.00  0.00     0.019 A 
HETATM   20  C15 UNL     1       0.699  67.825  63.240  1.00  0.00     0.117 A 
HETATM   21  N4  UNL     1       1.978  68.307  63.176  1.00  0.00    -0.262 N 
ENDROOT
TORSDOF 0
ENDMDL
MODEL 4
REMARK VINA RESULT: -9.692487655      2.347      5.371
REMARK  0 active torsions:
REMARK  status: ('A' for Active; 'I' for Inactive)
REMARK       I    between atoms: C1_4  and  N3_6 
ROOT
HETATM    1  N1  UNL     1      -0.407  66.235  66.307  1.00  0.00    -0.372 N 
ATOM      2  H11 UNL     1       0.421  65.932  65.795  1.00  0.00     0.158 HD
ATOM      3  H12 UNL     1      -1.153  65.580  66.542  1.00  0.00     0.158 HD
HETATM    4  C1  UNL     1      -0.488  67.480  66.626  1.00  0.00     0.204 C 
HETATM    5  N2  UNL     1      -1.641  67.900  67.339  1.00  0.00    -0.062 NA
HETATM    6  N3  UNL     1       0.516  68.360  66.310  1.00  0.00    -0.248 N 
HETATM    7  C2  UNL     1       0.966  69.119  67.572  1.00  0.00     0.237 C 
HETATM    8  C3  UNL     1       2.308  69.402  67.269  1.00  0.00    -0.133 C 
HETATM    9  C4  UNL     1       3.192  69.447  66.775  1.00  0.00     0.065 C 
HETATM   10  C5  UNL     1       4.094  69.241  65.747  1.00  0.00    -0.016 A 
HETATM   11  C6  UNL     1       5.351  69.351  65.858  1.00  0.00     0.013 A 
HETATM   12  C7  UNL     1       6.176  68.922  64.790  1.00  0.00     0.001 A 
HETATM   13  C8  UNL     1       5.582  68.398  63.671  1.00  0.00     0.001 A 
HETATM   14  C9  UNL     1       4.181  68.260  63.512  1.00  0.00     0.014 A 
HETATM   15  C10 UNL     1       3.455  68.675  64.519  1.00  0.00     0.003 A 
HETATM   16  C11 UNL     1       2.026  68.556  64.214  1.00  0.00     0.067 A 
HETATM   17  C12 UNL     1       2.040  68.609  62.837  1.00  0.00     0.032 A 
HETATM   18  C13 UNL     1       0.842  68.479  62.183  1.00  0.00     0.004 A 
HETATM   19  C14 UNL     1      -0.312  68.305  62.955  1.00  0.00     0.019 A 
HETATM   20  C15 UNL     1      -0.278  68.265  64.306  1.00  0.00     0.117 A 
HETATM   21  N4  UNL     1       0.904  68.392  64.985  1.00  0.00    -0.262 N 
ENDROOT
TORSDOF 0
ENDMDL
MODEL 5
REMARK VINA RESULT: -9.499356385      2.187      3.283
REMARK  0 active torsions:
REMARK  status: ('A' for Active; 'I' for Inactive)
REMARK       I    between atoms: C1_4  and  N3_6 
ROOT
HETATM    1  N1  UNL     1       4.525  67.908  61.496  1.00  0.00    -0.372 N 
ATOM      2  H11 UNL     1       3.550  67.718  61.728  1.00  0.00     0.158 HD
ATOM      3  H12 UNL     1       4.838  67.964  60.527  1.00  0.00     0.158 HD
HETATM    4  C1  UNL     1       5.353  68.050  62.472  1.00  0.00     0.204 C 
HETATM    5  N2  UNL     1       6.709  68.315  62.149  1.00  0.00    -0.062 NA
HETATM    6  N3  UNL     1       4.932  67.976  63.776  1.00  0.00    -0.248 N 
HETATM    7  C2  UNL     1       5.389  69.227  64.548  1.00  0.00     0.237 C 
HETATM    8  C3  UNL     1       4.390  69.335  65.530  1.00  0.00    -0.133 C 
HETATM    9  C4  UNL     1       3.563  69.143  66.083  1.00  0.00     0.065 C 
HETATM   10  C5  UNL     1       2.415  68.480  66.479  1.00  0.00    -0.016 A 
HETATM   11  C6  UNL     1       1.524  68.968  67.235  1.00  0.00     0.013 A 
HETATM   12  C7  UNL     1       0.306  68.268  67.406  1.00  0.00     0.001 A 
HETATM   13  C8  UNL     1       0.132  67.081  66.742  1.00  0.00     0.001 A 
HETATM   14  C9  UNL     1       1.106  66.503  65.889  1.00  0.00     0.014 A 
HETATM   15  C10 UNL     1       2.220  67.180  65.764  1.00  0.00     0.003 A 
HETATM   16  C11 UNL     1       3.178  66.455  64.925  1.00  0.00     0.067 A 
HETATM   17  C12 UNL     1       2.752  65.155  65.093  1.00  0.00     0.032 A 
HETATM   18  C13 UNL     1       3.411  64.174  64.398  1.00  0.00     0.004 A 
HETATM   19  C14 UNL     1       4.472  64.557  63.569  1.00  0.00     0.019 A 
HETATM   20  C15 UNL     1       4.858  65.846  63.440  1.00  0.00     0.117 A 
HETATM   21  N4  UNL     1       4.218  66.845  64.122  1.00  0.00    -0.262 N 
ENDROOT
TORSDOF 0
ENDMDL
