MODEL 1
REMARK VINA RESULT: -5.276631573      0.000      0.000
REMARK  7 active torsions:
REMARK  status: ('A' for Active; 'I' for Inactive)
REMARK    1  A    between atoms: C2_5  and  N3_6 
REMARK    2  A    between atoms: C4_12  and  C5_13 
REMARK    3  A    between atoms: C5_13  and  C6_14 
REMARK    4  A    between atoms: C6_14  and  C7_15 
REMARK    5  A    between atoms: C7_15  and  C8_16 
REMARK    6  A    between atoms: C8_16  and  O1_17 
REMARK    7  A    between atoms: O1_17  and  N5_18 
ROOT
HETATM    1  C1  UNL     1      87.832  66.942   0.821  1.00  0.00     0.178 C 
HETATM    2  N1  UNL     1      88.344  66.488   2.090  1.00  0.00    -0.285 N 
HETATM    3  N2  UNL     1      89.457  65.745   2.143  1.00  0.00    -0.130 N 
ATOM      4  H2  UNL     1      89.933  65.510   1.272  1.00  0.00     0.206 HD
HETATM    5  C2  UNL     1      89.967  65.301   3.294  1.00  0.00     0.690 A 
HETATM    6  N4  UNL     1      89.334  65.614   4.439  1.00  0.00    -0.199 N 
ATOM      7  H4  UNL     1      89.700  65.288   5.333  1.00  0.00     0.183 HD
HETATM    8  C3  UNL     1      88.204  66.366   4.400  1.00  0.00     0.132 A 
HETATM    9  C4  UNL     1      87.681  66.823   3.208  1.00  0.00     0.044 A 
ENDROOT
BRANCH   9  10
HETATM   10  C5  UNL     1      86.453  67.644   3.150  1.00  0.00     0.060 C 
BRANCH  10  11
HETATM   11  C6  UNL     1      85.252  66.950   3.761  1.00  0.00     0.008 C 
BRANCH  11  12
HETATM   12  C7  UNL     1      84.746  65.960   2.738  1.00  0.00     0.029 C 
BRANCH  12  13
HETATM   13  C8  UNL     1      83.272  65.718   2.845  1.00  0.00     0.200 C 
BRANCH  13  14
HETATM   14  O1  UNL     1      82.522  66.871   2.624  1.00  0.00    -0.287 OA
BRANCH  14  15
HETATM   15  N5  UNL     1      82.579  67.217   1.333  1.00  0.00    -0.311 N 
ATOM     16  H52 UNL     1      81.762  67.306   0.729  1.00  0.00     0.184 HD
ATOM     17  H51 UNL     1      83.547  67.374   1.054  1.00  0.00     0.184 HD
ENDBRANCH  14  15
ENDBRANCH  13  14
ENDBRANCH  12  13
ENDBRANCH  11  12
ENDBRANCH  10  11
ENDBRANCH   9  10
BRANCH   5  18
HETATM   18  N3  UNL     1      91.039  64.584   3.366  1.00  0.00    -0.233 N 
ATOM     19  H32 UNL     1      91.919  65.001   3.064  1.00  0.00     0.174 HD
ATOM     20  H31 UNL     1      91.049  63.622   3.709  1.00  0.00     0.174 HD
ENDBRANCH   5  18
TORSDOF 7
ENDMDL
MODEL 2
REMARK VINA RESULT: -5.110379359      2.437      3.095
REMARK  7 active torsions:
REMARK  status: ('A' for Active; 'I' for Inactive)
REMARK    1  A    between atoms: C2_5  and  N3_6 
REMARK    2  A    between atoms: C4_12  and  C5_13 
REMARK    3  A    between atoms: C5_13  and  C6_14 
REMARK    4  A    between atoms: C6_14  and  C7_15 
REMARK    5  A    between atoms: C7_15  and  C8_16 
REMARK    6  A    between atoms: C8_16  and  O1_17 
REMARK    7  A    between atoms: O1_17  and  N5_18 
ROOT
HETATM    1  C1  UNL     1      89.922  64.963   3.340  1.00  0.00     0.178 C 
HETATM    2  N1  UNL     1      89.002  64.305   2.446  1.00  0.00    -0.285 N 
HETATM    3  N2  UNL     1      89.128  62.997   2.187  1.00  0.00    -0.130 N 
ATOM      4  H2  UNL     1      89.885  62.479   2.635  1.00  0.00     0.206 HD
HETATM    5  C2  UNL     1      88.301  62.346   1.366  1.00  0.00     0.690 A 
HETATM    6  N4  UNL     1      87.306  63.037   0.780  1.00  0.00    -0.199 N 
ATOM      7  H4  UNL     1      86.659  62.565   0.148  1.00  0.00     0.183 HD
HETATM    8  C3  UNL     1      87.166  64.363   1.033  1.00  0.00     0.132 A 
HETATM    9  C4  UNL     1      88.024  65.031   1.882  1.00  0.00     0.044 A 
ENDROOT
BRANCH   9  10
HETATM   10  C5  UNL     1      87.883  66.475   2.169  1.00  0.00     0.060 C 
BRANCH  10  11
HETATM   11  C6  UNL     1      86.446  66.951   2.096  1.00  0.00     0.008 C 
BRANCH  11  12
HETATM   12  C7  UNL     1      85.834  66.717   3.458  1.00  0.00     0.029 C 
BRANCH  12  13
HETATM   13  C8  UNL     1      84.680  67.630   3.739  1.00  0.00     0.200 C 
BRANCH  13  14
HETATM   14  O1  UNL     1      83.464  66.953   3.805  1.00  0.00    -0.287 OA
BRANCH  14  15
HETATM   15  N5  UNL     1      82.800  67.087   2.652  1.00  0.00    -0.311 N 
ATOM     16  H52 UNL     1      82.625  66.322   2.001  1.00  0.00     0.184 HD
ATOM     17  H51 UNL     1      82.502  68.055   2.529  1.00  0.00     0.184 HD
ENDBRANCH  14  15
ENDBRANCH  13  14
ENDBRANCH  12  13
ENDBRANCH  11  12
ENDBRANCH  10  11
ENDBRANCH   9  10
BRANCH   5  18
HETATM   18  N3  UNL     1      88.407  61.086   1.104  1.00  0.00    -0.233 N 
ATOM     19  H32 UNL     1      87.702  60.454   1.484  1.00  0.00     0.174 HD
ATOM     20  H31 UNL     1      89.158  60.692   0.537  1.00  0.00     0.174 HD
ENDBRANCH   5  18
TORSDOF 7
ENDMDL
MODEL 3
REMARK VINA RESULT: -5.044098026      3.134      4.216
REMARK  7 active torsions:
REMARK  status: ('A' for Active; 'I' for Inactive)
REMARK    1  A    between atoms: C2_5  and  N3_6 
REMARK    2  A    between atoms: C4_12  and  C5_13 
REMARK    3  A    between atoms: C5_13  and  C6_14 
REMARK    4  A    between atoms: C6_14  and  C7_15 
REMARK    5  A    between atoms: C7_15  and  C8_16 
REMARK    6  A    between atoms: C8_16  and  O1_17 
REMARK    7  A    between atoms: O1_17  and  N5_18 
ROOT
HETATM    1  C1  UNL     1      90.630  64.183   3.140  1.00  0.00     0.178 C 
HETATM    2  N1  UNL     1      89.480  63.726   2.399  1.00  0.00    -0.285 N 
HETATM    3  N2  UNL     1      89.339  62.427   2.103  1.00  0.00    -0.130 N 
ATOM      4  H2  UNL     1      90.058  61.772   2.413  1.00  0.00     0.206 HD
HETATM    5  C2  UNL     1      88.293  61.959   1.420  1.00  0.00     0.690 A 
HETATM    6  N4  UNL     1      87.350  62.829   1.015  1.00  0.00    -0.199 N 
ATOM      7  H4  UNL     1      86.540  62.499   0.491  1.00  0.00     0.183 HD
HETATM    8  C3  UNL     1      87.481  64.148   1.308  1.00  0.00     0.132 A 
HETATM    9  C4  UNL     1      88.564  64.628   2.015  1.00  0.00     0.044 A 
ENDROOT
BRANCH   9  10
HETATM   10  C5  UNL     1      88.719  66.061   2.343  1.00  0.00     0.060 C 
BRANCH  10  11
HETATM   11  C6  UNL     1      88.036  66.445   3.640  1.00  0.00     0.008 C 
BRANCH  11  12
HETATM   12  C7  UNL     1      86.784  67.206   3.273  1.00  0.00     0.029 C 
BRANCH  12  13
HETATM   13  C8  UNL     1      87.075  68.567   2.718  1.00  0.00     0.200 C 
BRANCH  13  14
HETATM   14  O1  UNL     1      86.925  69.576   3.666  1.00  0.00    -0.287 OA
BRANCH  14  15
HETATM   15  N5  UNL     1      87.914  70.468   3.549  1.00  0.00    -0.311 N 
ATOM     16  H52 UNL     1      88.695  70.373   2.900  1.00  0.00     0.184 HD
ATOM     17  H51 UNL     1      87.769  71.242   4.198  1.00  0.00     0.184 HD
ENDBRANCH  14  15
ENDBRANCH  13  14
ENDBRANCH  12  13
ENDBRANCH  11  12
ENDBRANCH  10  11
ENDBRANCH   9  10
BRANCH   5  18
HETATM   18  N3  UNL     1      88.139  60.711   1.124  1.00  0.00    -0.233 N 
ATOM     19  H32 UNL     1      87.755  60.091   1.837  1.00  0.00     0.174 HD
ATOM     20  H31 UNL     1      88.382  60.315   0.216  1.00  0.00     0.174 HD
ENDBRANCH   5  18
TORSDOF 7
ENDMDL
MODEL 4
REMARK VINA RESULT: -5.014817673      2.414      2.823
REMARK  7 active torsions:
REMARK  status: ('A' for Active; 'I' for Inactive)
REMARK    1  A    between atoms: C2_5  and  N3_6 
REMARK    2  A    between atoms: C4_12  and  C5_13 
REMARK    3  A    between atoms: C5_13  and  C6_14 
REMARK    4  A    between atoms: C6_14  and  C7_15 
REMARK    5  A    between atoms: C7_15  and  C8_16 
REMARK    6  A    between atoms: C8_16  and  O1_17 
REMARK    7  A    between atoms: O1_17  and  N5_18 
ROOT
HETATM    1  C1  UNL     1      85.409  64.919   0.648  1.00  0.00     0.178 C 
HETATM    2  N1  UNL     1      86.691  64.432   1.096  1.00  0.00    -0.285 N 
HETATM    3  N2  UNL     1      87.006  63.137   0.963  1.00  0.00    -0.130 N 
ATOM      4  H2  UNL     1      86.325  62.506   0.539  1.00  0.00     0.206 HD
HETATM    5  C2  UNL     1      88.179  62.642   1.364  1.00  0.00     0.690 A 
HETATM    6  N4  UNL     1      89.072  63.480   1.922  1.00  0.00    -0.199 N 
ATOM      7  H4  UNL     1      89.975  63.129   2.238  1.00  0.00     0.183 HD
HETATM    8  C3  UNL     1      88.765  64.794   2.063  1.00  0.00     0.132 A 
HETATM    9  C4  UNL     1      87.551  65.302   1.647  1.00  0.00     0.044 A 
ENDROOT
BRANCH   9  10
HETATM   10  C5  UNL     1      87.204  66.732   1.792  1.00  0.00     0.060 C 
BRANCH  10  11
HETATM   11  C6  UNL     1      87.172  67.185   3.238  1.00  0.00     0.008 C 
BRANCH  11  12
HETATM   12  C7  UNL     1      85.861  66.711   3.821  1.00  0.00     0.029 C 
BRANCH  12  13
HETATM   13  C8  UNL     1      84.721  67.630   3.508  1.00  0.00     0.200 C 
BRANCH  13  14
HETATM   14  O1  UNL     1      83.479  67.044   3.742  1.00  0.00    -0.287 OA
BRANCH  14  15
HETATM   15  N5  UNL     1      82.748  67.051   2.623  1.00  0.00    -0.311 N 
ATOM     16  H52 UNL     1      81.824  67.475   2.546  1.00  0.00     0.184 HD
ATOM     17  H51 UNL     1      83.250  66.574   1.873  1.00  0.00     0.184 HD
ENDBRANCH  14  15
ENDBRANCH  13  14
ENDBRANCH  12  13
ENDBRANCH  11  12
ENDBRANCH  10  11
ENDBRANCH   9  10
BRANCH   5  18
HETATM   18  N3  UNL     1      88.502  61.397   1.245  1.00  0.00    -0.233 N 
ATOM     19  H32 UNL     1      89.196  61.144   0.542  1.00  0.00     0.174 HD
ATOM     20  H31 UNL     1      88.098  60.655   1.819  1.00  0.00     0.174 HD
ENDBRANCH   5  18
TORSDOF 7
ENDMDL
MODEL 5
REMARK VINA RESULT: -4.943646597      5.205      6.844
REMARK  7 active torsions:
REMARK  status: ('A' for Active; 'I' for Inactive)
REMARK    1  A    between atoms: C2_5  and  N3_6 
REMARK    2  A    between atoms: C4_12  and  C5_13 
REMARK    3  A    between atoms: C5_13  and  C6_14 
REMARK    4  A    between atoms: C6_14  and  C7_15 
REMARK    5  A    between atoms: C7_15  and  C8_16 
REMARK    6  A    between atoms: C8_16  and  O1_17 
REMARK    7  A    between atoms: O1_17  and  N5_18 
ROOT
HETATM    1  C1  UNL     1      89.153  66.851  -0.117  1.00  0.00     0.178 C 
HETATM    2  N1  UNL     1      89.382  65.770   0.809  1.00  0.00    -0.285 N 
HETATM    3  N2  UNL     1      89.433  66.008   2.126  1.00  0.00    -0.130 N 
ATOM      4  H2  UNL     1      89.306  66.964   2.458  1.00  0.00     0.206 HD
HETATM    5  C2  UNL     1      89.643  65.039   3.020  1.00  0.00     0.690 A 
HETATM    6  N4  UNL     1      89.809  63.780   2.575  1.00  0.00    -0.199 N 
ATOM      7  H4  UNL     1      89.972  63.021   3.236  1.00  0.00     0.183 HD
HETATM    8  C3  UNL     1      89.760  63.526   1.243  1.00  0.00     0.132 A 
HETATM    9  C4  UNL     1      89.542  64.530   0.322  1.00  0.00     0.044 A 
ENDROOT
BRANCH   9  10
HETATM   10  C5  UNL     1      89.484  64.267  -1.132  1.00  0.00     0.060 C 
BRANCH  10  11
HETATM   11  C6  UNL     1      90.670  63.467  -1.632  1.00  0.00     0.008 C 
BRANCH  11  12
HETATM   12  C7  UNL     1      90.677  63.582  -3.138  1.00  0.00     0.029 C 
BRANCH  12  13
HETATM   13  C8  UNL     1      90.287  62.307  -3.819  1.00  0.00     0.200 C 
BRANCH  13  14
HETATM   14  O1  UNL     1      91.354  61.423  -3.956  1.00  0.00    -0.287 OA
BRANCH  14  15
HETATM   15  N5  UNL     1      91.574  61.162  -5.249  1.00  0.00    -0.311 N 
ATOM     16  H52 UNL     1      91.340  61.801  -6.009  1.00  0.00     0.184 HD
ATOM     17  H51 UNL     1      92.003  60.242  -5.355  1.00  0.00     0.184 HD
ENDBRANCH  14  15
ENDBRANCH  13  14
ENDBRANCH  12  13
ENDBRANCH  11  12
ENDBRANCH  10  11
ENDBRANCH   9  10
BRANCH   5  18
HETATM   18  N3  UNL     1      89.696  65.248   4.294  1.00  0.00    -0.233 N 
ATOM     19  H32 UNL     1      88.857  65.590   4.761  1.00  0.00     0.174 HD
ATOM     20  H31 UNL     1      90.534  65.088   4.854  1.00  0.00     0.174 HD
ENDBRANCH   5  18
TORSDOF 7
ENDMDL
