MODEL 1
REMARK VINA RESULT: -5.110763305      0.000      0.000
REMARK  7 active torsions:
REMARK  status: ('A' for Active; 'I' for Inactive)
REMARK    1  A    between atoms: N1_2  and  C2_5 
REMARK    2  A    between atoms: C2_5  and  C3_6 
REMARK    3  A    between atoms: C3_6  and  C4_7 
REMARK    4  A    between atoms: C5_14  and  N5_15 
REMARK    5  A    between atoms: N5_15  and  C6_17 
REMARK    6  A    between atoms: C6_17  and  C7_18 
REMARK    7  A    between atoms: C7_18  and  N6_19 
ROOT
HETATM    1  C4  UNL     1      89.298  72.213   3.552  1.00  0.00     0.073 A 
HETATM    2  N2  UNL     1      88.322  71.280   3.677  1.00  0.00    -0.287 N 
ATOM      3  H2  UNL     1      87.769  71.113   4.518  1.00  0.00     0.188 HD
HETATM    4  N3  UNL     1      88.200  70.620   2.541  1.00  0.00    -0.241 N 
ATOM      5  H3  UNL     1      87.539  69.865   2.363  1.00  0.00     0.208 HD
HETATM    6  N4  UNL     1      89.079  71.099   1.664  1.00  0.00    -0.270 N 
ATOM      7  H4  UNL     1      89.206  70.776   0.705  1.00  0.00     0.190 HD
HETATM    8  C5  UNL     1      89.770  72.084   2.263  1.00  0.00     0.141 A 
ENDROOT
BRANCH   8   9
HETATM    9  N5  UNL     1      90.717  72.827   1.805  1.00  0.00    -0.372 N 
ATOM     10  H5  UNL     1      91.536  72.962   2.397  1.00  0.00     0.161 HD
BRANCH   9  11
HETATM   11  C6  UNL     1      90.713  73.476   0.531  1.00  0.00     0.148 C 
BRANCH  11  12
HETATM   12  C7  UNL     1      89.721  74.620   0.586  1.00  0.00     0.249 C 
BRANCH  12  13
HETATM   13  N6  UNL     1      89.021  74.694  -0.679  1.00  0.00    -0.078 N 
ATOM     14  H63 UNL     1      88.969  73.790  -1.148  1.00  0.00     0.274 HD
ATOM     15  H62 UNL     1      88.021  74.852  -0.561  1.00  0.00     0.274 HD
ATOM     16  H61 UNL     1      89.462  75.409  -1.258  1.00  0.00     0.274 HD
ENDBRANCH  12  13
ENDBRANCH  11  12
ENDBRANCH   9  11
ENDBRANCH   8   9
BRANCH   1  17
HETATM   17  C3  UNL     1      89.740  73.173   4.620  1.00  0.00     0.090 C 
BRANCH  17  18
HETATM   18  C2  UNL     1      88.862  73.053   5.817  1.00  0.00     0.238 C 
BRANCH  18  19
HETATM   19  N1  UNL     1      88.368  74.322   6.296  1.00  0.00    -0.079 N 
HETATM   20  C1  UNL     1      88.827  74.647   7.614  1.00  0.00     0.267 C 
ATOM     21  H12 UNL     1      87.350  74.357   6.248  1.00  0.00     0.276 HD
ATOM     22  H11 UNL     1      88.593  75.070   5.639  1.00  0.00     0.276 HD
ENDBRANCH  18  19
ENDBRANCH  17  18
ENDBRANCH   1  17
TORSDOF 7
ENDMDL
MODEL 2
REMARK VINA RESULT: -4.942772944      7.335      9.379
REMARK  7 active torsions:
REMARK  status: ('A' for Active; 'I' for Inactive)
REMARK    1  A    between atoms: N1_2  and  C2_5 
REMARK    2  A    between atoms: C2_5  and  C3_6 
REMARK    3  A    between atoms: C3_6  and  C4_7 
REMARK    4  A    between atoms: C5_14  and  N5_15 
REMARK    5  A    between atoms: N5_15  and  C6_17 
REMARK    6  A    between atoms: C6_17  and  C7_18 
REMARK    7  A    between atoms: C7_18  and  N6_19 
ROOT
HETATM    1  C4  UNL     1      89.063  65.875   2.509  1.00  0.00     0.073 A 
HETATM    2  N2  UNL     1      88.571  66.475   3.620  1.00  0.00    -0.287 N 
ATOM      3  H2  UNL     1      87.924  67.264   3.627  1.00  0.00     0.188 HD
HETATM    4  N3  UNL     1      89.059  65.879   4.691  1.00  0.00    -0.241 N 
ATOM      5  H3  UNL     1      88.849  66.133   5.657  1.00  0.00     0.208 HD
HETATM    6  N4  UNL     1      89.867  64.894   4.310  1.00  0.00    -0.270 N 
ATOM      7  H4  UNL     1      90.381  64.267   4.928  1.00  0.00     0.190 HD
HETATM    8  C5  UNL     1      89.888  64.870   2.966  1.00  0.00     0.141 A 
ENDROOT
BRANCH   8   9
HETATM    9  N5  UNL     1      90.529  64.092   2.164  1.00  0.00    -0.372 N 
ATOM     10  H5  UNL     1      91.546  64.162   2.155  1.00  0.00     0.161 HD
BRANCH   9  11
HETATM   11  C6  UNL     1      89.928  63.139   1.283  1.00  0.00     0.148 C 
BRANCH  11  12
HETATM   12  C7  UNL     1      89.086  62.192   2.113  1.00  0.00     0.249 C 
BRANCH  12  13
HETATM   13  N6  UNL     1      88.353  61.316   1.224  1.00  0.00    -0.078 N 
ATOM     14  H63 UNL     1      88.463  61.575   0.244  1.00  0.00     0.274 HD
ATOM     15  H62 UNL     1      88.762  60.384   1.173  1.00  0.00     0.274 HD
ATOM     16  H61 UNL     1      87.375  61.296   1.514  1.00  0.00     0.274 HD
ENDBRANCH  12  13
ENDBRANCH  11  12
ENDBRANCH   9  11
ENDBRANCH   8   9
BRANCH   1  17
HETATM   17  C3  UNL     1      88.747  66.254   1.089  1.00  0.00     0.090 C 
BRANCH  17  18
HETATM   18  C2  UNL     1      87.297  66.052   0.813  1.00  0.00     0.238 C 
BRANCH  18  19
HETATM   19  N1  UNL     1      86.972  64.704   0.411  1.00  0.00    -0.079 N 
HETATM   20  C1  UNL     1      85.872  64.146   1.141  1.00  0.00     0.267 C 
ATOM     21  H12 UNL     1      87.792  64.100   0.472  1.00  0.00     0.276 HD
ATOM     22  H11 UNL     1      86.802  64.657  -0.594  1.00  0.00     0.276 HD
ENDBRANCH  18  19
ENDBRANCH  17  18
ENDBRANCH   1  17
TORSDOF 7
ENDMDL
MODEL 3
REMARK VINA RESULT: -4.934509591      1.239      4.728
REMARK  7 active torsions:
REMARK  status: ('A' for Active; 'I' for Inactive)
REMARK    1  A    between atoms: N1_2  and  C2_5 
REMARK    2  A    between atoms: C2_5  and  C3_6 
REMARK    3  A    between atoms: C3_6  and  C4_7 
REMARK    4  A    between atoms: C5_14  and  N5_15 
REMARK    5  A    between atoms: N5_15  and  C6_17 
REMARK    6  A    between atoms: C6_17  and  C7_18 
REMARK    7  A    between atoms: C7_18  and  N6_19 
ROOT
HETATM    1  C4  UNL     1      89.485  72.256   2.586  1.00  0.00     0.073 A 
HETATM    2  N2  UNL     1      88.935  71.355   1.735  1.00  0.00    -0.287 N 
ATOM      3  H2  UNL     1      89.118  71.301   0.733  1.00  0.00     0.188 HD
HETATM    4  N3  UNL     1      88.126  70.559   2.406  1.00  0.00    -0.241 N 
ATOM      5  H3  UNL     1      87.585  69.792   2.007  1.00  0.00     0.208 HD
HETATM    6  N4  UNL     1      88.129  70.916   3.688  1.00  0.00    -0.270 N 
ATOM      7  H4  UNL     1      87.594  70.474   4.435  1.00  0.00     0.190 HD
HETATM    8  C5  UNL     1      88.961  71.962   3.825  1.00  0.00     0.141 A 
ENDROOT
BRANCH   8   9
HETATM    9  N5  UNL     1      89.274  72.636   4.878  1.00  0.00    -0.372 N 
ATOM     10  H5  UNL     1      90.133  72.376   5.362  1.00  0.00     0.161 HD
BRANCH   9  11
HETATM   11  C6  UNL     1      88.515  73.719   5.421  1.00  0.00     0.148 C 
BRANCH  11  12
HETATM   12  C7  UNL     1      88.848  73.839   6.894  1.00  0.00     0.249 C 
BRANCH  12  13
HETATM   13  N6  UNL     1      89.782  72.792   7.249  1.00  0.00    -0.078 N 
ATOM     14  H63 UNL     1      89.900  72.702   8.259  1.00  0.00     0.274 HD
ATOM     15  H62 UNL     1      89.411  71.861   7.065  1.00  0.00     0.274 HD
ATOM     16  H61 UNL     1      90.665  72.961   6.768  1.00  0.00     0.274 HD
ENDBRANCH  12  13
ENDBRANCH  11  12
ENDBRANCH   9  11
ENDBRANCH   8   9
BRANCH   1  17
HETATM   17  C3  UNL     1      90.466  73.334   2.214  1.00  0.00     0.090 C 
BRANCH  17  18
HETATM   18  C2  UNL     1      89.742  74.572   1.813  1.00  0.00     0.238 C 
BRANCH  18  19
HETATM   19  N1  UNL     1      89.356  74.586   0.422  1.00  0.00    -0.079 N 
HETATM   20  C1  UNL     1      90.368  74.071  -0.452  1.00  0.00     0.267 C 
ATOM     21  H12 UNL     1      89.071  75.523   0.134  1.00  0.00     0.276 HD
ATOM     22  H11 UNL     1      88.473  74.093   0.286  1.00  0.00     0.276 HD
ENDBRANCH  18  19
ENDBRANCH  17  18
ENDBRANCH   1  17
TORSDOF 7
ENDMDL
MODEL 4
REMARK VINA RESULT: -4.931668347      6.916      9.039
REMARK  7 active torsions:
REMARK  status: ('A' for Active; 'I' for Inactive)
REMARK    1  A    between atoms: N1_2  and  C2_5 
REMARK    2  A    between atoms: C2_5  and  C3_6 
REMARK    3  A    between atoms: C3_6  and  C4_7 
REMARK    4  A    between atoms: C5_14  and  N5_15 
REMARK    5  A    between atoms: N5_15  and  C6_17 
REMARK    6  A    between atoms: C6_17  and  C7_18 
REMARK    7  A    between atoms: C7_18  and  N6_19 
ROOT
HETATM    1  C4  UNL     1      88.730  65.742   2.668  1.00  0.00     0.073 A 
HETATM    2  N2  UNL     1      88.508  66.556   3.729  1.00  0.00    -0.287 N 
ATOM      3  H2  UNL     1      87.934  67.400   3.715  1.00  0.00     0.188 HD
HETATM    4  N3  UNL     1      89.150  66.088   4.782  1.00  0.00    -0.241 N 
ATOM      5  H3  UNL     1      89.152  66.509   5.710  1.00  0.00     0.208 HD
HETATM    6  N4  UNL     1      89.795  64.977   4.438  1.00  0.00    -0.270 N 
ATOM      7  H4  UNL     1      90.373  64.404   5.053  1.00  0.00     0.190 HD
HETATM    8  C5  UNL     1      89.553  64.741   3.137  1.00  0.00     0.141 A 
ENDROOT
BRANCH   8   9
HETATM    9  N5  UNL     1      89.967  63.785   2.379  1.00  0.00    -0.372 N 
ATOM     10  H5  UNL     1      90.687  64.010   1.692  1.00  0.00     0.161 HD
BRANCH   9  11
HETATM   11  C6  UNL     1      89.500  62.435   2.424  1.00  0.00     0.148 C 
BRANCH  11  12
HETATM   12  C7  UNL     1      88.450  62.261   1.344  1.00  0.00     0.249 C 
BRANCH  12  13
HETATM   13  N6  UNL     1      88.163  60.851   1.194  1.00  0.00    -0.078 N 
ATOM     14  H63 UNL     1      87.163  60.650   1.238  1.00  0.00     0.274 HD
ATOM     15  H62 UNL     1      88.333  60.518   0.245  1.00  0.00     0.274 HD
ATOM     16  H61 UNL     1      88.695  60.329   1.890  1.00  0.00     0.274 HD
ENDBRANCH  12  13
ENDBRANCH  11  12
ENDBRANCH   9  11
ENDBRANCH   8   9
BRANCH   1  17
HETATM   17  C3  UNL     1      88.172  65.925   1.285  1.00  0.00     0.090 C 
BRANCH  17  18
HETATM   18  C2  UNL     1      89.148  66.654   0.428  1.00  0.00     0.238 C 
BRANCH  18  19
HETATM   19  N1  UNL     1      89.106  68.086   0.601  1.00  0.00    -0.079 N 
HETATM   20  C1  UNL     1      89.496  68.811  -0.572  1.00  0.00     0.267 C 
ATOM     21  H12 UNL     1      89.666  68.370   1.405  1.00  0.00     0.276 HD
ATOM     22  H11 UNL     1      88.186  68.386   0.924  1.00  0.00     0.276 HD
ENDBRANCH  18  19
ENDBRANCH  17  18
ENDBRANCH   1  17
TORSDOF 7
ENDMDL
MODEL 5
REMARK VINA RESULT: -4.860283684      7.029      8.555
REMARK  7 active torsions:
REMARK  status: ('A' for Active; 'I' for Inactive)
REMARK    1  A    between atoms: N1_2  and  C2_5 
REMARK    2  A    between atoms: C2_5  and  C3_6 
REMARK    3  A    between atoms: C3_6  and  C4_7 
REMARK    4  A    between atoms: C5_14  and  N5_15 
REMARK    5  A    between atoms: N5_15  and  C6_17 
REMARK    6  A    between atoms: C6_17  and  C7_18 
REMARK    7  A    between atoms: C7_18  and  N6_19 
ROOT
HETATM    1  C4  UNL     1      88.423  66.223   2.954  1.00  0.00     0.073 A 
HETATM    2  N2  UNL     1      88.250  66.680   4.219  1.00  0.00    -0.287 N 
ATOM      3  H2  UNL     1      87.575  67.390   4.503  1.00  0.00     0.188 HD
HETATM    4  N3  UNL     1      89.092  66.062   5.025  1.00  0.00    -0.241 N 
ATOM      5  H3  UNL     1      89.172  66.218   6.030  1.00  0.00     0.208 HD
HETATM    6  N4  UNL     1      89.821  65.204   4.317  1.00  0.00    -0.270 N 
ATOM      7  H4  UNL     1      90.551  64.593   4.683  1.00  0.00     0.190 HD
HETATM    8  C5  UNL     1      89.428  65.284   3.034  1.00  0.00     0.141 A 
ENDROOT
BRANCH   8   9
HETATM    9  N5  UNL     1      89.850  64.644   1.999  1.00  0.00    -0.372 N 
ATOM     10  H5  UNL     1      90.238  65.196   1.233  1.00  0.00     0.161 HD
BRANCH   9  11
HETATM   11  C6  UNL     1      89.819  63.224   1.836  1.00  0.00     0.148 C 
BRANCH  11  12
HETATM   12  C7  UNL     1      88.427  62.830   1.383  1.00  0.00     0.249 C 
BRANCH  12  13
HETATM   13  N6  UNL     1      88.425  61.422   1.049  1.00  0.00    -0.078 N 
ATOM     14  H63 UNL     1      89.354  61.079   0.802  1.00  0.00     0.274 HD
ATOM     15  H62 UNL     1      88.266  60.829   1.864  1.00  0.00     0.274 HD
ATOM     16  H61 UNL     1      87.741  61.259   0.311  1.00  0.00     0.274 HD
ENDBRANCH  12  13
ENDBRANCH  11  12
ENDBRANCH   9  11
ENDBRANCH   8   9
BRANCH   1  17
HETATM   17  C3  UNL     1      87.652  66.671   1.743  1.00  0.00     0.090 C 
BRANCH  17  18
HETATM   18  C2  UNL     1      86.204  66.367   1.913  1.00  0.00     0.238 C 
BRANCH  18  19
HETATM   19  N1  UNL     1      85.416  67.519   2.281  1.00  0.00    -0.079 N 
HETATM   20  C1  UNL     1      84.722  67.356   3.524  1.00  0.00     0.267 C 
ATOM     21  H12 UNL     1      84.767  67.768   1.533  1.00  0.00     0.276 HD
ATOM     22  H11 UNL     1      85.990  68.362   2.293  1.00  0.00     0.276 HD
ENDBRANCH  18  19
ENDBRANCH  17  18
ENDBRANCH   1  17
TORSDOF 7
ENDMDL
