MODEL 1
REMARK VINA RESULT: -5.240694557      0.000      0.000
REMARK  7 active torsions:
REMARK  status: ('A' for Active; 'I' for Inactive)
REMARK    1  A    between atoms: O1_2  and  C2_3 
REMARK    2  A    between atoms: C2_3  and  O2_4 
REMARK    3  A    between atoms: O2_4  and  C3_5 
REMARK    4  A    between atoms: C3_5  and  C4_6 
REMARK    5  A    between atoms: C4_6  and  N1_7 
REMARK    6  A    between atoms: N1_7  and  C5_9 
REMARK    7  A    between atoms: C8_14  and  N3_15 
ROOT
HETATM    1  C5  UNL     1      89.078  65.893   1.905  1.00  0.00     0.118 A 
HETATM    2  C6  UNL     1      89.305  65.429   3.185  1.00  0.00     0.066 A 
HETATM    3  C7  UNL     1      90.026  64.244   3.337  1.00  0.00     0.110 A 
HETATM    4  N2  UNL     1      90.489  63.567   2.263  1.00  0.00    -0.202 N 
ATOM      5  H2  UNL     1      91.012  62.702   2.392  1.00  0.00     0.183 HD
HETATM    6  C8  UNL     1      90.257  64.036   1.023  1.00  0.00     0.677 A 
HETATM    7  N4  UNL     1      89.555  65.189   0.886  1.00  0.00    -0.177 N 
ATOM      8  H4  UNL     1      89.385  65.537  -0.057  1.00  0.00     0.185 HD
ENDROOT
BRANCH   1   9
HETATM    9  N1  UNL     1      88.419  66.977   1.765  1.00  0.00    -0.374 N 
ATOM     10  H1  UNL     1      88.928  67.803   1.450  1.00  0.00     0.161 HD
BRANCH   9  11
HETATM   11  C4  UNL     1      87.006  67.118   2.020  1.00  0.00     0.147 C 
BRANCH  11  12
HETATM   12  C3  UNL     1      86.859  68.241   3.017  1.00  0.00     0.190 C 
BRANCH  12  13
HETATM   13  O2  UNL     1      85.605  68.336   3.556  1.00  0.00    -0.365 OA
BRANCH  13  14
HETATM   14  C2  UNL     1      85.108  67.075   3.835  1.00  0.00     0.337 C 
BRANCH  14  15
HETATM   15  O1  UNL     1      83.718  67.121   3.961  1.00  0.00    -0.372 OA
HETATM   16  C1  UNL     1      83.085  66.644   2.824  1.00  0.00     0.204 C 
ENDBRANCH  14  15
ENDBRANCH  13  14
ENDBRANCH  12  13
ENDBRANCH  11  12
ENDBRANCH   9  11
ENDBRANCH   1   9
BRANCH   6  17
HETATM   17  N3  UNL     1      90.693  63.403  -0.026  1.00  0.00    -0.234 N 
ATOM     18  H32 UNL     1      90.965  62.422   0.039  1.00  0.00     0.174 HD
ATOM     19  H31 UNL     1      90.772  63.871  -0.928  1.00  0.00     0.174 HD
ENDBRANCH   6  17
TORSDOF 7
ENDMDL
MODEL 2
REMARK VINA RESULT: -5.198287209      1.458      1.761
REMARK  7 active torsions:
REMARK  status: ('A' for Active; 'I' for Inactive)
REMARK    1  A    between atoms: O1_2  and  C2_3 
REMARK    2  A    between atoms: C2_3  and  O2_4 
REMARK    3  A    between atoms: O2_4  and  C3_5 
REMARK    4  A    between atoms: C3_5  and  C4_6 
REMARK    5  A    between atoms: C4_6  and  N1_7 
REMARK    6  A    between atoms: N1_7  and  C5_9 
REMARK    7  A    between atoms: C8_14  and  N3_15 
ROOT
HETATM    1  C5  UNL     1      89.753  64.642   2.517  1.00  0.00     0.118 A 
HETATM    2  C6  UNL     1      89.371  63.448   3.094  1.00  0.00     0.066 A 
HETATM    3  C7  UNL     1      89.266  62.325   2.273  1.00  0.00     0.110 A 
HETATM    4  N2  UNL     1      89.529  62.401   0.950  1.00  0.00    -0.202 N 
ATOM      5  H2  UNL     1      89.446  61.571   0.364  1.00  0.00     0.183 HD
HETATM    6  C8  UNL     1      89.901  63.574   0.406  1.00  0.00     0.677 A 
HETATM    7  N4  UNL     1      90.000  64.661   1.213  1.00  0.00    -0.177 N 
ATOM      8  H4  UNL     1      90.283  65.546   0.792  1.00  0.00     0.185 HD
ENDROOT
BRANCH   1   9
HETATM    9  N1  UNL     1      89.850  65.670   3.267  1.00  0.00    -0.374 N 
ATOM     10  H1  UNL     1      90.634  66.302   3.105  1.00  0.00     0.161 HD
BRANCH   9  11
HETATM   11  C4  UNL     1      88.931  66.002   4.328  1.00  0.00     0.147 C 
BRANCH  11  12
HETATM   12  C3  UNL     1      87.797  66.766   3.691  1.00  0.00     0.190 C 
BRANCH  12  13
HETATM   13  O2  UNL     1      86.624  66.695   4.392  1.00  0.00    -0.365 OA
BRANCH  13  14
HETATM   14  C2  UNL     1      85.599  67.278   3.670  1.00  0.00     0.337 C 
BRANCH  14  15
HETATM   15  O1  UNL     1      84.362  66.906   4.200  1.00  0.00    -0.372 OA
HETATM   16  C1  UNL     1      83.408  66.740   3.207  1.00  0.00     0.204 C 
ENDBRANCH  14  15
ENDBRANCH  13  14
ENDBRANCH  12  13
ENDBRANCH  11  12
ENDBRANCH   9  11
ENDBRANCH   1   9
BRANCH   6  17
HETATM   17  N3  UNL     1      90.161  63.673  -0.864  1.00  0.00    -0.234 N 
ATOM     18  H32 UNL     1      89.485  64.102  -1.497  1.00  0.00     0.174 HD
ATOM     19  H31 UNL     1      91.038  63.326  -1.251  1.00  0.00     0.174 HD
ENDBRANCH   6  17
TORSDOF 7
ENDMDL
MODEL 3
REMARK VINA RESULT: -5.192789794      1.499      1.611
REMARK  7 active torsions:
REMARK  status: ('A' for Active; 'I' for Inactive)
REMARK    1  A    between atoms: O1_2  and  C2_3 
REMARK    2  A    between atoms: C2_3  and  O2_4 
REMARK    3  A    between atoms: O2_4  and  C3_5 
REMARK    4  A    between atoms: C3_5  and  C4_6 
REMARK    5  A    between atoms: C4_6  and  N1_7 
REMARK    6  A    between atoms: N1_7  and  C5_9 
REMARK    7  A    between atoms: C8_14  and  N3_15 
ROOT
HETATM    1  C5  UNL     1      89.053  64.906   2.273  1.00  0.00     0.118 A 
HETATM    2  C6  UNL     1      89.672  63.910   3.000  1.00  0.00     0.066 A 
HETATM    3  C7  UNL     1      89.722  62.628   2.453  1.00  0.00     0.110 A 
HETATM    4  N2  UNL     1      89.179  62.366   1.243  1.00  0.00    -0.202 N 
ATOM      5  H2  UNL     1      89.223  61.423   0.858  1.00  0.00     0.183 HD
HETATM    6  C8  UNL     1      88.581  63.350   0.548  1.00  0.00     0.677 A 
HETATM    7  N4  UNL     1      88.538  64.593   1.090  1.00  0.00    -0.177 N 
ATOM      8  H4  UNL     1      88.082  65.333   0.556  1.00  0.00     0.185 HD
ENDROOT
BRANCH   1   9
HETATM    9  N1  UNL     1      89.007  66.079   2.773  1.00  0.00    -0.374 N 
ATOM     10  H1  UNL     1      89.597  66.797   2.352  1.00  0.00     0.161 HD
BRANCH   9  11
HETATM   11  C4  UNL     1      88.182  66.463   3.892  1.00  0.00     0.147 C 
BRANCH  11  12
HETATM   12  C3  UNL     1      86.833  66.832   3.325  1.00  0.00     0.190 C 
BRANCH  12  13
HETATM   13  O2  UNL     1      85.839  66.891   4.264  1.00  0.00    -0.365 OA
BRANCH  13  14
HETATM   14  C2  UNL     1      84.775  67.635   3.788  1.00  0.00     0.337 C 
BRANCH  14  15
HETATM   15  O1  UNL     1      83.576  66.952   3.998  1.00  0.00    -0.372 OA
HETATM   16  C1  UNL     1      83.032  66.494   2.807  1.00  0.00     0.204 C 
ENDBRANCH  14  15
ENDBRANCH  13  14
ENDBRANCH  12  13
ENDBRANCH  11  12
ENDBRANCH   9  11
ENDBRANCH   1   9
BRANCH   6  17
HETATM   17  N3  UNL     1      88.052  63.122  -0.618  1.00  0.00    -0.234 N 
ATOM     18  H32 UNL     1      88.407  62.369  -1.207  1.00  0.00     0.174 HD
ATOM     19  H31 UNL     1      87.279  63.689  -0.965  1.00  0.00     0.174 HD
ENDBRANCH   6  17
TORSDOF 7
ENDMDL
MODEL 4
REMARK VINA RESULT: -5.172156774      1.121      1.574
REMARK  7 active torsions:
REMARK  status: ('A' for Active; 'I' for Inactive)
REMARK    1  A    between atoms: O1_2  and  C2_3 
REMARK    2  A    between atoms: C2_3  and  O2_4 
REMARK    3  A    between atoms: O2_4  and  C3_5 
REMARK    4  A    between atoms: C3_5  and  C4_6 
REMARK    5  A    between atoms: C4_6  and  N1_7 
REMARK    6  A    between atoms: N1_7  and  C5_9 
REMARK    7  A    between atoms: C8_14  and  N3_15 
ROOT
HETATM    1  C5  UNL     1      88.534  66.136   1.778  1.00  0.00     0.118 A 
HETATM    2  C6  UNL     1      87.800  65.090   1.256  1.00  0.00     0.066 A 
HETATM    3  C7  UNL     1      88.243  63.790   1.496  1.00  0.00     0.110 A 
HETATM    4  N2  UNL     1      89.361  63.557   2.218  1.00  0.00    -0.202 N 
ATOM      5  H2  UNL     1      89.673  62.600   2.383  1.00  0.00     0.183 HD
HETATM    6  C8  UNL     1      90.063  64.589   2.720  1.00  0.00     0.677 A 
HETATM    7  N4  UNL     1      89.624  65.850   2.481  1.00  0.00    -0.177 N 
ATOM      8  H4  UNL     1      90.163  66.626   2.865  1.00  0.00     0.185 HD
ENDROOT
BRANCH   1   9
HETATM    9  N1  UNL     1      88.129  67.326   1.560  1.00  0.00    -0.374 N 
ATOM     10  H1  UNL     1      88.810  68.001   1.213  1.00  0.00     0.161 HD
BRANCH   9  11
HETATM   11  C4  UNL     1      86.778  67.784   1.769  1.00  0.00     0.147 C 
BRANCH  11  12
HETATM   12  C3  UNL     1      86.748  68.427   3.133  1.00  0.00     0.190 C 
BRANCH  12  13
HETATM   13  O2  UNL     1      85.513  68.408   3.723  1.00  0.00    -0.365 OA
BRANCH  13  14
HETATM   14  C2  UNL     1      85.050  67.108   3.820  1.00  0.00     0.337 C 
BRANCH  14  15
HETATM   15  O1  UNL     1      83.658  67.098   3.927  1.00  0.00    -0.372 OA
HETATM   16  C1  UNL     1      83.060  66.606   2.777  1.00  0.00     0.204 C 
ENDBRANCH  14  15
ENDBRANCH  13  14
ENDBRANCH  12  13
ENDBRANCH  11  12
ENDBRANCH   9  11
ENDBRANCH   1   9
BRANCH   6  17
HETATM   17  N3  UNL     1      91.142  64.390   3.419  1.00  0.00    -0.234 N 
ATOM     18  H32 UNL     1      91.142  63.720   4.188  1.00  0.00     0.174 HD
ATOM     19  H31 UNL     1      92.003  64.896   3.214  1.00  0.00     0.174 HD
ENDBRANCH   6  17
TORSDOF 7
ENDMDL
MODEL 5
REMARK VINA RESULT: -5.112868827      1.505      1.508
REMARK  7 active torsions:
REMARK  status: ('A' for Active; 'I' for Inactive)
REMARK    1  A    between atoms: O1_2  and  C2_3 
REMARK    2  A    between atoms: C2_3  and  O2_4 
REMARK    3  A    between atoms: O2_4  and  C3_5 
REMARK    4  A    between atoms: C3_5  and  C4_6 
REMARK    5  A    between atoms: C4_6  and  N1_7 
REMARK    6  A    between atoms: N1_7  and  C5_9 
REMARK    7  A    between atoms: C8_14  and  N3_15 
ROOT
HETATM    1  C5  UNL     1      88.484  64.947   1.955  1.00  0.00     0.118 A 
HETATM    2  C6  UNL     1      89.625  64.963   2.731  1.00  0.00     0.066 A 
HETATM    3  C7  UNL     1      90.311  63.763   2.918  1.00  0.00     0.110 A 
HETATM    4  N2  UNL     1      89.873  62.615   2.356  1.00  0.00    -0.202 N 
ATOM      5  H2  UNL     1      90.386  61.746   2.504  1.00  0.00     0.183 HD
HETATM    6  C8  UNL     1      88.759  62.619   1.601  1.00  0.00     0.677 A 
HETATM    7  N4  UNL     1      88.099  63.792   1.426  1.00  0.00    -0.177 N 
ATOM      8  H4  UNL     1      87.256  63.785   0.852  1.00  0.00     0.185 HD
ENDROOT
BRANCH   1   9
HETATM    9  N1  UNL     1      87.856  66.044   1.783  1.00  0.00    -0.374 N 
ATOM     10  H1  UNL     1      88.332  66.787   1.271  1.00  0.00     0.161 HD
BRANCH   9  11
HETATM   11  C4  UNL     1      86.521  66.310   2.262  1.00  0.00     0.147 C 
BRANCH  11  12
HETATM   12  C3  UNL     1      86.661  66.770   3.692  1.00  0.00     0.190 C 
BRANCH  12  13
HETATM   13  O2  UNL     1      85.483  66.766   4.388  1.00  0.00    -0.365 OA
BRANCH  13  14
HETATM   14  C2  UNL     1      84.519  67.483   3.700  1.00  0.00     0.337 C 
BRANCH  14  15
HETATM   15  O1  UNL     1      83.273  66.867   3.834  1.00  0.00    -0.372 OA
HETATM   16  C1  UNL     1      82.896  66.216   2.669  1.00  0.00     0.204 C 
ENDBRANCH  14  15
ENDBRANCH  13  14
ENDBRANCH  12  13
ENDBRANCH  11  12
ENDBRANCH   9  11
ENDBRANCH   1   9
BRANCH   6  17
HETATM   17  N3  UNL     1      88.318  61.527   1.049  1.00  0.00    -0.234 N 
ATOM     18  H32 UNL     1      88.353  61.412   0.036  1.00  0.00     0.174 HD
ATOM     19  H31 UNL     1      87.931  60.771   1.613  1.00  0.00     0.174 HD
ENDBRANCH   6  17
TORSDOF 7
ENDMDL
