MODEL 1
REMARK VINA RESULT: -4.579877174      0.000      0.000
REMARK  7 active torsions:
REMARK  status: ('A' for Active; 'I' for Inactive)
REMARK    1  A    between atoms: N1_1  and  C1_5 
REMARK    2  A    between atoms: C1_5  and  C2_6 
REMARK    3  A    between atoms: C2_6  and  C3_7 
REMARK    4  A    between atoms: C3_7  and  N2_8 
REMARK    5  A    between atoms: N2_8  and  C4_10 
REMARK    6  A    between atoms: C4_10  and  C5_11 
REMARK    7  A    between atoms: C7_13  and  N3_14 
ROOT
HETATM    1  C5  UNL     1      89.995  63.811  -1.244  1.00  0.00     0.205 C 
HETATM    2  C6  UNL     1      88.523  63.565  -1.413  1.00  0.00     0.067 C 
HETATM    3  C7  UNL     1      88.221  62.763  -2.665  1.00  0.00     0.187 C 
HETATM    4  C8  UNL     1      89.017  63.240  -3.861  1.00  0.00     0.060 C 
HETATM    5  C9  UNL     1      90.461  63.545  -3.501  1.00  0.00     0.235 C 
HETATM    6  N4  UNL     1      90.701  62.967  -2.184  1.00  0.00    -0.069 N 
ATOM      7  H41 UNL     1      90.444  61.982  -2.118  1.00  0.00     0.277 HD
ATOM      8  H42 UNL     1      91.690  62.852  -1.964  1.00  0.00     0.277 HD
ENDROOT
BRANCH   1   9
HETATM    9  C4  UNL     1      90.478  63.636   0.185  1.00  0.00     0.146 C 
BRANCH   9  10
HETATM   10  N2  UNL     1      89.588  62.731   0.838  1.00  0.00    -0.419 N 
ATOM     11  H2  UNL     1      89.101  61.992   0.331  1.00  0.00     0.153 HD
BRANCH  10  12
HETATM   12  C3  UNL     1      89.418  62.920   2.240  1.00  0.00     0.115 C 
BRANCH  12  13
HETATM   13  C2  UNL     1      90.331  63.982   2.810  1.00  0.00     0.046 C 
BRANCH  13  14
HETATM   14  C1  UNL     1      89.515  65.227   3.154  1.00  0.00     0.231 C 
BRANCH  14  15
HETATM   15  N1  UNL     1      89.510  65.475   4.568  1.00  0.00    -0.079 N 
ATOM     16  H13 UNL     1      89.420  64.609   5.099  1.00  0.00     0.274 HD
ATOM     17  H12 UNL     1      90.429  65.768   4.900  1.00  0.00     0.274 HD
ATOM     18  H11 UNL     1      88.788  66.148   4.825  1.00  0.00     0.274 HD
ENDBRANCH  14  15
ENDBRANCH  13  14
ENDBRANCH  12  13
ENDBRANCH  10  12
ENDBRANCH   9  10
ENDBRANCH   1   9
BRANCH   3  19
HETATM   19  N3  UNL     1      88.404  61.347  -2.437  1.00  0.00    -0.075 N 
ATOM     20  H33 UNL     1      87.842  61.018  -1.653  1.00  0.00     0.274 HD
ATOM     21  H32 UNL     1      87.979  60.791  -3.179  1.00  0.00     0.274 HD
ATOM     22  H31 UNL     1      89.391  61.117  -2.314  1.00  0.00     0.274 HD
ENDBRANCH   3  19
TORSDOF 7
ENDMDL
MODEL 2
REMARK VINA RESULT: -4.564353268      3.889      5.289
REMARK  7 active torsions:
REMARK  status: ('A' for Active; 'I' for Inactive)
REMARK    1  A    between atoms: N1_1  and  C1_5 
REMARK    2  A    between atoms: C1_5  and  C2_6 
REMARK    3  A    between atoms: C2_6  and  C3_7 
REMARK    4  A    between atoms: C3_7  and  N2_8 
REMARK    5  A    between atoms: N2_8  and  C4_10 
REMARK    6  A    between atoms: C4_10  and  C5_11 
REMARK    7  A    between atoms: C7_13  and  N3_14 
ROOT
HETATM    1  C5  UNL     1      87.531  63.649   1.060  1.00  0.00     0.205 C 
HETATM    2  C6  UNL     1      88.504  64.494   1.833  1.00  0.00     0.067 C 
HETATM    3  C7  UNL     1      89.817  63.774   2.072  1.00  0.00     0.187 C 
HETATM    4  C8  UNL     1      89.617  62.334   2.492  1.00  0.00     0.060 C 
HETATM    5  C9  UNL     1      88.527  61.649   1.686  1.00  0.00     0.235 C 
HETATM    6  N4  UNL     1      88.247  62.506   0.539  1.00  0.00    -0.069 N 
ATOM      7  H41 UNL     1      89.080  62.756   0.005  1.00  0.00     0.277 HD
ATOM      8  H42 UNL     1      87.756  62.027  -0.216  1.00  0.00     0.277 HD
ENDROOT
BRANCH   1   9
HETATM    9  C4  UNL     1      86.782  64.417  -0.013  1.00  0.00     0.146 C 
BRANCH   9  10
HETATM   10  N2  UNL     1      85.398  64.424   0.340  1.00  0.00    -0.419 N 
ATOM     11  H2  UNL     1      84.751  63.714  -0.001  1.00  0.00     0.153 HD
BRANCH  10  12
HETATM   12  C3  UNL     1      84.975  65.480   1.197  1.00  0.00     0.115 C 
BRANCH  12  13
HETATM   13  C2  UNL     1      83.975  65.033   2.239  1.00  0.00     0.046 C 
BRANCH  13  14
HETATM   14  C1  UNL     1      83.165  66.236   2.721  1.00  0.00     0.231 C 
BRANCH  14  15
HETATM   15  N1  UNL     1      82.758  67.067   1.623  1.00  0.00    -0.079 N 
ATOM     16  H13 UNL     1      82.747  66.547   0.745  1.00  0.00     0.274 HD
ATOM     17  H12 UNL     1      81.767  67.302   1.679  1.00  0.00     0.274 HD
ATOM     18  H11 UNL     1      83.337  67.903   1.555  1.00  0.00     0.274 HD
ENDBRANCH  14  15
ENDBRANCH  13  14
ENDBRANCH  12  13
ENDBRANCH  10  12
ENDBRANCH   9  10
ENDBRANCH   1   9
BRANCH   3  19
HETATM   19  N3  UNL     1      90.687  63.873   0.920  1.00  0.00    -0.075 N 
ATOM     20  H33 UNL     1      90.267  63.443   0.096  1.00  0.00     0.274 HD
ATOM     21  H32 UNL     1      90.751  64.832   0.581  1.00  0.00     0.274 HD
ATOM     22  H31 UNL     1      91.608  63.482   1.118  1.00  0.00     0.274 HD
ENDBRANCH   3  19
TORSDOF 7
ENDMDL
MODEL 3
REMARK VINA RESULT: -4.562213690      1.851      5.413
REMARK  7 active torsions:
REMARK  status: ('A' for Active; 'I' for Inactive)
REMARK    1  A    between atoms: N1_1  and  C1_5 
REMARK    2  A    between atoms: C1_5  and  C2_6 
REMARK    3  A    between atoms: C2_6  and  C3_7 
REMARK    4  A    between atoms: C3_7  and  N2_8 
REMARK    5  A    between atoms: N2_8  and  C4_10 
REMARK    6  A    between atoms: C4_10  and  C5_11 
REMARK    7  A    between atoms: C7_13  and  N3_14 
ROOT
HETATM    1  C5  UNL     1      87.721  63.557   0.624  1.00  0.00     0.205 C 
HETATM    2  C6  UNL     1      88.548  64.550   1.390  1.00  0.00     0.067 C 
HETATM    3  C7  UNL     1      89.792  63.917   1.983  1.00  0.00     0.187 C 
HETATM    4  C8  UNL     1      89.509  62.571   2.615  1.00  0.00     0.060 C 
HETATM    5  C9  UNL     1      88.575  61.726   1.765  1.00  0.00     0.235 C 
HETATM    6  N4  UNL     1      88.511  62.356   0.452  1.00  0.00    -0.069 N 
ATOM      7  H41 UNL     1      89.427  62.528   0.037  1.00  0.00     0.277 HD
ATOM      8  H42 UNL     1      88.158  61.739  -0.279  1.00  0.00     0.277 HD
ENDROOT
BRANCH   1   9
HETATM    9  C4  UNL     1      87.181  64.101  -0.686  1.00  0.00     0.146 C 
BRANCH   9  10
HETATM   10  N2  UNL     1      87.714  63.303  -1.743  1.00  0.00    -0.419 N 
ATOM     11  H2  UNL     1      87.515  62.306  -1.819  1.00  0.00     0.153 HD
BRANCH  10  12
HETATM   12  C3  UNL     1      88.539  63.980  -2.687  1.00  0.00     0.115 C 
BRANCH  12  13
HETATM   13  C2  UNL     1      89.954  63.449  -2.725  1.00  0.00     0.046 C 
BRANCH  13  14
HETATM   14  C1  UNL     1      90.139  62.574  -3.964  1.00  0.00     0.231 C 
BRANCH  14  15
HETATM   15  N1  UNL     1      91.113  61.543  -3.736  1.00  0.00    -0.079 N 
ATOM     16  H13 UNL     1      90.668  60.651  -3.518  1.00  0.00     0.274 HD
ATOM     17  H12 UNL     1      91.585  61.277  -4.600  1.00  0.00     0.274 HD
ATOM     18  H11 UNL     1      91.779  61.815  -3.014  1.00  0.00     0.274 HD
ENDBRANCH  14  15
ENDBRANCH  13  14
ENDBRANCH  12  13
ENDBRANCH  10  12
ENDBRANCH   9  10
ENDBRANCH   1   9
BRANCH   3  19
HETATM   19  N3  UNL     1      90.853  63.830   1.005  1.00  0.00    -0.075 N 
ATOM     20  H33 UNL     1      90.839  62.935   0.516  1.00  0.00     0.274 HD
ATOM     21  H32 UNL     1      90.681  64.445   0.210  1.00  0.00     0.274 HD
ATOM     22  H31 UNL     1      91.763  64.011   1.430  1.00  0.00     0.274 HD
ENDBRANCH   3  19
TORSDOF 7
ENDMDL
MODEL 4
REMARK VINA RESULT: -4.552155873      3.233      5.608
REMARK  7 active torsions:
REMARK  status: ('A' for Active; 'I' for Inactive)
REMARK    1  A    between atoms: N1_1  and  C1_5 
REMARK    2  A    between atoms: C1_5  and  C2_6 
REMARK    3  A    between atoms: C2_6  and  C3_7 
REMARK    4  A    between atoms: C3_7  and  N2_8 
REMARK    5  A    between atoms: N2_8  and  C4_10 
REMARK    6  A    between atoms: C4_10  and  C5_11 
REMARK    7  A    between atoms: C7_13  and  N3_14 
ROOT
HETATM    1  C5  UNL     1      88.039  66.243   2.870  1.00  0.00     0.205 C 
HETATM    2  C6  UNL     1      88.019  66.242   1.367  1.00  0.00     0.067 C 
HETATM    3  C7  UNL     1      87.546  67.569   0.804  1.00  0.00     0.187 C 
HETATM    4  C8  UNL     1      86.343  68.113   1.543  1.00  0.00     0.060 C 
HETATM    5  C9  UNL     1      86.472  67.946   3.048  1.00  0.00     0.235 C 
HETATM    6  N4  UNL     1      87.864  67.608   3.318  1.00  0.00    -0.069 N 
ATOM      7  H41 UNL     1      88.530  68.260   2.903  1.00  0.00     0.277 HD
ATOM      8  H42 UNL     1      88.137  67.754   4.290  1.00  0.00     0.277 HD
ENDROOT
BRANCH   1   9
HETATM    9  C4  UNL     1      89.270  65.580   3.459  1.00  0.00     0.146 C 
BRANCH   9  10
HETATM   10  N2  UNL     1      89.973  64.939   2.394  1.00  0.00    -0.419 N 
ATOM     11  H2  UNL     1      90.069  65.371   1.475  1.00  0.00     0.153 HD
BRANCH  10  12
HETATM   12  C3  UNL     1      90.531  63.663   2.689  1.00  0.00     0.115 C 
BRANCH  12  13
HETATM   13  C2  UNL     1      89.508  62.550   2.677  1.00  0.00     0.046 C 
BRANCH  13  14
HETATM   14  C1  UNL     1      88.785  62.535   1.330  1.00  0.00     0.231 C 
BRANCH  14  15
HETATM   15  N1  UNL     1      88.289  61.224   1.018  1.00  0.00    -0.079 N 
ATOM     16  H13 UNL     1      88.886  60.751   0.340  1.00  0.00     0.274 HD
ATOM     17  H12 UNL     1      88.404  60.584   1.803  1.00  0.00     0.274 HD
ATOM     18  H11 UNL     1      87.320  61.259   0.703  1.00  0.00     0.274 HD
ENDBRANCH  14  15
ENDBRANCH  13  14
ENDBRANCH  12  13
ENDBRANCH  10  12
ENDBRANCH   9  10
ENDBRANCH   1   9
BRANCH   3  19
HETATM   19  N3  UNL     1      88.622  68.534   0.763  1.00  0.00    -0.075 N 
ATOM     20  H33 UNL     1      88.267  69.489   0.706  1.00  0.00     0.274 HD
ATOM     21  H32 UNL     1      89.102  68.599   1.660  1.00  0.00     0.274 HD
ATOM     22  H31 UNL     1      89.272  68.330   0.003  1.00  0.00     0.274 HD
ENDBRANCH   3  19
TORSDOF 7
ENDMDL
MODEL 5
REMARK VINA RESULT: -4.511967825      1.775      5.740
REMARK  7 active torsions:
REMARK  status: ('A' for Active; 'I' for Inactive)
REMARK    1  A    between atoms: N1_1  and  C1_5 
REMARK    2  A    between atoms: C1_5  and  C2_6 
REMARK    3  A    between atoms: C2_6  and  C3_7 
REMARK    4  A    between atoms: C3_7  and  N2_8 
REMARK    5  A    between atoms: N2_8  and  C4_10 
REMARK    6  A    between atoms: C4_10  and  C5_11 
REMARK    7  A    between atoms: C7_13  and  N3_14 
ROOT
HETATM    1  C5  UNL     1      88.945  63.614   1.329  1.00  0.00     0.205 C 
HETATM    2  C6  UNL     1      87.975  64.726   1.617  1.00  0.00     0.067 C 
HETATM    3  C7  UNL     1      88.627  65.865   2.376  1.00  0.00     0.187 C 
HETATM    4  C8  UNL     1      89.519  65.376   3.497  1.00  0.00     0.060 C 
HETATM    5  C9  UNL     1      90.361  64.183   3.077  1.00  0.00     0.235 C 
HETATM    6  N4  UNL     1      90.277  64.095   1.624  1.00  0.00    -0.069 N 
ATOM      7  H41 UNL     1      90.509  64.968   1.149  1.00  0.00     0.277 HD
ATOM      8  H42 UNL     1      91.016  63.529   1.207  1.00  0.00     0.277 HD
ENDROOT
BRANCH   1   9
HETATM    9  C4  UNL     1      88.818  63.048  -0.073  1.00  0.00     0.146 C 
BRANCH   9  10
HETATM   10  N2  UNL     1      89.989  63.419  -0.801  1.00  0.00    -0.419 N 
ATOM     11  H2  UNL     1      90.926  63.220  -0.453  1.00  0.00     0.153 HD
BRANCH  10  12
HETATM   12  C3  UNL     1      89.772  64.083  -2.043  1.00  0.00     0.115 C 
BRANCH  12  13
HETATM   13  C2  UNL     1      90.721  63.633  -3.130  1.00  0.00     0.046 C 
BRANCH  13  14
HETATM   14  C1  UNL     1      90.185  62.359  -3.782  1.00  0.00     0.231 C 
BRANCH  14  15
HETATM   15  N1  UNL     1      91.214  61.368  -3.920  1.00  0.00    -0.079 N 
ATOM     16  H13 UNL     1      91.524  61.282  -4.888  1.00  0.00     0.274 HD
ATOM     17  H12 UNL     1      92.091  61.679  -3.501  1.00  0.00     0.274 HD
ATOM     18  H11 UNL     1      90.918  60.469  -3.541  1.00  0.00     0.274 HD
ENDBRANCH  14  15
ENDBRANCH  13  14
ENDBRANCH  12  13
ENDBRANCH  10  12
ENDBRANCH   9  10
ENDBRANCH   1   9
BRANCH   3  19
HETATM   19  N3  UNL     1      89.338  66.753   1.483  1.00  0.00    -0.075 N 
ATOM     20  H33 UNL     1      88.720  67.464   1.092  1.00  0.00     0.274 HD
ATOM     21  H32 UNL     1      89.977  67.363   1.992  1.00  0.00     0.274 HD
ATOM     22  H31 UNL     1      89.820  66.231   0.751  1.00  0.00     0.274 HD
ENDBRANCH   3  19
TORSDOF 7
ENDMDL
