MODEL 1
REMARK VINA RESULT: -4.922232393      0.000      0.000
REMARK  8 active torsions:
REMARK  status: ('A' for Active; 'I' for Inactive)
REMARK    1  A    between atoms: N1_1  and  C1_5 
REMARK    2  A    between atoms: C1_5  and  C2_6 
REMARK    3  A    between atoms: C2_6  and  N2_7 
REMARK    4  A    between atoms: N2_7  and  C3_10 
REMARK    5  A    between atoms: C3_10  and  C4_11 
REMARK    6  A    between atoms: C8_15  and  N3_16 
REMARK    7  A    between atoms: C8_15  and  C9_20 
REMARK    8  A    between atoms: C9_20  and  N4_21 
ROOT
HETATM    1  C4  UNL     1      88.776  64.224   1.898  1.00  0.00     0.054 C 
HETATM    2  C5  UNL     1      89.476  63.136   2.683  1.00  0.00     0.001 A 
HETATM    3  C6  UNL     1      89.275  61.722   2.684  1.00  0.00     0.013 A 
HETATM    4  C7  UNL     1      88.848  62.321   1.470  1.00  0.00     0.028 A 
HETATM    5  C8  UNL     1      89.369  63.524   0.722  1.00  0.00     0.156 C 
ENDROOT
BRANCH   1   6
HETATM    6  C3  UNL     1      89.242  65.559   2.323  1.00  0.00     0.239 C 
BRANCH   6   7
HETATM    7  N2  UNL     1      89.494  65.732   3.737  1.00  0.00    -0.073 N 
ATOM      8  H22 UNL     1      90.395  66.175   3.922  1.00  0.00     0.277 HD
ATOM      9  H21 UNL     1      89.672  64.847   4.213  1.00  0.00     0.277 HD
BRANCH   7  10
HETATM   10  C2  UNL     1      88.382  66.466   4.324  1.00  0.00     0.259 C 
BRANCH  10  11
HETATM   11  C1  UNL     1      87.437  67.049   3.331  1.00  0.00     0.257 C 
BRANCH  11  12
HETATM   12  N1  UNL     1      87.629  68.514   3.349  1.00  0.00    -0.078 N 
ATOM     13  H13 UNL     1      86.899  69.005   3.864  1.00  0.00     0.274 HD
ATOM     14  H12 UNL     1      88.417  68.806   3.927  1.00  0.00     0.274 HD
ATOM     15  H11 UNL     1      87.710  68.821   2.380  1.00  0.00     0.274 HD
ENDBRANCH  11  12
ENDBRANCH  10  11
ENDBRANCH   7  10
ENDBRANCH   6   7
ENDBRANCH   1   6
BRANCH   5  16
HETATM   16  N3  UNL     1      90.763  63.594   0.462  1.00  0.00    -0.068 N 
ATOM     17  H33 UNL     1      91.078  64.541   0.670  1.00  0.00     0.275 HD
ATOM     18  H32 UNL     1      91.247  63.051   1.177  1.00  0.00     0.275 HD
ATOM     19  H31 UNL     1      91.139  63.327  -0.449  1.00  0.00     0.275 HD
ENDBRANCH   5  16
BRANCH   5  20
HETATM   20  C9  UNL     1      88.593  63.720  -0.595  1.00  0.00     0.269 C 
BRANCH  20  21
HETATM   21  N4  UNL     1      88.467  62.393  -1.176  1.00  0.00    -0.077 N 
ATOM     22  H43 UNL     1      89.343  61.870  -1.198  1.00  0.00     0.274 HD
ATOM     23  H42 UNL     1      87.950  61.737  -0.591  1.00  0.00     0.274 HD
ATOM     24  H41 UNL     1      88.052  62.534  -2.097  1.00  0.00     0.274 HD
ENDBRANCH  20  21
ENDBRANCH   5  20
TORSDOF 8
ENDMDL
MODEL 2
REMARK VINA RESULT: -4.884222998      0.869      1.031
REMARK  8 active torsions:
REMARK  status: ('A' for Active; 'I' for Inactive)
REMARK    1  A    between atoms: N1_1  and  C1_5 
REMARK    2  A    between atoms: C1_5  and  C2_6 
REMARK    3  A    between atoms: C2_6  and  N2_7 
REMARK    4  A    between atoms: N2_7  and  C3_10 
REMARK    5  A    between atoms: C3_10  and  C4_11 
REMARK    6  A    between atoms: C8_15  and  N3_16 
REMARK    7  A    between atoms: C8_15  and  C9_20 
REMARK    8  A    between atoms: C9_20  and  N4_21 
ROOT
HETATM    1  C4  UNL     1      88.881  64.136   1.987  1.00  0.00     0.054 C 
HETATM    2  C5  UNL     1      89.531  62.951   2.667  1.00  0.00     0.001 A 
HETATM    3  C6  UNL     1      89.186  61.565   2.639  1.00  0.00     0.013 A 
HETATM    4  C7  UNL     1      88.717  62.255   1.490  1.00  0.00     0.028 A 
HETATM    5  C8  UNL     1      89.291  63.431   0.738  1.00  0.00     0.156 C 
ENDROOT
BRANCH   1   6
HETATM    6  C3  UNL     1      89.520  65.398   2.411  1.00  0.00     0.239 C 
BRANCH   6   7
HETATM    7  N2  UNL     1      89.250  66.561   1.595  1.00  0.00    -0.073 N 
ATOM      8  H22 UNL     1      89.589  66.455   0.639  1.00  0.00     0.277 HD
ATOM      9  H21 UNL     1      89.821  67.364   1.859  1.00  0.00     0.277 HD
BRANCH   7  10
HETATM   10  C2  UNL     1      87.823  66.851   1.650  1.00  0.00     0.259 C 
BRANCH  10  11
HETATM   11  C1  UNL     1      87.343  67.325   2.978  1.00  0.00     0.257 C 
BRANCH  11  12
HETATM   12  N1  UNL     1      87.439  68.800   2.979  1.00  0.00    -0.078 N 
ATOM     13  H13 UNL     1      87.032  69.226   2.148  1.00  0.00     0.274 HD
ATOM     14  H12 UNL     1      86.826  69.239   3.666  1.00  0.00     0.274 HD
ATOM     15  H11 UNL     1      88.421  69.039   3.111  1.00  0.00     0.274 HD
ENDBRANCH  11  12
ENDBRANCH  10  11
ENDBRANCH   7  10
ENDBRANCH   6   7
ENDBRANCH   1   6
BRANCH   5  16
HETATM   16  N3  UNL     1      90.657  63.372   0.352  1.00  0.00    -0.068 N 
ATOM     17  H33 UNL     1      90.891  64.244  -0.123  1.00  0.00     0.275 HD
ATOM     18  H32 UNL     1      91.228  63.433   1.195  1.00  0.00     0.275 HD
ATOM     19  H31 UNL     1      91.007  62.598  -0.213  1.00  0.00     0.275 HD
ENDBRANCH   5  16
BRANCH   5  20
HETATM   20  C9  UNL     1      88.426  63.760  -0.494  1.00  0.00     0.269 C 
BRANCH  20  21
HETATM   21  N4  UNL     1      88.387  62.538  -1.282  1.00  0.00    -0.077 N 
ATOM     22  H43 UNL     1      88.034  61.731  -0.769  1.00  0.00     0.274 HD
ATOM     23  H42 UNL     1      87.672  62.542  -2.009  1.00  0.00     0.274 HD
ATOM     24  H41 UNL     1      89.334  62.412  -1.640  1.00  0.00     0.274 HD
ENDBRANCH  20  21
ENDBRANCH   5  20
TORSDOF 8
ENDMDL
MODEL 3
REMARK VINA RESULT: -4.741619715      1.552      1.813
REMARK  8 active torsions:
REMARK  status: ('A' for Active; 'I' for Inactive)
REMARK    1  A    between atoms: N1_1  and  C1_5 
REMARK    2  A    between atoms: C1_5  and  C2_6 
REMARK    3  A    between atoms: C2_6  and  N2_7 
REMARK    4  A    between atoms: N2_7  and  C3_10 
REMARK    5  A    between atoms: C3_10  and  C4_11 
REMARK    6  A    between atoms: C8_15  and  N3_16 
REMARK    7  A    between atoms: C8_15  and  C9_20 
REMARK    8  A    between atoms: C9_20  and  N4_21 
ROOT
HETATM    1  C4  UNL     1      88.781  64.197   1.837  1.00  0.00     0.054 C 
HETATM    2  C5  UNL     1      89.491  63.092   2.590  1.00  0.00     0.001 A 
HETATM    3  C6  UNL     1      89.206  61.695   2.665  1.00  0.00     0.013 A 
HETATM    4  C7  UNL     1      88.695  62.280   1.477  1.00  0.00     0.028 A 
HETATM    5  C8  UNL     1      89.208  63.423   0.635  1.00  0.00     0.156 C 
ENDROOT
BRANCH   1   6
HETATM    6  C3  UNL     1      89.369  65.512   2.161  1.00  0.00     0.239 C 
BRANCH   6   7
HETATM    7  N2  UNL     1      88.442  66.615   2.294  1.00  0.00    -0.073 N 
ATOM      8  H22 UNL     1      88.831  67.389   2.834  1.00  0.00     0.277 HD
ATOM      9  H21 UNL     1      87.658  66.394   2.909  1.00  0.00     0.277 HD
BRANCH   7  10
HETATM   10  C2  UNL     1      88.010  67.026   0.965  1.00  0.00     0.259 C 
BRANCH  10  11
HETATM   11  C1  UNL     1      89.121  67.390   0.043  1.00  0.00     0.257 C 
BRANCH  11  12
HETATM   12  N1  UNL     1      89.409  68.825   0.246  1.00  0.00    -0.078 N 
ATOM     13  H13 UNL     1      89.318  69.375  -0.608  1.00  0.00     0.274 HD
ATOM     14  H12 UNL     1      88.689  69.304   0.788  1.00  0.00     0.274 HD
ATOM     15  H11 UNL     1      90.335  68.892   0.667  1.00  0.00     0.274 HD
ENDBRANCH  11  12
ENDBRANCH  10  11
ENDBRANCH   7  10
ENDBRANCH   6   7
ENDBRANCH   1   6
BRANCH   5  16
HETATM   16  N3  UNL     1      90.570  63.395   0.235  1.00  0.00    -0.068 N 
ATOM     17  H33 UNL     1      91.111  63.932   0.912  1.00  0.00     0.275 HD
ATOM     18  H32 UNL     1      90.926  62.450   0.385  1.00  0.00     0.275 HD
ATOM     19  H31 UNL     1      90.846  63.693  -0.701  1.00  0.00     0.275 HD
ENDBRANCH   5  16
BRANCH   5  20
HETATM   20  C9  UNL     1      88.315  63.625  -0.605  1.00  0.00     0.269 C 
BRANCH  20  21
HETATM   21  N4  UNL     1      88.367  62.367  -1.333  1.00  0.00    -0.077 N 
ATOM     22  H43 UNL     1      89.311  62.086  -1.599  1.00  0.00     0.274 HD
ATOM     23  H42 UNL     1      88.155  61.552  -0.757  1.00  0.00     0.274 HD
ATOM     24  H41 UNL     1      87.736  62.483  -2.126  1.00  0.00     0.274 HD
ENDBRANCH  20  21
ENDBRANCH   5  20
TORSDOF 8
ENDMDL
MODEL 4
REMARK VINA RESULT: -4.696005209      1.848      5.327
REMARK  8 active torsions:
REMARK  status: ('A' for Active; 'I' for Inactive)
REMARK    1  A    between atoms: N1_1  and  C1_5 
REMARK    2  A    between atoms: C1_5  and  C2_6 
REMARK    3  A    between atoms: C2_6  and  N2_7 
REMARK    4  A    between atoms: N2_7  and  C3_10 
REMARK    5  A    between atoms: C3_10  and  C4_11 
REMARK    6  A    between atoms: C8_15  and  N3_16 
REMARK    7  A    between atoms: C8_15  and  C9_20 
REMARK    8  A    between atoms: C9_20  and  N4_21 
ROOT
HETATM    1  C4  UNL     1      89.497  63.640   0.601  1.00  0.00     0.054 C 
HETATM    2  C5  UNL     1      88.972  62.403   1.298  1.00  0.00     0.001 A 
HETATM    3  C6  UNL     1      89.199  61.924   2.624  1.00  0.00     0.013 A 
HETATM    4  C7  UNL     1      89.389  63.327   2.525  1.00  0.00     0.028 A 
HETATM    5  C8  UNL     1      88.718  64.358   1.650  1.00  0.00     0.156 C 
ENDROOT
BRANCH   1   6
HETATM    6  C3  UNL     1      89.086  63.654  -0.818  1.00  0.00     0.239 C 
BRANCH   6   7
HETATM    7  N2  UNL     1      88.432  62.462  -1.310  1.00  0.00    -0.073 N 
ATOM      8  H22 UNL     1      87.496  62.341  -0.921  1.00  0.00     0.277 HD
ATOM      9  H21 UNL     1      88.849  61.607  -0.941  1.00  0.00     0.277 HD
BRANCH   7  10
HETATM   10  C2  UNL     1      88.428  62.497  -2.766  1.00  0.00     0.259 C 
BRANCH  10  11
HETATM   11  C1  UNL     1      88.169  61.180  -3.412  1.00  0.00     0.257 C 
BRANCH  11  12
HETATM   12  N1  UNL     1      86.716  61.093  -3.665  1.00  0.00    -0.078 N 
ATOM     13  H13 UNL     1      86.492  60.832  -4.624  1.00  0.00     0.274 HD
ATOM     14  H12 UNL     1      86.277  60.295  -3.205  1.00  0.00     0.274 HD
ATOM     15  H11 UNL     1      86.306  61.986  -3.388  1.00  0.00     0.274 HD
ENDBRANCH  11  12
ENDBRANCH  10  11
ENDBRANCH   7  10
ENDBRANCH   6   7
ENDBRANCH   1   6
BRANCH   5  16
HETATM   16  N3  UNL     1      87.299  64.379   1.615  1.00  0.00    -0.068 N 
ATOM     17  H33 UNL     1      86.956  63.616   2.199  1.00  0.00     0.275 HD
ATOM     18  H32 UNL     1      86.980  65.198   2.134  1.00  0.00     0.275 HD
ATOM     19  H31 UNL     1      86.797  64.350   0.727  1.00  0.00     0.275 HD
ENDBRANCH   5  16
BRANCH   5  20
HETATM   20  C9  UNL     1      89.241  65.770   1.979  1.00  0.00     0.269 C 
BRANCH  20  21
HETATM   21  N4  UNL     1      90.091  65.609   3.149  1.00  0.00    -0.077 N 
ATOM     22  H43 UNL     1      90.788  64.872   3.050  1.00  0.00     0.274 HD
ATOM     23  H42 UNL     1      90.746  66.379   3.288  1.00  0.00     0.274 HD
ATOM     24  H41 UNL     1      89.454  65.467   3.933  1.00  0.00     0.274 HD
ENDBRANCH  20  21
ENDBRANCH   5  20
TORSDOF 8
ENDMDL
MODEL 5
REMARK VINA RESULT: -4.634959571      1.972      5.391
REMARK  8 active torsions:
REMARK  status: ('A' for Active; 'I' for Inactive)
REMARK    1  A    between atoms: N1_1  and  C1_5 
REMARK    2  A    between atoms: C1_5  and  C2_6 
REMARK    3  A    between atoms: C2_6  and  N2_7 
REMARK    4  A    between atoms: N2_7  and  C3_10 
REMARK    5  A    between atoms: C3_10  and  C4_11 
REMARK    6  A    between atoms: C8_15  and  N3_16 
REMARK    7  A    between atoms: C8_15  and  C9_20 
REMARK    8  A    between atoms: C9_20  and  N4_21 
ROOT
HETATM    1  C4  UNL     1      89.233  63.634   0.215  1.00  0.00     0.054 C 
HETATM    2  C5  UNL     1      88.755  62.425   0.990  1.00  0.00     0.001 A 
HETATM    3  C6  UNL     1      89.071  61.991   2.313  1.00  0.00     0.013 A 
HETATM    4  C7  UNL     1      89.257  63.389   2.151  1.00  0.00     0.028 A 
HETATM    5  C8  UNL     1      88.529  64.392   1.289  1.00  0.00     0.156 C 
ENDROOT
BRANCH   1   6
HETATM    6  C3  UNL     1      88.726  63.601  -1.172  1.00  0.00     0.239 C 
BRANCH   6   7
HETATM    7  N2  UNL     1      88.492  62.291  -1.740  1.00  0.00    -0.073 N 
ATOM      8  H22 UNL     1      87.526  61.983  -1.625  1.00  0.00     0.277 HD
ATOM      9  H21 UNL     1      88.942  61.548  -1.206  1.00  0.00     0.277 HD
BRANCH   7  10
HETATM   10  C2  UNL     1      88.909  62.305  -3.136  1.00  0.00     0.259 C 
BRANCH  10  11
HETATM   11  C1  UNL     1      90.311  62.758  -3.354  1.00  0.00     0.257 C 
BRANCH  11  12
HETATM   12  N1  UNL     1      91.103  61.569  -3.730  1.00  0.00    -0.078 N 
ATOM     13  H13 UNL     1      91.274  61.505  -4.733  1.00  0.00     0.274 HD
ATOM     14  H12 UNL     1      92.078  61.628  -3.433  1.00  0.00     0.274 HD
ATOM     15  H11 UNL     1      90.621  60.753  -3.354  1.00  0.00     0.274 HD
ENDBRANCH  11  12
ENDBRANCH  10  11
ENDBRANCH   7  10
ENDBRANCH   6   7
ENDBRANCH   1   6
BRANCH   5  16
HETATM   16  N3  UNL     1      87.111  64.417   1.351  1.00  0.00    -0.068 N 
ATOM     17  H33 UNL     1      86.760  63.544   0.959  1.00  0.00     0.275 HD
ATOM     18  H32 UNL     1      86.834  64.333   2.329  1.00  0.00     0.275 HD
ATOM     19  H31 UNL     1      86.584  65.187   0.936  1.00  0.00     0.275 HD
ENDBRANCH   5  16
BRANCH   5  20
HETATM   20  C9  UNL     1      89.077  65.812   1.532  1.00  0.00     0.269 C 
BRANCH  20  21
HETATM   21  N4  UNL     1      89.808  65.739   2.787  1.00  0.00    -0.077 N 
ATOM     22  H43 UNL     1      89.430  66.343   3.517  1.00  0.00     0.274 HD
ATOM     23  H42 UNL     1      89.685  64.857   3.282  1.00  0.00     0.274 HD
ATOM     24  H41 UNL     1      90.780  65.943   2.550  1.00  0.00     0.274 HD
ENDBRANCH  20  21
ENDBRANCH   5  20
TORSDOF 8
ENDMDL
