MODEL 1
REMARK VINA RESULT: -4.827949033      0.000      0.000
REMARK  7 active torsions:
REMARK  status: ('A' for Active; 'I' for Inactive)
REMARK    1  A    between atoms: C2_7  and  C3_8 
REMARK    2  A    between atoms: C3_8  and  C4_9 
REMARK    3  A    between atoms: C4_9  and  C5_10 
REMARK    4  A    between atoms: C5_10  and  N3_11 
REMARK    5  A    between atoms: N4_16  and  C7_17 
REMARK    6  A    between atoms: C7_17  and  C8_18 
REMARK    7  A    between atoms: C8_18  and  N5_19 
ROOT
HETATM    1  N1  UNL     1      86.383  60.636  -0.082  1.00  0.00    -0.371 N 
ATOM      2  H11 UNL     1      85.507  60.599  -0.603  1.00  0.00     0.159 HD
ATOM      3  H12 UNL     1      86.647  59.689   0.191  1.00  0.00     0.159 HD
HETATM    4  C1  UNL     1      87.054  61.730   0.189  1.00  0.00     0.171 C 
HETATM    5  N2  UNL     1      88.288  61.783   0.923  1.00  0.00    -0.356 N 
ATOM      6  H2  UNL     1      88.819  60.997   1.299  1.00  0.00     0.163 HD
HETATM    7  C2  UNL     1      88.617  63.188   1.012  1.00  0.00     0.102 C 
HETATM    8  C6  UNL     1      87.968  63.746  -0.234  1.00  0.00     0.151 C 
HETATM    9  N4  UNL     1      86.685  63.052  -0.192  1.00  0.00    -0.350 N 
ENDROOT
BRANCH   7  10
HETATM   10  C3  UNL     1      90.096  63.428   1.073  1.00  0.00     0.028 C 
BRANCH  10  11
HETATM   11  C4  UNL     1      90.593  63.880   2.407  1.00  0.00     0.029 C 
BRANCH  11  12
HETATM   12  C5  UNL     1      89.836  65.169   2.748  1.00  0.00     0.230 C 
BRANCH  12  13
HETATM   13  N3  UNL     1      89.831  65.325   4.189  1.00  0.00    -0.079 N 
ATOM     14  H33 UNL     1      88.892  65.435   4.570  1.00  0.00     0.274 HD
ATOM     15  H32 UNL     1      90.080  64.465   4.678  1.00  0.00     0.274 HD
ATOM     16  H31 UNL     1      90.445  66.105   4.427  1.00  0.00     0.274 HD
ENDBRANCH  12  13
ENDBRANCH  11  12
ENDBRANCH  10  11
ENDBRANCH   7  10
BRANCH   9  17
HETATM   17  C7  UNL     1      85.360  63.498  -0.451  1.00  0.00     0.153 C 
BRANCH  17  18
HETATM   18  C8  UNL     1      84.737  64.299   0.672  1.00  0.00     0.249 C 
BRANCH  18  19
HETATM   19  N5  UNL     1      84.137  63.479   1.694  1.00  0.00    -0.078 N 
ATOM     20  H53 UNL     1      83.131  63.640   1.742  1.00  0.00     0.274 HD
ATOM     21  H52 UNL     1      84.137  62.497   1.417  1.00  0.00     0.274 HD
ATOM     22  H51 UNL     1      84.566  63.598   2.612  1.00  0.00     0.274 HD
ENDBRANCH  18  19
ENDBRANCH  17  18
ENDBRANCH   9  17
TORSDOF 7
ENDMDL
MODEL 2
REMARK VINA RESULT: -4.788672737      7.733      9.493
REMARK  7 active torsions:
REMARK  status: ('A' for Active; 'I' for Inactive)
REMARK    1  A    between atoms: C2_7  and  C3_8 
REMARK    2  A    between atoms: C3_8  and  C4_9 
REMARK    3  A    between atoms: C4_9  and  C5_10 
REMARK    4  A    between atoms: C5_10  and  N3_11 
REMARK    5  A    between atoms: N4_16  and  C7_17 
REMARK    6  A    between atoms: C7_17  and  C8_18 
REMARK    7  A    between atoms: C8_18  and  N5_19 
ROOT
HETATM    1  N1  UNL     1      91.055  72.338  -1.515  1.00  0.00    -0.371 N 
ATOM      2  H11 UNL     1      90.567  71.877  -2.283  1.00  0.00     0.159 HD
ATOM      3  H12 UNL     1      91.776  72.949  -1.900  1.00  0.00     0.159 HD
HETATM    4  C1  UNL     1      90.791  72.166  -0.242  1.00  0.00     0.171 C 
HETATM    5  N2  UNL     1      91.479  72.816   0.840  1.00  0.00    -0.356 N 
ATOM      6  H2  UNL     1      92.227  73.506   0.773  1.00  0.00     0.163 HD
HETATM    7  C2  UNL     1      90.882  72.281   2.044  1.00  0.00     0.102 C 
HETATM    8  C6  UNL     1      89.485  71.937   1.581  1.00  0.00     0.151 C 
HETATM    9  N4  UNL     1      89.784  71.315   0.295  1.00  0.00    -0.350 N 
ENDROOT
BRANCH   7  10
HETATM   10  C3  UNL     1      90.909  73.261   3.180  1.00  0.00     0.028 C 
BRANCH  10  11
HETATM   11  C4  UNL     1      89.570  73.805   3.557  1.00  0.00     0.029 C 
BRANCH  11  12
HETATM   12  C5  UNL     1      89.271  73.304   4.975  1.00  0.00     0.230 C 
BRANCH  12  13
HETATM   13  N3  UNL     1      87.843  73.082   5.085  1.00  0.00    -0.079 N 
ATOM     14  H33 UNL     1      87.297  73.906   4.834  1.00  0.00     0.274 HD
ATOM     15  H32 UNL     1      87.486  72.454   4.365  1.00  0.00     0.274 HD
ATOM     16  H31 UNL     1      87.644  72.752   6.030  1.00  0.00     0.274 HD
ENDBRANCH  12  13
ENDBRANCH  11  12
ENDBRANCH  10  11
ENDBRANCH   7  10
BRANCH   9  17
HETATM   17  C7  UNL     1      89.256  70.157  -0.340  1.00  0.00     0.153 C 
BRANCH  17  18
HETATM   18  C8  UNL     1      87.745  70.089  -0.366  1.00  0.00     0.249 C 
BRANCH  18  19
HETATM   19  N5  UNL     1      87.154  70.897  -1.403  1.00  0.00    -0.078 N 
ATOM     20  H53 UNL     1      87.259  70.450  -2.314  1.00  0.00     0.274 HD
ATOM     21  H52 UNL     1      86.136  70.892  -1.330  1.00  0.00     0.274 HD
ATOM     22  H51 UNL     1      87.511  71.852  -1.426  1.00  0.00     0.274 HD
ENDBRANCH  18  19
ENDBRANCH  17  18
ENDBRANCH   9  17
TORSDOF 7
ENDMDL
MODEL 3
REMARK VINA RESULT: -4.741874279      7.817      9.539
REMARK  7 active torsions:
REMARK  status: ('A' for Active; 'I' for Inactive)
REMARK    1  A    between atoms: C2_7  and  C3_8 
REMARK    2  A    between atoms: C3_8  and  C4_9 
REMARK    3  A    between atoms: C4_9  and  C5_10 
REMARK    4  A    between atoms: C5_10  and  N3_11 
REMARK    5  A    between atoms: N4_16  and  C7_17 
REMARK    6  A    between atoms: C7_17  and  C8_18 
REMARK    7  A    between atoms: C8_18  and  N5_19 
ROOT
HETATM    1  N1  UNL     1      88.618  69.670   0.231  1.00  0.00    -0.371 N 
ATOM      2  H11 UNL     1      88.780  69.088  -0.590  1.00  0.00     0.159 HD
ATOM      3  H12 UNL     1      87.827  69.293   0.755  1.00  0.00     0.159 HD
HETATM    4  C1  UNL     1      89.317  70.732   0.553  1.00  0.00     0.171 C 
HETATM    5  N2  UNL     1      89.089  71.553   1.710  1.00  0.00    -0.356 N 
ATOM      6  H2  UNL     1      88.391  71.414   2.441  1.00  0.00     0.163 HD
HETATM    7  C2  UNL     1      90.062  72.619   1.617  1.00  0.00     0.102 C 
HETATM    8  C6  UNL     1      91.185  71.958   0.850  1.00  0.00     0.151 C 
HETATM    9  N4  UNL     1      90.421  71.258  -0.177  1.00  0.00    -0.350 N 
ENDROOT
BRANCH   7  10
HETATM   10  C3  UNL     1      90.480  73.133   2.963  1.00  0.00     0.028 C 
BRANCH  10  11
HETATM   11  C4  UNL     1      89.435  73.934   3.668  1.00  0.00     0.029 C 
BRANCH  11  12
HETATM   12  C5  UNL     1      89.111  73.194   4.971  1.00  0.00     0.230 C 
BRANCH  12  13
HETATM   13  N3  UNL     1      87.670  73.096   5.091  1.00  0.00    -0.079 N 
ATOM     14  H33 UNL     1      87.181  73.809   4.551  1.00  0.00     0.274 HD
ATOM     15  H32 UNL     1      87.291  72.277   4.614  1.00  0.00     0.274 HD
ATOM     16  H31 UNL     1      87.430  73.120   6.082  1.00  0.00     0.274 HD
ENDBRANCH  12  13
ENDBRANCH  11  12
ENDBRANCH  10  11
ENDBRANCH   7  10
BRANCH   9  17
HETATM   17  C7  UNL     1      90.644  71.090  -1.571  1.00  0.00     0.153 C 
BRANCH  17  18
HETATM   18  C8  UNL     1      89.611  71.750  -2.457  1.00  0.00     0.249 C 
BRANCH  18  19
HETATM   19  N5  UNL     1      90.131  72.864  -3.210  1.00  0.00    -0.078 N 
ATOM     20  H53 UNL     1      89.523  73.678  -3.119  1.00  0.00     0.274 HD
ATOM     21  H52 UNL     1      90.975  73.235  -2.772  1.00  0.00     0.274 HD
ATOM     22  H51 UNL     1      90.299  72.646  -4.192  1.00  0.00     0.274 HD
ENDBRANCH  18  19
ENDBRANCH  17  18
ENDBRANCH   9  17
TORSDOF 7
ENDMDL
MODEL 4
REMARK VINA RESULT: -4.698651404      5.224      6.974
REMARK  7 active torsions:
REMARK  status: ('A' for Active; 'I' for Inactive)
REMARK    1  A    between atoms: C2_7  and  C3_8 
REMARK    2  A    between atoms: C3_8  and  C4_9 
REMARK    3  A    between atoms: C4_9  and  C5_10 
REMARK    4  A    between atoms: C5_10  and  N3_11 
REMARK    5  A    between atoms: N4_16  and  C7_17 
REMARK    6  A    between atoms: C7_17  and  C8_18 
REMARK    7  A    between atoms: C8_18  and  N5_19 
ROOT
HETATM    1  N1  UNL     1      88.270  70.794   1.553  1.00  0.00    -0.371 N 
ATOM      2  H11 UNL     1      88.455  71.348   0.718  1.00  0.00     0.159 HD
ATOM      3  H12 UNL     1      88.502  71.348   2.378  1.00  0.00     0.159 HD
HETATM    4  C1  UNL     1      87.809  69.565   1.557  1.00  0.00     0.171 C 
HETATM    5  N2  UNL     1      87.549  68.784   2.734  1.00  0.00    -0.356 N 
ATOM      6  H2  UNL     1      87.652  69.075   3.707  1.00  0.00     0.163 HD
HETATM    7  C2  UNL     1      87.107  67.497   2.245  1.00  0.00     0.102 C 
HETATM    8  C6  UNL     1      86.485  67.859   0.915  1.00  0.00     0.151 C 
HETATM    9  N4  UNL     1      87.485  68.792   0.407  1.00  0.00    -0.350 N 
ENDROOT
BRANCH   7  10
HETATM   10  C3  UNL     1      86.153  66.823   3.186  1.00  0.00     0.028 C 
BRANCH  10  11
HETATM   11  C4  UNL     1      84.821  67.491   3.297  1.00  0.00     0.029 C 
BRANCH  11  12
HETATM   12  C5  UNL     1      83.768  66.447   2.906  1.00  0.00     0.230 C 
BRANCH  12  13
HETATM   13  N3  UNL     1      82.753  67.104   2.107  1.00  0.00    -0.079 N 
ATOM     14  H33 UNL     1      82.814  68.121   2.153  1.00  0.00     0.274 HD
ATOM     15  H32 UNL     1      82.914  67.001   1.105  1.00  0.00     0.274 HD
ATOM     16  H31 UNL     1      81.841  66.752   2.397  1.00  0.00     0.274 HD
ENDBRANCH  12  13
ENDBRANCH  11  12
ENDBRANCH  10  11
ENDBRANCH   7  10
BRANCH   9  17
HETATM   17  C7  UNL     1      88.049  68.960  -0.888  1.00  0.00     0.153 C 
BRANCH  17  18
HETATM   18  C8  UNL     1      87.131  69.620  -1.892  1.00  0.00     0.249 C 
BRANCH  18  19
HETATM   19  N5  UNL     1      87.000  71.043  -1.698  1.00  0.00    -0.078 N 
ATOM     20  H53 UNL     1      87.780  71.539  -2.129  1.00  0.00     0.274 HD
ATOM     21  H52 UNL     1      86.233  71.415  -2.258  1.00  0.00     0.274 HD
ATOM     22  H51 UNL     1      86.898  71.310  -0.720  1.00  0.00     0.274 HD
ENDBRANCH  18  19
ENDBRANCH  17  18
ENDBRANCH   9  17
TORSDOF 7
ENDMDL
MODEL 5
REMARK VINA RESULT: -4.687645119      1.902      4.797
REMARK  7 active torsions:
REMARK  status: ('A' for Active; 'I' for Inactive)
REMARK    1  A    between atoms: C2_7  and  C3_8 
REMARK    2  A    between atoms: C3_8  and  C4_9 
REMARK    3  A    between atoms: C4_9  and  C5_10 
REMARK    4  A    between atoms: C5_10  and  N3_11 
REMARK    5  A    between atoms: N4_16  and  C7_17 
REMARK    6  A    between atoms: C7_17  and  C8_18 
REMARK    7  A    between atoms: C8_18  and  N5_19 
ROOT
HETATM    1  N1  UNL     1      88.341  61.708   0.761  1.00  0.00    -0.371 N 
ATOM      2  H11 UNL     1      89.344  61.833   0.901  1.00  0.00     0.159 HD
ATOM      3  H12 UNL     1      88.120  60.713   0.818  1.00  0.00     0.159 HD
HETATM    4  C1  UNL     1      87.483  62.675   0.541  1.00  0.00     0.171 C 
HETATM    5  N2  UNL     1      86.071  62.499   0.344  1.00  0.00    -0.356 N 
ATOM      6  H2  UNL     1      85.545  61.626   0.376  1.00  0.00     0.163 HD
HETATM    7  C2  UNL     1      85.555  63.826   0.091  1.00  0.00     0.102 C 
HETATM    8  C6  UNL     1      86.534  64.697   0.843  1.00  0.00     0.151 C 
HETATM    9  N4  UNL     1      87.792  64.063   0.461  1.00  0.00    -0.350 N 
ENDROOT
BRANCH   7  10
HETATM   10  C3  UNL     1      84.137  63.987   0.552  1.00  0.00     0.028 C 
BRANCH  10  11
HETATM   11  C4  UNL     1      83.961  64.952   1.678  1.00  0.00     0.029 C 
BRANCH  11  12
HETATM   12  C5  UNL     1      82.710  65.781   1.361  1.00  0.00     0.230 C 
BRANCH  12  13
HETATM   13  N3  UNL     1      82.770  67.007   2.131  1.00  0.00    -0.079 N 
ATOM     14  H33 UNL     1      83.701  67.191   2.505  1.00  0.00     0.274 HD
ATOM     15  H32 UNL     1      82.687  67.841   1.549  1.00  0.00     0.274 HD
ATOM     16  H31 UNL     1      82.057  66.962   2.859  1.00  0.00     0.274 HD
ENDBRANCH  12  13
ENDBRANCH  11  12
ENDBRANCH  10  11
ENDBRANCH   7  10
BRANCH   9  17
HETATM   17  C7  UNL     1      89.052  64.609   0.090  1.00  0.00     0.153 C 
BRANCH  17  18
HETATM   18  C8  UNL     1      89.253  66.053   0.493  1.00  0.00     0.249 C 
BRANCH  18  19
HETATM   19  N5  UNL     1      89.719  66.209   1.848  1.00  0.00    -0.078 N 
ATOM     20  H53 UNL     1      89.804  67.197   2.089  1.00  0.00     0.274 HD
ATOM     21  H52 UNL     1      88.996  65.935   2.514  1.00  0.00     0.274 HD
ATOM     22  H51 UNL     1      90.591  65.714   2.036  1.00  0.00     0.274 HD
ENDBRANCH  18  19
ENDBRANCH  17  18
ENDBRANCH   9  17
TORSDOF 7
ENDMDL
