MODEL 1
REMARK VINA RESULT: -4.602206122      0.000      0.000
REMARK  7 active torsions:
REMARK  status: ('A' for Active; 'I' for Inactive)
REMARK    1  A    between atoms: N1_1  and  C1_5 
REMARK    2  A    between atoms: C1_5  and  C2_6 
REMARK    3  A    between atoms: C2_6  and  N2_7 
REMARK    4  A    between atoms: N2_7  and  C3_10 
REMARK    5  A    between atoms: C7_14  and  C8_15 
REMARK    6  A    between atoms: C8_15  and  C9_16 
REMARK    7  A    between atoms: C9_16  and  N3_17 
ROOT
HETATM    1  C3  UNL     1      89.715  72.708   3.567  1.00  0.00     0.222 C 
HETATM    2  C4  UNL     1      91.177  73.190   3.443  1.00  0.00     0.217 C 
HETATM    3  C5  UNL     1      90.601  74.173   2.453  1.00  0.00     0.044 C 
HETATM    4  C6  UNL     1      89.747  72.980   2.054  1.00  0.00     0.051 C 
HETATM    5  C7  UNL     1      90.746  72.000   1.582  1.00  0.00     0.194 C 
HETATM    6  N4  UNL     1      91.715  72.086   2.706  1.00  0.00    -0.064 N 
ATOM      7  H41 UNL     1      91.847  71.226   3.238  1.00  0.00     0.278 HD
ATOM      8  H42 UNL     1      92.694  72.175   2.435  1.00  0.00     0.278 HD
ENDROOT
BRANCH   1   9
HETATM    9  N2  UNL     1      88.854  73.577   4.301  1.00  0.00    -0.067 N 
ATOM     10  H22 UNL     1      88.122  74.000   3.729  1.00  0.00     0.277 HD
ATOM     11  H21 UNL     1      89.305  74.445   4.589  1.00  0.00     0.277 HD
BRANCH   9  12
HETATM   12  C2  UNL     1      88.334  72.789   5.424  1.00  0.00     0.260 C 
BRANCH  12  13
HETATM   13  C1  UNL     1      89.009  73.237   6.718  1.00  0.00     0.257 C 
BRANCH  13  14
HETATM   14  N1  UNL     1      88.526  74.574   7.007  1.00  0.00    -0.078 N 
ATOM     15  H13 UNL     1      87.798  74.591   7.721  1.00  0.00     0.274 HD
ATOM     16  H12 UNL     1      89.207  75.148   7.503  1.00  0.00     0.274 HD
ATOM     17  H11 UNL     1      88.228  74.981   6.120  1.00  0.00     0.274 HD
ENDBRANCH  13  14
ENDBRANCH  12  13
ENDBRANCH   9  12
ENDBRANCH   1   9
BRANCH   5  18
HETATM   18  C8  UNL     1      91.553  72.435   0.376  1.00  0.00     0.060 C 
BRANCH  18  19
HETATM   19  C9  UNL     1      91.223  71.443  -0.746  1.00  0.00     0.231 C 
BRANCH  19  20
HETATM   20  N3  UNL     1      90.011  71.983  -1.396  1.00  0.00    -0.079 N 
ATOM     21  H33 UNL     1      89.992  73.001  -1.450  1.00  0.00     0.274 HD
ATOM     22  H32 UNL     1      89.972  71.812  -2.400  1.00  0.00     0.274 HD
ATOM     23  H31 UNL     1      89.230  71.583  -0.878  1.00  0.00     0.274 HD
ENDBRANCH  19  20
ENDBRANCH  18  19
ENDBRANCH   5  18
TORSDOF 7
ENDMDL
MODEL 2
REMARK VINA RESULT: -4.572818023      3.620      5.292
REMARK  7 active torsions:
REMARK  status: ('A' for Active; 'I' for Inactive)
REMARK    1  A    between atoms: N1_1  and  C1_5 
REMARK    2  A    between atoms: C1_5  and  C2_6 
REMARK    3  A    between atoms: C2_6  and  N2_7 
REMARK    4  A    between atoms: N2_7  and  C3_10 
REMARK    5  A    between atoms: C7_14  and  C8_15 
REMARK    6  A    between atoms: C8_15  and  C9_16 
REMARK    7  A    between atoms: C9_16  and  N3_17 
ROOT
HETATM    1  C3  UNL     1      89.163  70.792   0.260  1.00  0.00     0.222 C 
HETATM    2  C4  UNL     1      89.914  69.754  -0.602  1.00  0.00     0.217 C 
HETATM    3  C5  UNL     1      88.935  70.171  -1.673  1.00  0.00     0.044 C 
HETATM    4  C6  UNL     1      87.964  70.206  -0.503  1.00  0.00     0.051 C 
HETATM    5  C7  UNL     1      87.953  68.804  -0.039  1.00  0.00     0.194 C 
HETATM    6  N4  UNL     1      89.418  68.557   0.006  1.00  0.00    -0.064 N 
ATOM      7  H41 UNL     1      89.799  68.343   0.928  1.00  0.00     0.278 HD
ATOM      8  H42 UNL     1      89.729  67.685  -0.423  1.00  0.00     0.278 HD
ENDROOT
BRANCH   1   9
HETATM    9  N2  UNL     1      89.448  72.155  -0.053  1.00  0.00    -0.067 N 
ATOM     10  H22 UNL     1      88.667  72.785   0.132  1.00  0.00     0.277 HD
ATOM     11  H21 UNL     1      89.519  72.334  -1.055  1.00  0.00     0.277 HD
BRANCH   9  12
HETATM   12  C2  UNL     1      90.666  72.502   0.689  1.00  0.00     0.260 C 
BRANCH  12  13
HETATM   13  C1  UNL     1      90.340  72.624   2.175  1.00  0.00     0.257 C 
BRANCH  13  14
HETATM   14  N1  UNL     1      91.529  72.222   2.903  1.00  0.00    -0.078 N 
ATOM     15  H13 UNL     1      91.386  71.390   3.475  1.00  0.00     0.274 HD
ATOM     16  H12 UNL     1      92.259  71.841   2.300  1.00  0.00     0.274 HD
ATOM     17  H11 UNL     1      91.836  73.032   3.442  1.00  0.00     0.274 HD
ENDBRANCH  13  14
ENDBRANCH  12  13
ENDBRANCH   9  12
ENDBRANCH   1   9
BRANCH   5  18
HETATM   18  C8  UNL     1      87.448  67.796  -1.050  1.00  0.00     0.060 C 
BRANCH  18  19
HETATM   19  C9  UNL     1      85.922  67.761  -0.900  1.00  0.00     0.231 C 
BRANCH  19  20
HETATM   20  N3  UNL     1      85.397  68.357  -2.146  1.00  0.00    -0.079 N 
ATOM     21  H33 UNL     1      85.735  69.302  -2.325  1.00  0.00     0.274 HD
ATOM     22  H32 UNL     1      85.773  67.935  -2.994  1.00  0.00     0.274 HD
ATOM     23  H31 UNL     1      84.383  68.290  -2.066  1.00  0.00     0.274 HD
ENDBRANCH  19  20
ENDBRANCH  18  19
ENDBRANCH   5  18
TORSDOF 7
ENDMDL
MODEL 3
REMARK VINA RESULT: -4.556914498      8.721     10.116
REMARK  7 active torsions:
REMARK  status: ('A' for Active; 'I' for Inactive)
REMARK    1  A    between atoms: N1_1  and  C1_5 
REMARK    2  A    between atoms: C1_5  and  C2_6 
REMARK    3  A    between atoms: C2_6  and  N2_7 
REMARK    4  A    between atoms: N2_7  and  C3_10 
REMARK    5  A    between atoms: C7_14  and  C8_15 
REMARK    6  A    between atoms: C8_15  and  C9_16 
REMARK    7  A    between atoms: C9_16  and  N3_17 
ROOT
HETATM    1  C3  UNL     1      86.887  64.043   0.571  1.00  0.00     0.222 C 
HETATM    2  C4  UNL     1      85.888  63.996  -0.606  1.00  0.00     0.217 C 
HETATM    3  C5  UNL     1      85.774  65.482  -0.360  1.00  0.00     0.044 C 
HETATM    4  C6  UNL     1      85.854  65.053   1.097  1.00  0.00     0.051 C 
HETATM    5  C7  UNL     1      84.652  64.213   1.262  1.00  0.00     0.194 C 
HETATM    6  N4  UNL     1      84.792  63.355   0.057  1.00  0.00    -0.064 N 
ATOM      7  H41 UNL     1      84.912  62.359   0.238  1.00  0.00     0.278 HD
ATOM      8  H42 UNL     1      83.946  63.242  -0.503  1.00  0.00     0.278 HD
ENDROOT
BRANCH   1   9
HETATM    9  N2  UNL     1      88.158  64.613   0.259  1.00  0.00    -0.067 N 
ATOM     10  H22 UNL     1      88.109  65.600   0.007  1.00  0.00     0.277 HD
ATOM     11  H21 UNL     1      88.547  64.277  -0.622  1.00  0.00     0.277 HD
BRANCH   9  12
HETATM   12  C2  UNL     1      89.022  64.349   1.416  1.00  0.00     0.260 C 
BRANCH  12  13
HETATM   13  C1  UNL     1      89.401  65.669   2.081  1.00  0.00     0.257 C 
BRANCH  13  14
HETATM   14  N1  UNL     1      90.482  65.383   3.005  1.00  0.00    -0.078 N 
ATOM     15  H13 UNL     1      90.187  65.389   3.981  1.00  0.00     0.274 HD
ATOM     16  H12 UNL     1      90.793  64.412   2.970  1.00  0.00     0.274 HD
ATOM     17  H11 UNL     1      91.228  66.050   2.807  1.00  0.00     0.274 HD
ENDBRANCH  13  14
ENDBRANCH  12  13
ENDBRANCH   9  12
ENDBRANCH   1   9
BRANCH   5  18
HETATM   18  C8  UNL     1      83.334  64.927   1.045  1.00  0.00     0.060 C 
BRANCH  18  19
HETATM   19  C9  UNL     1      82.978  65.592   2.381  1.00  0.00     0.231 C 
BRANCH  19  20
HETATM   20  N3  UNL     1      82.705  67.005   2.047  1.00  0.00    -0.079 N 
ATOM     21  H33 UNL     1      81.801  67.156   1.600  1.00  0.00     0.274 HD
ATOM     22  H32 UNL     1      82.533  67.595   2.861  1.00  0.00     0.274 HD
ATOM     23  H31 UNL     1      83.499  67.304   1.482  1.00  0.00     0.274 HD
ENDBRANCH  19  20
ENDBRANCH  18  19
ENDBRANCH   5  18
TORSDOF 7
ENDMDL
MODEL 4
REMARK VINA RESULT: -4.550346417      9.554     10.860
REMARK  7 active torsions:
REMARK  status: ('A' for Active; 'I' for Inactive)
REMARK    1  A    between atoms: N1_1  and  C1_5 
REMARK    2  A    between atoms: C1_5  and  C2_6 
REMARK    3  A    between atoms: C2_6  and  N2_7 
REMARK    4  A    between atoms: N2_7  and  C3_10 
REMARK    5  A    between atoms: C7_14  and  C8_15 
REMARK    6  A    between atoms: C8_15  and  C9_16 
REMARK    7  A    between atoms: C9_16  and  N3_17 
ROOT
HETATM    1  C3  UNL     1      88.192  62.506   1.000  1.00  0.00     0.222 C 
HETATM    2  C4  UNL     1      87.622  61.803  -0.251  1.00  0.00     0.217 C 
HETATM    3  C5  UNL     1      87.760  63.168  -0.883  1.00  0.00     0.044 C 
HETATM    4  C6  UNL     1      87.290  63.638   0.484  1.00  0.00     0.051 C 
HETATM    5  C7  UNL     1      85.944  63.040   0.597  1.00  0.00     0.194 C 
HETATM    6  N4  UNL     1      86.265  61.651   0.177  1.00  0.00    -0.064 N 
ATOM      7  H41 UNL     1      86.105  60.932   0.882  1.00  0.00     0.278 HD
ATOM      8  H42 UNL     1      85.631  61.243  -0.511  1.00  0.00     0.278 HD
ENDROOT
BRANCH   1   9
HETATM    9  N2  UNL     1      89.588  62.797   0.945  1.00  0.00    -0.067 N 
ATOM     10  H22 UNL     1      89.822  63.535   0.281  1.00  0.00     0.277 HD
ATOM     11  H21 UNL     1      90.139  62.057   0.509  1.00  0.00     0.277 HD
BRANCH   9  12
HETATM   12  C2  UNL     1      90.002  63.097   2.321  1.00  0.00     0.260 C 
BRANCH  12  13
HETATM   13  C1  UNL     1      90.084  64.609   2.510  1.00  0.00     0.257 C 
BRANCH  13  14
HETATM   14  N1  UNL     1      90.025  64.861   3.937  1.00  0.00    -0.078 N 
ATOM     15  H13 UNL     1      90.671  64.282   4.473  1.00  0.00     0.274 HD
ATOM     16  H12 UNL     1      90.413  65.767   4.201  1.00  0.00     0.274 HD
ATOM     17  H11 UNL     1      89.052  64.744   4.220  1.00  0.00     0.274 HD
ENDBRANCH  13  14
ENDBRANCH  12  13
ENDBRANCH   9  12
ENDBRANCH   1   9
BRANCH   5  18
HETATM   18  C8  UNL     1      84.945  63.509  -0.440  1.00  0.00     0.060 C 
BRANCH  18  19
HETATM   19  C9  UNL     1      83.893  64.332   0.315  1.00  0.00     0.231 C 
BRANCH  19  20
HETATM   20  N3  UNL     1      83.824  63.727   1.661  1.00  0.00    -0.079 N 
ATOM     21  H33 UNL     1      84.700  63.775   2.180  1.00  0.00     0.274 HD
ATOM     22  H32 UNL     1      83.266  64.263   2.325  1.00  0.00     0.274 HD
ATOM     23  H31 UNL     1      83.486  62.777   1.510  1.00  0.00     0.274 HD
ENDBRANCH  19  20
ENDBRANCH  18  19
ENDBRANCH   5  18
TORSDOF 7
ENDMDL
MODEL 5
REMARK VINA RESULT: -4.544407603      9.863     11.521
REMARK  7 active torsions:
REMARK  status: ('A' for Active; 'I' for Inactive)
REMARK    1  A    between atoms: N1_1  and  C1_5 
REMARK    2  A    between atoms: C1_5  and  C2_6 
REMARK    3  A    between atoms: C2_6  and  N2_7 
REMARK    4  A    between atoms: N2_7  and  C3_10 
REMARK    5  A    between atoms: C7_14  and  C8_15 
REMARK    6  A    between atoms: C8_15  and  C9_16 
REMARK    7  A    between atoms: C9_16  and  N3_17 
ROOT
HETATM    1  C3  UNL     1      86.289  63.287   0.492  1.00  0.00     0.222 C 
HETATM    2  C4  UNL     1      85.407  63.654  -0.722  1.00  0.00     0.217 C 
HETATM    3  C5  UNL     1      85.761  65.073  -0.347  1.00  0.00     0.044 C 
HETATM    4  C6  UNL     1      85.604  64.537   1.067  1.00  0.00     0.051 C 
HETATM    5  C7  UNL     1      84.187  64.124   1.110  1.00  0.00     0.194 C 
HETATM    6  N4  UNL     1      84.123  63.358  -0.162  1.00  0.00    -0.064 N 
ATOM      7  H41 UNL     1      83.904  62.366  -0.066  1.00  0.00     0.278 HD
ATOM      8  H42 UNL     1      83.324  63.568  -0.761  1.00  0.00     0.278 HD
ENDROOT
BRANCH   1   9
HETATM    9  N2  UNL     1      87.693  63.432   0.282  1.00  0.00    -0.067 N 
ATOM     10  H22 UNL     1      88.073  64.299   0.664  1.00  0.00     0.277 HD
ATOM     11  H21 UNL     1      87.941  63.605  -0.692  1.00  0.00     0.277 HD
BRANCH   9  12
HETATM   12  C2  UNL     1      88.320  62.227   0.838  1.00  0.00     0.260 C 
BRANCH  12  13
HETATM   13  C1  UNL     1      87.506  60.999   0.438  1.00  0.00     0.257 C 
BRANCH  13  14
HETATM   14  N1  UNL     1      87.930  60.627  -0.898  1.00  0.00    -0.078 N 
ATOM     15  H13 UNL     1      88.437  61.370  -1.379  1.00  0.00     0.274 HD
ATOM     16  H12 UNL     1      88.680  59.935  -0.904  1.00  0.00     0.274 HD
ATOM     17  H11 UNL     1      87.097  60.319  -1.400  1.00  0.00     0.274 HD
ENDBRANCH  13  14
ENDBRANCH  12  13
ENDBRANCH   9  12
ENDBRANCH   1   9
BRANCH   5  18
HETATM   18  C8  UNL     1      83.185  65.242   0.909  1.00  0.00     0.060 C 
BRANCH  18  19
HETATM   19  C9  UNL     1      82.817  65.750   2.308  1.00  0.00     0.231 C 
BRANCH  19  20
HETATM   20  N3  UNL     1      82.848  67.223   2.205  1.00  0.00    -0.079 N 
ATOM     21  H33 UNL     1      83.456  67.672   2.890  1.00  0.00     0.274 HD
ATOM     22  H32 UNL     1      83.331  67.568   1.376  1.00  0.00     0.274 HD
ATOM     23  H31 UNL     1      81.873  67.515   2.266  1.00  0.00     0.274 HD
ENDBRANCH  19  20
ENDBRANCH  18  19
ENDBRANCH   5  18
TORSDOF 7
ENDMDL
