MODEL 1
REMARK VINA RESULT: -5.200062228      0.000      0.000
REMARK  5 active torsions:
REMARK  status: ('A' for Active; 'I' for Inactive)
REMARK    1  A    between atoms: N1_2  and  C3_4 
REMARK    2  A    between atoms: C3_4  and  C4_5 
REMARK    3  A    between atoms: C4_5  and  N2_6 
REMARK    4  A    between atoms: N2_6  and  C5_9 
REMARK    5  A    between atoms: C5_9  and  C6_10 
ROOT
HETATM    1  C6  UNL     1      89.999  64.009   1.801  1.00  0.00     0.275 C 
HETATM    2  N3  UNL     1      90.906  64.090   0.684  1.00  0.00    -0.061 N 
ATOM      3  H31 UNL     1      91.657  63.404   0.755  1.00  0.00     0.278 HD
ATOM      4  H32 UNL     1      91.471  64.939   0.715  1.00  0.00     0.278 HD
HETATM    5  C7  UNL     1      90.173  63.969  -0.576  1.00  0.00     0.253 C 
HETATM    6  C8  UNL     1      88.795  63.385  -0.381  1.00  0.00     0.148 C 
HETATM    7  N4  UNL     1      88.863  62.342   0.616  1.00  0.00    -0.379 N 
ATOM      8  H4  UNL     1      88.452  61.425   0.441  1.00  0.00     0.160 HD
HETATM    9  C9  UNL     1      89.459  62.598   1.740  1.00  0.00     0.121 C 
HETATM   10  N5  UNL     1      89.614  61.690   2.805  1.00  0.00    -0.086 NA
ENDROOT
BRANCH   1  11
HETATM   11  C5  UNL     1      90.599  64.361   3.101  1.00  0.00     0.272 C 
BRANCH  11  12
HETATM   12  N2  UNL     1      89.790  65.324   3.789  1.00  0.00    -0.071 N 
ATOM     13  H22 UNL     1      90.360  65.905   4.404  1.00  0.00     0.277 HD
ATOM     14  H21 UNL     1      89.199  64.872   4.486  1.00  0.00     0.277 HD
BRANCH  12  15
HETATM   15  C4  UNL     1      88.992  66.148   2.888  1.00  0.00     0.251 C 
BRANCH  15  16
HETATM   16  C3  UNL     1      87.819  66.760   3.593  1.00  0.00     0.143 C 
BRANCH  16  17
HETATM   17  N1  UNL     1      86.714  66.892   2.696  1.00  0.00    -0.419 N 
HETATM   18  C1  UNL     1      86.742  66.023   1.563  1.00  0.00     0.142 C 
HETATM   19  C2  UNL     1      85.443  67.007   3.357  1.00  0.00     0.142 C 
ENDBRANCH  16  17
ENDBRANCH  15  16
ENDBRANCH  12  15
ENDBRANCH  11  12
ENDBRANCH   1  11
TORSDOF 5
ENDMDL
MODEL 2
REMARK VINA RESULT: -5.144159684      0.499      1.039
REMARK  5 active torsions:
REMARK  status: ('A' for Active; 'I' for Inactive)
REMARK    1  A    between atoms: N1_2  and  C3_4 
REMARK    2  A    between atoms: C3_4  and  C4_5 
REMARK    3  A    between atoms: C4_5  and  N2_6 
REMARK    4  A    between atoms: N2_6  and  C5_9 
REMARK    5  A    between atoms: C5_9  and  C6_10 
ROOT
HETATM    1  C6  UNL     1      89.635  64.090   1.783  1.00  0.00     0.275 C 
HETATM    2  N3  UNL     1      90.508  64.348   0.666  1.00  0.00    -0.061 N 
ATOM      3  H31 UNL     1      91.377  63.819   0.732  1.00  0.00     0.278 HD
ATOM      4  H32 UNL     1      90.900  65.289   0.700  1.00  0.00     0.278 HD
HETATM    5  C7  UNL     1      89.810  64.093  -0.595  1.00  0.00     0.253 C 
HETATM    6  C8  UNL     1      88.570  63.254  -0.401  1.00  0.00     0.148 C 
HETATM    7  N4  UNL     1      88.838  62.241   0.592  1.00  0.00    -0.379 N 
ATOM      8  H4  UNL     1      88.611  61.263   0.413  1.00  0.00     0.160 HD
HETATM    9  C9  UNL     1      89.376  62.602   1.716  1.00  0.00     0.121 C 
HETATM   10  N5  UNL     1      89.704  61.737   2.777  1.00  0.00    -0.086 NA
ENDROOT
BRANCH   1  11
HETATM   11  C5  UNL     1      90.158  64.546   3.084  1.00  0.00     0.272 C 
BRANCH  11  12
HETATM   12  N2  UNL     1      89.986  65.961   3.232  1.00  0.00    -0.071 N 
ATOM     13  H22 UNL     1      90.069  66.434   2.332  1.00  0.00     0.277 HD
ATOM     14  H21 UNL     1      90.783  66.376   3.714  1.00  0.00     0.277 HD
BRANCH  12  15
HETATM   15  C4  UNL     1      88.736  66.318   3.892  1.00  0.00     0.251 C 
BRANCH  15  16
HETATM   16  C3  UNL     1      87.864  67.158   3.008  1.00  0.00     0.143 C 
BRANCH  16  17
HETATM   17  N1  UNL     1      86.619  66.497   2.765  1.00  0.00    -0.419 N 
HETATM   18  C1  UNL     1      85.472  67.136   3.330  1.00  0.00     0.142 C 
HETATM   19  C2  UNL     1      86.466  66.030   1.416  1.00  0.00     0.142 C 
ENDBRANCH  16  17
ENDBRANCH  15  16
ENDBRANCH  12  15
ENDBRANCH  11  12
ENDBRANCH   1  11
TORSDOF 5
ENDMDL
MODEL 3
REMARK VINA RESULT: -5.046044165      2.274      3.652
REMARK  5 active torsions:
REMARK  status: ('A' for Active; 'I' for Inactive)
REMARK    1  A    between atoms: N1_2  and  C3_4 
REMARK    2  A    between atoms: C3_4  and  C4_5 
REMARK    3  A    between atoms: C4_5  and  N2_6 
REMARK    4  A    between atoms: N2_6  and  C5_9 
REMARK    5  A    between atoms: C5_9  and  C6_10 
ROOT
HETATM    1  C6  UNL     1      87.446  62.416  -0.246  1.00  0.00     0.275 C 
HETATM    2  N3  UNL     1      88.151  62.379  -1.503  1.00  0.00    -0.061 N 
ATOM      3  H31 UNL     1      88.685  61.518  -1.613  1.00  0.00     0.278 HD
ATOM      4  H32 UNL     1      88.925  63.043  -1.523  1.00  0.00     0.278 HD
HETATM    5  C7  UNL     1      87.222  62.590  -2.614  1.00  0.00     0.253 C 
HETATM    6  C8  UNL     1      85.785  62.368  -2.207  1.00  0.00     0.148 C 
HETATM    7  N4  UNL     1      85.722  61.242  -1.304  1.00  0.00    -0.379 N 
ATOM      8  H4  UNL     1      85.052  60.488  -1.457  1.00  0.00     0.160 HD
HETATM    9  C9  UNL     1      86.536  61.210  -0.294  1.00  0.00     0.121 C 
HETATM   10  N5  UNL     1      86.602  60.184   0.667  1.00  0.00    -0.086 NA
ENDROOT
BRANCH   1  11
HETATM   11  C5  UNL     1      88.319  62.458   0.942  1.00  0.00     0.272 C 
BRANCH  11  12
HETATM   12  N2  UNL     1      89.691  62.613   0.558  1.00  0.00    -0.071 N 
ATOM     13  H22 UNL     1      89.809  62.454  -0.442  1.00  0.00     0.277 HD
ATOM     14  H21 UNL     1      90.259  61.846   0.918  1.00  0.00     0.277 HD
BRANCH  12  15
HETATM   15  C4  UNL     1      90.251  63.901   0.949  1.00  0.00     0.251 C 
BRANCH  15  16
HETATM   16  C3  UNL     1      89.944  64.225   2.380  1.00  0.00     0.143 C 
BRANCH  16  17
HETATM   17  N1  UNL     1      89.672  65.621   2.527  1.00  0.00    -0.419 N 
HETATM   18  C1  UNL     1      89.052  66.241   1.399  1.00  0.00     0.142 C 
HETATM   19  C2  UNL     1      89.123  65.972   3.807  1.00  0.00     0.142 C 
ENDBRANCH  16  17
ENDBRANCH  15  16
ENDBRANCH  12  15
ENDBRANCH  11  12
ENDBRANCH   1  11
TORSDOF 5
ENDMDL
MODEL 4
REMARK VINA RESULT: -5.004245015      1.995      5.453
REMARK  5 active torsions:
REMARK  status: ('A' for Active; 'I' for Inactive)
REMARK    1  A    between atoms: N1_2  and  C3_4 
REMARK    2  A    between atoms: C3_4  and  C4_5 
REMARK    3  A    between atoms: C4_5  and  N2_6 
REMARK    4  A    between atoms: N2_6  and  C5_9 
REMARK    5  A    between atoms: C5_9  and  C6_10 
ROOT
HETATM    1  C6  UNL     1      85.419  66.964   2.024  1.00  0.00     0.275 C 
HETATM    2  N3  UNL     1      85.301  65.548   1.781  1.00  0.00    -0.061 N 
ATOM      3  H31 UNL     1      85.529  65.001   2.611  1.00  0.00     0.278 HD
ATOM      4  H32 UNL     1      86.040  65.206   1.166  1.00  0.00     0.278 HD
HETATM    5  C7  UNL     1      83.970  65.228   1.266  1.00  0.00     0.253 C 
HETATM    6  C8  UNL     1      82.978  66.337   1.521  1.00  0.00     0.148 C 
HETATM    7  N4  UNL     1      83.224  66.896   2.830  1.00  0.00    -0.379 N 
ATOM      8  H4  UNL     1      82.460  67.023   3.494  1.00  0.00     0.160 HD
HETATM    9  C9  UNL     1      84.437  67.232   3.142  1.00  0.00     0.121 C 
HETATM   10  N5  UNL     1      84.839  67.781   4.375  1.00  0.00    -0.086 NA
ENDROOT
BRANCH   1  11
HETATM   11  C5  UNL     1      86.790  67.422   2.311  1.00  0.00     0.272 C 
BRANCH  11  12
HETATM   12  N2  UNL     1      87.358  66.674   3.394  1.00  0.00    -0.071 N 
ATOM     13  H22 UNL     1      86.802  65.844   3.594  1.00  0.00     0.277 HD
ATOM     14  H21 UNL     1      87.244  67.170   4.278  1.00  0.00     0.277 HD
BRANCH  12  15
HETATM   15  C4  UNL     1      88.756  66.323   3.174  1.00  0.00     0.251 C 
BRANCH  15  16
HETATM   16  C3  UNL     1      89.036  66.055   1.726  1.00  0.00     0.143 C 
BRANCH  16  17
HETATM   17  N1  UNL     1      89.493  64.712   1.547  1.00  0.00    -0.419 N 
HETATM   18  C1  UNL     1      90.212  64.162   2.652  1.00  0.00     0.142 C 
HETATM   19  C2  UNL     1      88.515  63.844   0.950  1.00  0.00     0.142 C 
ENDBRANCH  16  17
ENDBRANCH  15  16
ENDBRANCH  12  15
ENDBRANCH  11  12
ENDBRANCH   1  11
TORSDOF 5
ENDMDL
MODEL 5
REMARK VINA RESULT: -5.000220823      4.888      7.078
REMARK  5 active torsions:
REMARK  status: ('A' for Active; 'I' for Inactive)
REMARK    1  A    between atoms: N1_2  and  C3_4 
REMARK    2  A    between atoms: C3_4  and  C4_5 
REMARK    3  A    between atoms: C4_5  and  N2_6 
REMARK    4  A    between atoms: N2_6  and  C5_9 
REMARK    5  A    between atoms: C5_9  and  C6_10 
ROOT
HETATM    1  C6  UNL     1      86.784  62.554  -0.433  1.00  0.00     0.275 C 
HETATM    2  N3  UNL     1      86.780  63.625   0.530  1.00  0.00    -0.061 N 
ATOM      3  H31 UNL     1      86.156  63.430   1.313  1.00  0.00     0.278 HD
ATOM      4  H32 UNL     1      86.316  64.459   0.170  1.00  0.00     0.278 HD
HETATM    5  C7  UNL     1      88.143  63.911   0.980  1.00  0.00     0.253 C 
HETATM    6  C8  UNL     1      89.096  62.782   0.664  1.00  0.00     0.148 C 
HETATM    7  N4  UNL     1      88.422  61.523   0.881  1.00  0.00    -0.379 N 
ATOM      8  H4  UNL     1      88.857  60.788   1.439  1.00  0.00     0.160 HD
HETATM    9  C9  UNL     1      87.250  61.349   0.352  1.00  0.00     0.121 C 
HETATM   10  N5  UNL     1      86.465  60.187   0.475  1.00  0.00    -0.086 NA
ENDROOT
BRANCH   1  11
HETATM   11  C5  UNL     1      85.498  62.352  -1.127  1.00  0.00     0.272 C 
BRANCH  11  12
HETATM   12  N2  UNL     1      85.596  61.282  -2.075  1.00  0.00    -0.071 N 
ATOM     13  H22 UNL     1      85.348  60.391  -1.645  1.00  0.00     0.277 HD
ATOM     14  H21 UNL     1      86.570  61.090  -2.309  1.00  0.00     0.277 HD
BRANCH  12  15
HETATM   15  C4  UNL     1      84.809  61.513  -3.280  1.00  0.00     0.251 C 
BRANCH  15  16
HETATM   16  C3  UNL     1      83.486  60.810  -3.219  1.00  0.00     0.143 C 
BRANCH  16  17
HETATM   17  N1  UNL     1      83.344  59.917  -4.326  1.00  0.00    -0.419 N 
HETATM   18  C1  UNL     1      82.096  59.225  -4.395  1.00  0.00     0.142 C 
HETATM   19  C2  UNL     1      83.822  60.458  -5.569  1.00  0.00     0.142 C 
ENDBRANCH  16  17
ENDBRANCH  15  16
ENDBRANCH  12  15
ENDBRANCH  11  12
ENDBRANCH   1  11
TORSDOF 5
ENDMDL
