MODEL 1
REMARK VINA RESULT: -5.208457038      0.000      0.000
REMARK  8 active torsions:
REMARK  status: ('A' for Active; 'I' for Inactive)
REMARK    1  A    between atoms: N1_1  and  C1_4 
REMARK    2  A    between atoms: C4_9  and  N3_10 
REMARK    3  A    between atoms: N3_10  and  C5_12 
REMARK    4  A    between atoms: C5_12  and  C6_13 
REMARK    5  A    between atoms: C6_13  and  O1_14 
REMARK    6  A    between atoms: O1_14  and  C7_15 
REMARK    7  A    between atoms: C7_15  and  C8_16 
REMARK    8  A    between atoms: C8_16  and  N4_17 
ROOT
HETATM    1  C1  UNL     1      88.603  71.025   0.494  1.00  0.00     0.677 A 
HETATM    2  N2  UNL     1      89.221  71.208  -0.676  1.00  0.00    -0.202 N 
ATOM      3  H2  UNL     1      88.739  70.909  -1.524  1.00  0.00     0.183 HD
HETATM    4  C2  UNL     1      90.430  71.756  -0.805  1.00  0.00     0.110 A 
HETATM    5  C3  UNL     1      91.087  72.164   0.356  1.00  0.00     0.066 A 
HETATM    6  C4  UNL     1      90.476  71.987   1.561  1.00  0.00     0.118 A 
HETATM    7  N5  UNL     1      89.256  71.425   1.593  1.00  0.00    -0.177 N 
ATOM      8  H5  UNL     1      88.806  71.296   2.498  1.00  0.00     0.185 HD
ENDROOT
BRANCH   6   9
HETATM    9  N3  UNL     1      91.010  72.331   2.650  1.00  0.00    -0.374 N 
ATOM     10  H3  UNL     1      91.524  71.633   3.189  1.00  0.00     0.161 HD
BRANCH   9  11
HETATM   11  C5  UNL     1      90.920  73.671   3.159  1.00  0.00     0.147 C 
BRANCH  11  12
HETATM   12  C6  UNL     1      89.632  73.821   3.911  1.00  0.00     0.187 C 
BRANCH  12  13
HETATM   13  O1  UNL     1      89.380  72.719   4.672  1.00  0.00    -0.388 OA
BRANCH  13  14
HETATM   14  C7  UNL     1      88.387  72.878   5.591  1.00  0.00     0.195 C 
BRANCH  14  15
HETATM   15  C8  UNL     1      88.796  73.879   6.681  1.00  0.00     0.255 C 
BRANCH  15  16
HETATM   16  N4  UNL     1      89.565  73.066   7.641  1.00  0.00    -0.077 N 
ATOM     17  H43 UNL     1      89.086  72.896   8.526  1.00  0.00     0.274 HD
ATOM     18  H42 UNL     1      89.661  72.086   7.378  1.00  0.00     0.274 HD
ATOM     19  H41 UNL     1      90.450  73.564   7.734  1.00  0.00     0.274 HD
ENDBRANCH  15  16
ENDBRANCH  14  15
ENDBRANCH  13  14
ENDBRANCH  12  13
ENDBRANCH  11  12
ENDBRANCH   9  11
ENDBRANCH   6   9
BRANCH   1  20
HETATM   20  N1  UNL     1      87.442  70.490   0.518  1.00  0.00    -0.234 N 
ATOM     21  H12 UNL     1      86.703  70.716  -0.148  1.00  0.00     0.174 HD
ATOM     22  H11 UNL     1      87.222  69.798   1.234  1.00  0.00     0.174 HD
ENDBRANCH   1  20
TORSDOF 8
ENDMDL
MODEL 2
REMARK VINA RESULT: -5.106250754      3.331      5.563
REMARK  8 active torsions:
REMARK  status: ('A' for Active; 'I' for Inactive)
REMARK    1  A    between atoms: N1_1  and  C1_4 
REMARK    2  A    between atoms: C4_9  and  N3_10 
REMARK    3  A    between atoms: N3_10  and  C5_12 
REMARK    4  A    between atoms: C5_12  and  C6_13 
REMARK    5  A    between atoms: C6_13  and  O1_14 
REMARK    6  A    between atoms: O1_14  and  C7_15 
REMARK    7  A    between atoms: C7_15  and  C8_16 
REMARK    8  A    between atoms: C8_16  and  N4_17 
ROOT
HETATM    1  C1  UNL     1      90.609  72.697   2.198  1.00  0.00     0.677 A 
HETATM    2  N2  UNL     1      91.313  72.667   1.061  1.00  0.00    -0.202 N 
ATOM      3  H2  UNL     1      92.160  73.233   1.009  1.00  0.00     0.183 HD
HETATM    4  C2  UNL     1      90.976  71.944  -0.007  1.00  0.00     0.110 A 
HETATM    5  C3  UNL     1      89.817  71.172   0.068  1.00  0.00     0.066 A 
HETATM    6  C4  UNL     1      89.083  71.187   1.216  1.00  0.00     0.118 A 
HETATM    7  N5  UNL     1      89.501  71.947   2.242  1.00  0.00    -0.177 N 
ATOM      8  H5  UNL     1      88.946  71.952   3.098  1.00  0.00     0.185 HD
ENDROOT
BRANCH   6   9
HETATM    9  N3  UNL     1      88.026  70.515   1.355  1.00  0.00    -0.374 N 
ATOM     10  H3  UNL     1      87.492  70.610   2.219  1.00  0.00     0.161 HD
BRANCH   9  11
HETATM   11  C5  UNL     1      87.547  69.619   0.340  1.00  0.00     0.147 C 
BRANCH  11  12
HETATM   12  C6  UNL     1      87.336  68.264   0.946  1.00  0.00     0.187 C 
BRANCH  12  13
HETATM   13  O1  UNL     1      86.285  68.275   1.812  1.00  0.00    -0.388 OA
BRANCH  13  14
HETATM   14  C7  UNL     1      85.223  67.513   1.428  1.00  0.00     0.195 C 
BRANCH  14  15
HETATM   15  C8  UNL     1      84.355  67.126   2.633  1.00  0.00     0.255 C 
BRANCH  15  16
HETATM   16  N4  UNL     1      82.976  67.183   2.112  1.00  0.00    -0.077 N 
ATOM     17  H43 UNL     1      82.706  68.092   1.737  1.00  0.00     0.274 HD
ATOM     18  H42 UNL     1      82.833  66.661   1.249  1.00  0.00     0.274 HD
ATOM     19  H41 UNL     1      82.403  66.866   2.895  1.00  0.00     0.274 HD
ENDBRANCH  15  16
ENDBRANCH  14  15
ENDBRANCH  13  14
ENDBRANCH  12  13
ENDBRANCH  11  12
ENDBRANCH   9  11
ENDBRANCH   6   9
BRANCH   1  20
HETATM   20  N1  UNL     1      91.012  73.422   3.170  1.00  0.00    -0.234 N 
ATOM     21  H12 UNL     1      91.350  74.378   3.060  1.00  0.00     0.174 HD
ATOM     22  H11 UNL     1      91.003  73.043   4.117  1.00  0.00     0.174 HD
ENDBRANCH   1  20
TORSDOF 8
ENDMDL
MODEL 3
REMARK VINA RESULT: -5.084360595      8.670     10.194
REMARK  8 active torsions:
REMARK  status: ('A' for Active; 'I' for Inactive)
REMARK    1  A    between atoms: N1_1  and  C1_4 
REMARK    2  A    between atoms: C4_9  and  N3_10 
REMARK    3  A    between atoms: N3_10  and  C5_12 
REMARK    4  A    between atoms: C5_12  and  C6_13 
REMARK    5  A    between atoms: C6_13  and  O1_14 
REMARK    6  A    between atoms: O1_14  and  C7_15 
REMARK    7  A    between atoms: C7_15  and  C8_16 
REMARK    8  A    between atoms: C8_16  and  N4_17 
ROOT
HETATM    1  C1  UNL     1      87.662  60.906   0.502  1.00  0.00     0.677 A 
HETATM    2  N2  UNL     1      88.660  61.733   0.830  1.00  0.00    -0.202 N 
ATOM      3  H2  UNL     1      89.569  61.324   1.047  1.00  0.00     0.183 HD
HETATM    4  C2  UNL     1      88.541  63.060   0.890  1.00  0.00     0.110 A 
HETATM    5  C3  UNL     1      87.297  63.617   0.592  1.00  0.00     0.066 A 
HETATM    6  C4  UNL     1      86.265  62.793   0.256  1.00  0.00     0.118 A 
HETATM    7  N5  UNL     1      86.479  61.467   0.222  1.00  0.00    -0.177 N 
ATOM      8  H5  UNL     1      85.702  60.857  -0.031  1.00  0.00     0.185 HD
ENDROOT
BRANCH   6   9
HETATM    9  N3  UNL     1      85.115  63.226  -0.026  1.00  0.00    -0.374 N 
ATOM     10  H3  UNL     1      84.593  62.781  -0.781  1.00  0.00     0.161 HD
BRANCH   9  11
HETATM   11  C5  UNL     1      84.514  64.322   0.680  1.00  0.00     0.147 C 
BRANCH  11  12
HETATM   12  C6  UNL     1      83.863  63.801   1.927  1.00  0.00     0.187 C 
BRANCH  12  13
HETATM   13  O1  UNL     1      83.865  64.746   2.909  1.00  0.00    -0.388 OA
BRANCH  13  14
HETATM   14  C7  UNL     1      84.644  65.833   2.651  1.00  0.00     0.195 C 
BRANCH  14  15
HETATM   15  C8  UNL     1      83.942  67.130   3.078  1.00  0.00     0.255 C 
BRANCH  15  16
HETATM   16  N4  UNL     1      82.723  67.166   2.249  1.00  0.00    -0.077 N 
ATOM     17  H43 UNL     1      82.783  66.619   1.391  1.00  0.00     0.274 HD
ATOM     18  H42 UNL     1      81.931  66.661   2.647  1.00  0.00     0.274 HD
ATOM     19  H41 UNL     1      82.554  68.161   2.101  1.00  0.00     0.274 HD
ENDBRANCH  15  16
ENDBRANCH  14  15
ENDBRANCH  13  14
ENDBRANCH  12  13
ENDBRANCH  11  12
ENDBRANCH   9  11
ENDBRANCH   6   9
BRANCH   1  20
HETATM   20  N1  UNL     1      87.872  59.646   0.471  1.00  0.00    -0.234 N 
ATOM     21  H12 UNL     1      88.768  59.217   0.703  1.00  0.00     0.174 HD
ATOM     22  H11 UNL     1      87.116  59.017   0.202  1.00  0.00     0.174 HD
ENDBRANCH   1  20
TORSDOF 8
ENDMDL
MODEL 4
REMARK VINA RESULT: -5.047021510      3.424      5.298
REMARK  8 active torsions:
REMARK  status: ('A' for Active; 'I' for Inactive)
REMARK    1  A    between atoms: N1_1  and  C1_4 
REMARK    2  A    between atoms: C4_9  and  N3_10 
REMARK    3  A    between atoms: N3_10  and  C5_12 
REMARK    4  A    between atoms: C5_12  and  C6_13 
REMARK    5  A    between atoms: C6_13  and  O1_14 
REMARK    6  A    between atoms: O1_14  and  C7_15 
REMARK    7  A    between atoms: C7_15  and  C8_16 
REMARK    8  A    between atoms: C8_16  and  N4_17 
ROOT
HETATM    1  C1  UNL     1      90.524  72.540   2.492  1.00  0.00     0.677 A 
HETATM    2  N2  UNL     1      91.346  72.691   1.449  1.00  0.00    -0.202 N 
ATOM      3  H2  UNL     1      92.191  73.245   1.581  1.00  0.00     0.183 HD
HETATM    4  C2  UNL     1      91.127  72.161   0.244  1.00  0.00     0.110 A 
HETATM    5  C3  UNL     1      89.970  71.403   0.066  1.00  0.00     0.066 A 
HETATM    6  C4  UNL     1      89.118  71.237   1.116  1.00  0.00     0.118 A 
HETATM    7  N5  UNL     1      89.421  71.808   2.293  1.00  0.00    -0.177 N 
ATOM      8  H5  UNL     1      88.778  71.679   3.074  1.00  0.00     0.185 HD
ENDROOT
BRANCH   6   9
HETATM    9  N3  UNL     1      88.055  70.565   1.028  1.00  0.00    -0.374 N 
ATOM     10  H3  UNL     1      87.201  70.938   1.442  1.00  0.00     0.161 HD
BRANCH   9  11
HETATM   11  C5  UNL     1      88.004  69.293   0.364  1.00  0.00     0.147 C 
BRANCH  11  12
HETATM   12  C6  UNL     1      87.515  68.257   1.331  1.00  0.00     0.187 C 
BRANCH  12  13
HETATM   13  O1  UNL     1      88.345  67.176   1.349  1.00  0.00    -0.388 OA
BRANCH  13  14
HETATM   14  C7  UNL     1      88.224  66.385   2.451  1.00  0.00     0.195 C 
BRANCH  14  15
HETATM   15  C8  UNL     1      89.543  65.663   2.761  1.00  0.00     0.255 C 
BRANCH  15  16
HETATM   16  N4  UNL     1      89.599  65.638   4.235  1.00  0.00    -0.077 N 
ATOM     17  H43 UNL     1      88.821  66.113   4.692  1.00  0.00     0.274 HD
ATOM     18  H42 UNL     1      89.424  64.721   4.645  1.00  0.00     0.274 HD
ATOM     19  H41 UNL     1      90.515  66.028   4.454  1.00  0.00     0.274 HD
ENDBRANCH  15  16
ENDBRANCH  14  15
ENDBRANCH  13  14
ENDBRANCH  12  13
ENDBRANCH  11  12
ENDBRANCH   9  11
ENDBRANCH   6   9
BRANCH   1  20
HETATM   20  N1  UNL     1      90.818  73.087   3.610  1.00  0.00    -0.234 N 
ATOM     21  H12 UNL     1      90.394  73.953   3.943  1.00  0.00     0.174 HD
ATOM     22  H11 UNL     1      91.510  72.650   4.217  1.00  0.00     0.174 HD
ENDBRANCH   1  20
TORSDOF 8
ENDMDL
MODEL 5
REMARK VINA RESULT: -5.006549448      6.335      7.995
REMARK  8 active torsions:
REMARK  status: ('A' for Active; 'I' for Inactive)
REMARK    1  A    between atoms: N1_1  and  C1_4 
REMARK    2  A    between atoms: C4_9  and  N3_10 
REMARK    3  A    between atoms: N3_10  and  C5_12 
REMARK    4  A    between atoms: C5_12  and  C6_13 
REMARK    5  A    between atoms: C6_13  and  O1_14 
REMARK    6  A    between atoms: O1_14  and  C7_15 
REMARK    7  A    between atoms: C7_15  and  C8_16 
REMARK    8  A    between atoms: C8_16  and  N4_17 
ROOT
HETATM    1  C1  UNL     1      90.087  65.326   3.001  1.00  0.00     0.677 A 
HETATM    2  N2  UNL     1      89.587  65.685   4.188  1.00  0.00    -0.202 N 
ATOM      3  H2  UNL     1      90.069  65.361   5.027  1.00  0.00     0.183 HD
HETATM    4  C2  UNL     1      88.499  66.439   4.343  1.00  0.00     0.110 A 
HETATM    5  C3  UNL     1      87.843  66.880   3.193  1.00  0.00     0.066 A 
HETATM    6  C4  UNL     1      88.333  66.526   1.973  1.00  0.00     0.118 A 
HETATM    7  N5  UNL     1      89.437  65.762   1.914  1.00  0.00    -0.177 N 
ATOM      8  H5  UNL     1      89.798  65.501   0.997  1.00  0.00     0.185 HD
ENDROOT
BRANCH   6   9
HETATM    9  N3  UNL     1      87.793  66.887   0.893  1.00  0.00    -0.374 N 
ATOM     10  H3  UNL     1      88.084  66.440   0.023  1.00  0.00     0.161 HD
BRANCH   9  11
HETATM   11  C5  UNL     1      86.783  67.907   0.844  1.00  0.00     0.147 C 
BRANCH  11  12
HETATM   12  C6  UNL     1      85.729  67.501  -0.142  1.00  0.00     0.187 C 
BRANCH  12  13
HETATM   13  O1  UNL     1      84.540  67.271   0.483  1.00  0.00    -0.388 OA
BRANCH  13  14
HETATM   14  C7  UNL     1      84.200  65.956   0.593  1.00  0.00     0.195 C 
BRANCH  14  15
HETATM   15  C8  UNL     1      82.883  65.787   1.364  1.00  0.00     0.255 C 
BRANCH  15  16
HETATM   16  N4  UNL     1      82.743  67.051   2.110  1.00  0.00    -0.077 N 
ATOM     17  H43 UNL     1      82.491  66.934   3.092  1.00  0.00     0.274 HD
ATOM     18  H42 UNL     1      83.622  67.538   2.280  1.00  0.00     0.274 HD
ATOM     19  H41 UNL     1      82.065  67.586   1.566  1.00  0.00     0.274 HD
ENDBRANCH  15  16
ENDBRANCH  14  15
ENDBRANCH  13  14
ENDBRANCH  12  13
ENDBRANCH  11  12
ENDBRANCH   9  11
ENDBRANCH   6   9
BRANCH   1  20
HETATM   20  N1  UNL     1      91.137  64.599   2.952  1.00  0.00    -0.234 N 
ATOM     21  H12 UNL     1      92.083  64.977   2.911  1.00  0.00     0.174 HD
ATOM     22  H11 UNL     1      91.047  63.583   2.954  1.00  0.00     0.174 HD
ENDBRANCH   1  20
TORSDOF 8
ENDMDL
