MODEL 1
REMARK VINA RESULT: -7.711483687      0.000      0.000
REMARK  4 active torsions:
REMARK  status: ('A' for Active; 'I' for Inactive)
REMARK    1  A    between atoms: C3_3  and  C4_4 
REMARK    2  A    between atoms: C4_4  and  C5_5 
REMARK    3  A    between atoms: C6_6  and  O1_7 
REMARK    4  A    between atoms: O1_7  and  C7_8 
ROOT
HETATM    1  C5  UNL     1      -2.549  -0.414   6.007  1.00  0.00     0.001 C 
HETATM    2  C6  UNL     1      -2.243   0.784   5.588  1.00  0.00     0.131 C 
ENDROOT
BRANCH   2   3
HETATM    3  O1  UNL     1      -1.994   1.015   4.237  1.00  0.00    -0.358 OA
BRANCH   3   4
HETATM    4  C7  UNL     1      -0.741   1.326   3.708  1.00  0.00     0.127 C 
HETATM    5  C8  UNL     1       0.215   1.513   4.881  1.00  0.00     0.032 C 
HETATM    6  C9  UNL     1       1.451   0.717   4.480  1.00  0.00     0.002 C 
HETATM    7  C10 UNL     1       0.789  -0.482   3.789  1.00  0.00     0.002 C 
HETATM    8  C11 UNL     1      -0.170   0.230   2.857  1.00  0.00     0.032 C 
ENDBRANCH   3   4
ENDBRANCH   2   3
BRANCH   1   9
HETATM    9  C4  UNL     1      -2.816  -0.684   7.424  1.00  0.00     0.056 C 
BRANCH   9  10
HETATM   10  C3  UNL     1      -3.026   0.532   8.228  1.00  0.00    -0.027 C 
HETATM   11  C2  UNL     1      -2.180   0.868   9.176  1.00  0.00    -0.035 C 
HETATM   12  C1  UNL     1      -2.403   2.094   9.978  1.00  0.00     0.036 C 
ENDBRANCH   9  10
ENDBRANCH   1   9
TORSDOF 4
ENDMDL
MODEL 2
REMARK VINA RESULT: -7.570553395      1.360      1.862
REMARK  4 active torsions:
REMARK  status: ('A' for Active; 'I' for Inactive)
REMARK    1  A    between atoms: C3_3  and  C4_4 
REMARK    2  A    between atoms: C4_4  and  C5_5 
REMARK    3  A    between atoms: C6_6  and  O1_7 
REMARK    4  A    between atoms: O1_7  and  C7_8 
ROOT
HETATM    1  C5  UNL     1      -2.596  -0.682   7.174  1.00  0.00     0.001 C 
HETATM    2  C6  UNL     1      -2.509  -0.039   6.041  1.00  0.00     0.131 C 
ENDROOT
BRANCH   2   3
HETATM    3  O1  UNL     1      -2.796  -0.685   4.841  1.00  0.00    -0.358 OA
BRANCH   3   4
HETATM    4  C7  UNL     1      -2.615  -0.121   3.577  1.00  0.00     0.127 C 
HETATM    5  C8  UNL     1      -2.213   1.335   3.782  1.00  0.00     0.032 C 
HETATM    6  C9  UNL     1      -1.031   1.527   2.841  1.00  0.00     0.002 C 
HETATM    7  C10 UNL     1      -0.336   0.169   2.996  1.00  0.00     0.002 C 
HETATM    8  C11 UNL     1      -1.509  -0.767   2.795  1.00  0.00     0.032 C 
ENDBRANCH   3   4
ENDBRANCH   2   3
BRANCH   1   9
HETATM    9  C4  UNL     1      -2.299  -0.023   8.451  1.00  0.00     0.056 C 
BRANCH   9  10
HETATM   10  C3  UNL     1      -3.318   0.956   8.863  1.00  0.00    -0.027 C 
HETATM   11  C2  UNL     1      -3.027   1.918   9.708  1.00  0.00    -0.035 C 
HETATM   12  C1  UNL     1      -4.062   2.898  10.115  1.00  0.00     0.036 C 
ENDBRANCH   9  10
ENDBRANCH   1   9
TORSDOF 4
ENDMDL
MODEL 3
REMARK VINA RESULT: -7.508075679      1.181      1.871
REMARK  4 active torsions:
REMARK  status: ('A' for Active; 'I' for Inactive)
REMARK    1  A    between atoms: C3_3  and  C4_4 
REMARK    2  A    between atoms: C4_4  and  C5_5 
REMARK    3  A    between atoms: C6_6  and  O1_7 
REMARK    4  A    between atoms: O1_7  and  C7_8 
ROOT
HETATM    1  C5  UNL     1      -2.534  -0.499   6.497  1.00  0.00     0.001 C 
HETATM    2  C6  UNL     1      -1.680  -1.163   5.766  1.00  0.00     0.131 C 
ENDROOT
BRANCH   2   3
HETATM    3  O1  UNL     1      -1.861  -1.263   4.389  1.00  0.00    -0.358 OA
BRANCH   3   4
HETATM    4  C7  UNL     1      -1.132  -0.542   3.442  1.00  0.00     0.127 C 
HETATM    5  C8  UNL     1      -1.994   0.635   3.003  1.00  0.00     0.032 C 
HETATM    6  C9  UNL     1      -1.044   1.824   3.043  1.00  0.00     0.002 C 
HETATM    7  C10 UNL     1      -0.224   1.475   4.291  1.00  0.00     0.002 C 
HETATM    8  C11 UNL     1       0.140   0.036   3.990  1.00  0.00     0.032 C 
ENDBRANCH   3   4
ENDBRANCH   2   3
BRANCH   1   9
HETATM    9  C4  UNL     1      -2.365  -0.379   7.950  1.00  0.00     0.056 C 
BRANCH   9  10
HETATM   10  C3  UNL     1      -3.259   0.612   8.569  1.00  0.00    -0.027 C 
HETATM   11  C2  UNL     1      -2.789   1.524   9.391  1.00  0.00    -0.035 C 
HETATM   12  C1  UNL     1      -3.700   2.517  10.008  1.00  0.00     0.036 C 
ENDBRANCH   9  10
ENDBRANCH   1   9
TORSDOF 4
ENDMDL
MODEL 4
REMARK VINA RESULT: -7.462065999      1.278      2.025
REMARK  4 active torsions:
REMARK  status: ('A' for Active; 'I' for Inactive)
REMARK    1  A    between atoms: C3_3  and  C4_4 
REMARK    2  A    between atoms: C4_4  and  C5_5 
REMARK    3  A    between atoms: C6_6  and  O1_7 
REMARK    4  A    between atoms: O1_7  and  C7_8 
ROOT
HETATM    1  C5  UNL     1      -1.695  -0.953   6.543  1.00  0.00     0.001 C 
HETATM    2  C6  UNL     1      -0.576  -0.282   6.558  1.00  0.00     0.131 C 
ENDROOT
BRANCH   2   3
HETATM    3  O1  UNL     1       0.402  -0.522   5.594  1.00  0.00    -0.358 OA
BRANCH   3   4
HETATM    4  C7  UNL     1       0.713   0.350   4.550  1.00  0.00     0.127 C 
HETATM    5  C8  UNL     1       0.201  -0.282   3.261  1.00  0.00     0.032 C 
HETATM    6  C9  UNL     1      -0.517   0.858   2.551  1.00  0.00     0.002 C 
HETATM    7  C10 UNL     1      -1.158   1.565   3.752  1.00  0.00     0.002 C 
HETATM    8  C11 UNL     1       0.037   1.684   4.674  1.00  0.00     0.032 C 
ENDBRANCH   3   4
ENDBRANCH   2   3
BRANCH   1   9
HETATM    9  C4  UNL     1      -2.740  -0.718   7.546  1.00  0.00     0.056 C 
BRANCH   9  10
HETATM   10  C3  UNL     1      -2.424   0.371   8.485  1.00  0.00    -0.027 C 
HETATM   11  C2  UNL     1      -3.372   1.143   8.966  1.00  0.00    -0.035 C 
HETATM   12  C1  UNL     1      -3.041   2.236   9.911  1.00  0.00     0.036 C 
ENDBRANCH   9  10
ENDBRANCH   1   9
TORSDOF 4
ENDMDL
MODEL 5
REMARK VINA RESULT: -7.419972325      1.417      2.343
REMARK  4 active torsions:
REMARK  status: ('A' for Active; 'I' for Inactive)
REMARK    1  A    between atoms: C3_3  and  C4_4 
REMARK    2  A    between atoms: C4_4  and  C5_5 
REMARK    3  A    between atoms: C6_6  and  O1_7 
REMARK    4  A    between atoms: O1_7  and  C7_8 
ROOT
HETATM    1  C5  UNL     1      -1.779  -0.260   6.465  1.00  0.00     0.001 C 
HETATM    2  C6  UNL     1      -1.326  -1.076   5.551  1.00  0.00     0.131 C 
ENDROOT
BRANCH   2   3
HETATM    3  O1  UNL     1      -0.362  -0.648   4.640  1.00  0.00    -0.358 OA
BRANCH   3   4
HETATM    4  C7  UNL     1      -0.630  -0.288   3.319  1.00  0.00     0.127 C 
HETATM    5  C8  UNL     1      -1.950  -0.941   2.928  1.00  0.00     0.032 C 
HETATM    6  C9  UNL     1      -2.727   0.177   2.245  1.00  0.00     0.002 C 
HETATM    7  C10 UNL     1      -2.313   1.368   3.119  1.00  0.00     0.002 C 
HETATM    8  C11 UNL     1      -0.809   1.190   3.134  1.00  0.00     0.032 C 
ENDBRANCH   3   4
ENDBRANCH   2   3
BRANCH   1   9
HETATM    9  C4  UNL     1      -2.793  -0.687   7.435  1.00  0.00     0.056 C 
BRANCH   9  10
HETATM   10  C3  UNL     1      -3.067   0.311   8.482  1.00  0.00    -0.027 C 
HETATM   11  C2  UNL     1      -2.107   1.073   8.954  1.00  0.00    -0.035 C 
HETATM   12  C1  UNL     1      -2.396   2.075  10.009  1.00  0.00     0.036 C 
ENDBRANCH   9  10
ENDBRANCH   1   9
TORSDOF 4
ENDMDL
