MODEL 1
REMARK VINA RESULT: -7.395269180      0.000      0.000
REMARK  5 active torsions:
REMARK  status: ('A' for Active; 'I' for Inactive)
REMARK    1  A    between atoms: C2_2  and  C4_4 
REMARK    2  A    between atoms: C4_4  and  C7_7 
REMARK    3  A    between atoms: C7_7  and  C8_9 
REMARK    4  A    between atoms: C8_9  and  C9_10 
REMARK    5  A    between atoms: C9_10  and  C10_11 
ROOT
HETATM    1  C4  UNL     1      -1.372   0.480   4.105  1.00  0.00     0.011 C 
HETATM    2  C5  UNL     1      -2.099   1.419   3.453  1.00  0.00    -0.015 C 
HETATM    3  C6  UNL     1      -3.531   1.421   3.235  1.00  0.00     0.037 C 
ENDROOT
BRANCH   1   4
HETATM    4  C2  UNL     1       0.073   0.713   4.191  1.00  0.00    -0.058 C 
HETATM    5  C1  UNL     1       0.676   1.707   4.717  1.00  0.00     0.019 C 
HETATM    6  C3  UNL     1       0.987  -0.353   3.588  1.00  0.00     0.048 C 
ENDBRANCH   1   4
BRANCH   1   7
HETATM    7  C7  UNL     1      -2.082  -0.648   4.653  1.00  0.00     0.159 C 
HETATM    8  O1  UNL     1      -2.277  -1.658   3.862  1.00  0.00    -0.292 OA
BRANCH   7   9
HETATM    9  C8  UNL     1      -2.635  -0.854   5.989  1.00  0.00     0.084 C 
BRANCH   9  10
HETATM   10  C9  UNL     1      -2.343   0.273   6.972  1.00  0.00     0.007 C 
BRANCH  10  11
HETATM   11  C10 UNL     1      -3.078   0.150   8.264  1.00  0.00    -0.004 C 
HETATM   12  C11 UNL     1      -2.800   1.311   9.203  1.00  0.00     0.005 C 
ENDBRANCH  10  11
ENDBRANCH   9  10
ENDBRANCH   7   9
ENDBRANCH   1   7
TORSDOF 5
ENDMDL
MODEL 2
REMARK VINA RESULT: -7.315068587      0.799      1.097
REMARK  5 active torsions:
REMARK  status: ('A' for Active; 'I' for Inactive)
REMARK    1  A    between atoms: C2_2  and  C4_4 
REMARK    2  A    between atoms: C4_4  and  C7_7 
REMARK    3  A    between atoms: C7_7  and  C8_9 
REMARK    4  A    between atoms: C8_9  and  C9_10 
REMARK    5  A    between atoms: C9_10  and  C10_11 
ROOT
HETATM    1  C4  UNL     1      -1.429   0.511   4.095  1.00  0.00     0.011 C 
HETATM    2  C5  UNL     1      -2.151   1.451   3.439  1.00  0.00    -0.015 C 
HETATM    3  C6  UNL     1      -3.582   1.455   3.213  1.00  0.00     0.037 C 
ENDROOT
BRANCH   1   4
HETATM    4  C2  UNL     1       0.015   0.742   4.190  1.00  0.00    -0.058 C 
HETATM    5  C1  UNL     1       0.616   1.741   4.710  1.00  0.00     0.019 C 
HETATM    6  C3  UNL     1       0.932  -0.331   3.605  1.00  0.00     0.048 C 
ENDBRANCH   1   4
BRANCH   1   7
HETATM    7  C7  UNL     1      -2.144  -0.616   4.638  1.00  0.00     0.159 C 
HETATM    8  O1  UNL     1      -2.392  -1.599   3.828  1.00  0.00    -0.292 OA
BRANCH   7   9
HETATM    9  C8  UNL     1      -2.651  -0.848   5.989  1.00  0.00     0.084 C 
BRANCH   9  10
HETATM   10  C9  UNL     1      -2.456   0.323   6.945  1.00  0.00     0.007 C 
BRANCH  10  11
HETATM   11  C10 UNL     1      -1.601   0.000   8.123  1.00  0.00    -0.004 C 
HETATM   12  C11 UNL     1      -0.233  -0.522   7.722  1.00  0.00     0.005 C 
ENDBRANCH  10  11
ENDBRANCH   9  10
ENDBRANCH   7   9
ENDBRANCH   1   7
TORSDOF 5
ENDMDL
MODEL 3
REMARK VINA RESULT: -7.244093721      2.673      5.019
REMARK  5 active torsions:
REMARK  status: ('A' for Active; 'I' for Inactive)
REMARK    1  A    between atoms: C2_2  and  C4_4 
REMARK    2  A    between atoms: C4_4  and  C7_7 
REMARK    3  A    between atoms: C7_7  and  C8_9 
REMARK    4  A    between atoms: C8_9  and  C9_10 
REMARK    5  A    between atoms: C9_10  and  C10_11 
ROOT
HETATM    1  C4  UNL     1      -0.287  -1.265   7.169  1.00  0.00     0.011 C 
HETATM    2  C5  UNL     1      -0.460  -2.553   7.553  1.00  0.00    -0.015 C 
HETATM    3  C6  UNL     1       0.455  -3.658   7.345  1.00  0.00     0.037 C 
ENDROOT
BRANCH   1   4
HETATM    4  C2  UNL     1      -1.368  -0.333   7.502  1.00  0.00    -0.058 C 
HETATM    5  C1  UNL     1      -1.451   0.442   8.513  1.00  0.00     0.019 C 
HETATM    6  C3  UNL     1      -2.547  -0.259   6.533  1.00  0.00     0.048 C 
ENDBRANCH   1   4
BRANCH   1   7
HETATM    7  C7  UNL     1       0.935  -0.935   6.482  1.00  0.00     0.159 C 
HETATM    8  O1  UNL     1       1.982  -0.719   7.217  1.00  0.00    -0.292 OA
BRANCH   7   9
HETATM    9  C8  UNL     1       1.204  -0.797   5.052  1.00  0.00     0.084 C 
BRANCH   9  10
HETATM   10  C9  UNL     1       1.425   0.637   4.588  1.00  0.00     0.007 C 
BRANCH  10  11
HETATM   11  C10 UNL     1       0.245   1.525   4.793  1.00  0.00    -0.004 C 
HETATM   12  C11 UNL     1      -0.716   1.494   3.617  1.00  0.00     0.005 C 
ENDBRANCH  10  11
ENDBRANCH   9  10
ENDBRANCH   7   9
ENDBRANCH   1   7
TORSDOF 5
ENDMDL
MODEL 4
REMARK VINA RESULT: -7.222682815      1.856      4.167
REMARK  5 active torsions:
REMARK  status: ('A' for Active; 'I' for Inactive)
REMARK    1  A    between atoms: C2_2  and  C4_4 
REMARK    2  A    between atoms: C4_4  and  C7_7 
REMARK    3  A    between atoms: C7_7  and  C8_9 
REMARK    4  A    between atoms: C8_9  and  C9_10 
REMARK    5  A    between atoms: C9_10  and  C10_11 
ROOT
HETATM    1  C4  UNL     1      -1.326  -0.491   6.986  1.00  0.00     0.011 C 
HETATM    2  C5  UNL     1      -1.858  -0.084   8.164  1.00  0.00    -0.015 C 
HETATM    3  C6  UNL     1      -3.056   0.709   8.354  1.00  0.00     0.037 C 
ENDROOT
BRANCH   1   4
HETATM    4  C2  UNL     1      -0.099  -1.291   7.064  1.00  0.00    -0.058 C 
HETATM    5  C1  UNL     1       1.078  -0.892   7.353  1.00  0.00     0.019 C 
HETATM    6  C3  UNL     1      -0.223  -2.785   6.770  1.00  0.00     0.048 C 
ENDBRANCH   1   4
BRANCH   1   7
HETATM    7  C7  UNL     1      -2.012  -0.108   5.779  1.00  0.00     0.159 C 
HETATM    8  O1  UNL     1      -2.908  -0.931   5.328  1.00  0.00    -0.292 OA
BRANCH   7   9
HETATM    9  C8  UNL     1      -1.866   1.087   4.950  1.00  0.00     0.084 C 
BRANCH   9  10
HETATM   10  C9  UNL     1      -0.453   1.324   4.430  1.00  0.00     0.007 C 
BRANCH  10  11
HETATM   11  C10 UNL     1      -0.037   0.367   3.365  1.00  0.00    -0.004 C 
HETATM   12  C11 UNL     1       1.259  -0.349   3.702  1.00  0.00     0.005 C 
ENDBRANCH  10  11
ENDBRANCH   9  10
ENDBRANCH   7   9
ENDBRANCH   1   7
TORSDOF 5
ENDMDL
MODEL 5
REMARK VINA RESULT: -7.103216248      1.398      2.867
REMARK  5 active torsions:
REMARK  status: ('A' for Active; 'I' for Inactive)
REMARK    1  A    between atoms: C2_2  and  C4_4 
REMARK    2  A    between atoms: C4_4  and  C7_7 
REMARK    3  A    between atoms: C7_7  and  C8_9 
REMARK    4  A    between atoms: C8_9  and  C9_10 
REMARK    5  A    between atoms: C9_10  and  C10_11 
ROOT
HETATM    1  C4  UNL     1      -1.641   0.503   4.812  1.00  0.00     0.011 C 
HETATM    2  C5  UNL     1      -0.783   1.362   4.211  1.00  0.00    -0.015 C 
HETATM    3  C6  UNL     1       0.510   1.794   4.702  1.00  0.00     0.037 C 
ENDROOT
BRANCH   1   4
HETATM    4  C2  UNL     1      -2.894   0.226   4.104  1.00  0.00    -0.058 C 
HETATM    5  C1  UNL     1      -3.536  -0.876   4.051  1.00  0.00     0.019 C 
HETATM    6  C3  UNL     1      -3.528   1.383   3.333  1.00  0.00     0.048 C 
ENDBRANCH   1   4
BRANCH   1   7
HETATM    7  C7  UNL     1      -1.242  -0.058   6.078  1.00  0.00     0.159 C 
HETATM    8  O1  UNL     1      -0.581  -1.174   6.043  1.00  0.00    -0.292 OA
BRANCH   7   9
HETATM    9  C8  UNL     1      -1.462   0.433   7.437  1.00  0.00     0.084 C 
BRANCH   9  10
HETATM   10  C9  UNL     1      -2.829   0.094   8.016  1.00  0.00     0.007 C 
BRANCH  10  11
HETATM   11  C10 UNL     1      -3.362   1.130   8.946  1.00  0.00    -0.004 C 
HETATM   12  C11 UNL     1      -2.266   1.797   9.760  1.00  0.00     0.005 C 
ENDBRANCH  10  11
ENDBRANCH   9  10
ENDBRANCH   7   9
ENDBRANCH   1   7
TORSDOF 5
ENDMDL
