MODEL 1
REMARK VINA RESULT: -7.079860521      0.000      0.000
REMARK  5 active torsions:
REMARK  status: ('A' for Active; 'I' for Inactive)
REMARK    1  A    between atoms: C2_2  and  C4_4 
REMARK    2  A    between atoms: C4_4  and  O1_7 
REMARK    3  A    between atoms: O1_7  and  C7_8 
REMARK    4  A    between atoms: C7_8  and  C8_9 
REMARK    5  A    between atoms: C8_9  and  C9_10 
ROOT
HETATM    1  C4  UNL     1      -1.298   0.367   4.030  1.00  0.00     0.069 C 
HETATM    2  C5  UNL     1      -2.088   1.313   3.564  1.00  0.00     0.006 C 
HETATM    3  C6  UNL     1      -3.548   1.181   3.382  1.00  0.00     0.039 C 
ENDROOT
BRANCH   1   4
HETATM    4  C2  UNL     1       0.137   0.627   4.163  1.00  0.00    -0.038 C 
HETATM    5  C1  UNL     1       0.561   1.724   4.743  1.00  0.00     0.021 C 
HETATM    6  C3  UNL     1       1.146  -0.350   3.644  1.00  0.00     0.050 C 
ENDBRANCH   1   4
BRANCH   1   7
HETATM    7  O1  UNL     1      -1.777  -0.875   4.400  1.00  0.00    -0.351 OA
BRANCH   7   8
HETATM    8  C7  UNL     1      -1.660  -1.257   5.755  1.00  0.00     0.176 C 
BRANCH   8   9
HETATM    9  C8  UNL     1      -2.793  -0.711   6.595  1.00  0.00     0.030 C 
BRANCH   9  10
HETATM   10  C9  UNL     1      -2.254   0.422   7.448  1.00  0.00    -0.021 C 
HETATM   11  C10 UNL     1      -3.198   0.735   8.595  1.00  0.00     0.009 C 
HETATM   12  C11 UNL     1      -0.928   0.021   8.077  1.00  0.00     0.009 C 
ENDBRANCH   9  10
ENDBRANCH   8   9
ENDBRANCH   7   8
ENDBRANCH   1   7
TORSDOF 5
ENDMDL
MODEL 2
REMARK VINA RESULT: -7.063523418      1.570      4.038
REMARK  5 active torsions:
REMARK  status: ('A' for Active; 'I' for Inactive)
REMARK    1  A    between atoms: C2_2  and  C4_4 
REMARK    2  A    between atoms: C4_4  and  O1_7 
REMARK    3  A    between atoms: O1_7  and  C7_8 
REMARK    4  A    between atoms: C7_8  and  C8_9 
REMARK    5  A    between atoms: C8_9  and  C9_10 
ROOT
HETATM    1  C4  UNL     1      -1.412  -0.907   7.203  1.00  0.00     0.069 C 
HETATM    2  C5  UNL     1      -1.709  -0.128   8.223  1.00  0.00     0.006 C 
HETATM    3  C6  UNL     1      -2.940   0.680   8.339  1.00  0.00     0.039 C 
ENDROOT
BRANCH   1   4
HETATM    4  C2  UNL     1      -0.154  -1.657   7.212  1.00  0.00    -0.038 C 
HETATM    5  C1  UNL     1       0.988  -1.036   7.380  1.00  0.00     0.021 C 
HETATM    6  C3  UNL     1      -0.145  -3.144   7.032  1.00  0.00     0.050 C 
ENDBRANCH   1   4
BRANCH   1   7
HETATM    7  O1  UNL     1      -2.250  -1.044   6.113  1.00  0.00    -0.351 OA
BRANCH   7   8
HETATM    8  C7  UNL     1      -1.801  -0.564   4.863  1.00  0.00     0.176 C 
BRANCH   8   9
HETATM    9  C8  UNL     1      -2.200   0.876   4.635  1.00  0.00     0.030 C 
BRANCH   9  10
HETATM   10  C9  UNL     1      -1.053   1.587   3.941  1.00  0.00    -0.021 C 
HETATM   11  C10 UNL     1       0.233   1.449   4.736  1.00  0.00     0.009 C 
HETATM   12  C11 UNL     1      -0.790   0.958   2.582  1.00  0.00     0.009 C 
ENDBRANCH   9  10
ENDBRANCH   8   9
ENDBRANCH   7   8
ENDBRANCH   1   7
TORSDOF 5
ENDMDL
MODEL 3
REMARK VINA RESULT: -6.986452380      0.785      1.254
REMARK  5 active torsions:
REMARK  status: ('A' for Active; 'I' for Inactive)
REMARK    1  A    between atoms: C2_2  and  C4_4 
REMARK    2  A    between atoms: C4_4  and  O1_7 
REMARK    3  A    between atoms: O1_7  and  C7_8 
REMARK    4  A    between atoms: C7_8  and  C8_9 
REMARK    5  A    between atoms: C8_9  and  C9_10 
ROOT
HETATM    1  C4  UNL     1      -1.020  -0.291   3.613  1.00  0.00     0.069 C 
HETATM    2  C5  UNL     1      -1.716   0.297   2.662  1.00  0.00     0.006 C 
HETATM    3  C6  UNL     1      -3.036  -0.157   2.177  1.00  0.00     0.039 C 
ENDROOT
BRANCH   1   4
HETATM    4  C2  UNL     1       0.279   0.262   4.001  1.00  0.00    -0.038 C 
HETATM    5  C1  UNL     1       1.383  -0.405   3.764  1.00  0.00     0.021 C 
HETATM    6  C3  UNL     1       0.376   1.597   4.673  1.00  0.00     0.050 C 
ENDBRANCH   1   4
BRANCH   1   7
HETATM    7  O1  UNL     1      -1.472  -1.423   4.264  1.00  0.00    -0.351 OA
BRANCH   7   8
HETATM    8  C7  UNL     1      -1.513  -1.407   5.676  1.00  0.00     0.176 C 
BRANCH   8   9
HETATM    9  C8  UNL     1      -2.664  -0.577   6.198  1.00  0.00     0.030 C 
BRANCH   9  10
HETATM   10  C9  UNL     1      -2.126   0.392   7.234  1.00  0.00    -0.021 C 
HETATM   11  C10 UNL     1      -3.089   0.532   8.399  1.00  0.00     0.009 C 
HETATM   12  C11 UNL     1      -0.821  -0.132   7.814  1.00  0.00     0.009 C 
ENDBRANCH   9  10
ENDBRANCH   8   9
ENDBRANCH   7   8
ENDBRANCH   1   7
TORSDOF 5
ENDMDL
MODEL 4
REMARK VINA RESULT: -6.868731008      1.963      3.455
REMARK  5 active torsions:
REMARK  status: ('A' for Active; 'I' for Inactive)
REMARK    1  A    between atoms: C2_2  and  C4_4 
REMARK    2  A    between atoms: C4_4  and  O1_7 
REMARK    3  A    between atoms: O1_7  and  C7_8 
REMARK    4  A    between atoms: C7_8  and  C8_9 
REMARK    5  A    between atoms: C8_9  and  C9_10 
ROOT
HETATM    1  C4  UNL     1      -2.004  -0.059   6.175  1.00  0.00     0.069 C 
HETATM    2  C5  UNL     1      -2.436   0.448   7.311  1.00  0.00     0.006 C 
HETATM    3  C6  UNL     1      -2.836  -0.344   8.492  1.00  0.00     0.039 C 
ENDROOT
BRANCH   1   4
HETATM    4  C2  UNL     1      -1.639   0.840   5.078  1.00  0.00    -0.038 C 
HETATM    5  C1  UNL     1      -2.519   1.158   4.160  1.00  0.00     0.021 C 
HETATM    6  C3  UNL     1      -0.259   1.414   4.983  1.00  0.00     0.050 C 
ENDBRANCH   1   4
BRANCH   1   7
HETATM    7  O1  UNL     1      -1.883  -1.421   5.976  1.00  0.00    -0.351 OA
BRANCH   7   8
HETATM    8  C7  UNL     1      -0.585  -1.978   5.958  1.00  0.00     0.176 C 
BRANCH   8   9
HETATM    9  C8  UNL     1      -0.372  -2.946   7.100  1.00  0.00     0.030 C 
BRANCH   9  10
HETATM   10  C9  UNL     1       0.953  -2.619   7.764  1.00  0.00    -0.021 C 
HETATM   11  C10 UNL     1       1.326  -1.164   7.544  1.00  0.00     0.009 C 
HETATM   12  C11 UNL     1       0.850  -2.816   9.269  1.00  0.00     0.009 C 
ENDBRANCH   9  10
ENDBRANCH   8   9
ENDBRANCH   7   8
ENDBRANCH   1   7
TORSDOF 5
ENDMDL
MODEL 5
REMARK VINA RESULT: -6.859153178      1.580      4.358
REMARK  5 active torsions:
REMARK  status: ('A' for Active; 'I' for Inactive)
REMARK    1  A    between atoms: C2_2  and  C4_4 
REMARK    2  A    between atoms: C4_4  and  O1_7 
REMARK    3  A    between atoms: O1_7  and  C7_8 
REMARK    4  A    between atoms: C7_8  and  C8_9 
REMARK    5  A    between atoms: C8_9  and  C9_10 
ROOT
HETATM    1  C4  UNL     1      -1.147  -0.216   7.165  1.00  0.00     0.069 C 
HETATM    2  C5  UNL     1      -2.086  -0.394   8.072  1.00  0.00     0.006 C 
HETATM    3  C6  UNL     1      -3.140   0.587   8.401  1.00  0.00     0.039 C 
ENDROOT
BRANCH   1   4
HETATM    4  C2  UNL     1      -0.158  -1.272   6.935  1.00  0.00    -0.038 C 
HETATM    5  C1  UNL     1      -0.529  -2.435   6.456  1.00  0.00     0.021 C 
HETATM    6  C3  UNL     1       1.290  -1.047   7.240  1.00  0.00     0.050 C 
ENDBRANCH   1   4
BRANCH   1   7
HETATM    7  O1  UNL     1      -1.058   0.941   6.415  1.00  0.00    -0.351 OA
BRANCH   7   8
HETATM    8  C7  UNL     1      -1.528   0.909   5.083  1.00  0.00     0.176 C 
BRANCH   8   9
HETATM    9  C8  UNL     1      -0.516   1.479   4.115  1.00  0.00     0.030 C 
BRANCH   9  10
HETATM   10  C9  UNL     1      -0.104   0.381   3.152  1.00  0.00    -0.021 C 
HETATM   11  C10 UNL     1       1.168  -0.303   3.621  1.00  0.00     0.009 C 
HETATM   12  C11 UNL     1      -1.176  -0.696   3.092  1.00  0.00     0.009 C 
ENDBRANCH   9  10
ENDBRANCH   8   9
ENDBRANCH   7   8
ENDBRANCH   1   7
TORSDOF 5
ENDMDL
