MODEL 1
REMARK VINA RESULT: -10.029239424      0.000      0.000
REMARK  12 active torsions:
REMARK  status: ('A' for Active; 'I' for Inactive)
REMARK    1  A    between atoms: C1_4  and  O1_5 
REMARK    2  A    between atoms: C1_4  and  C2_7 
REMARK    3  A    between atoms: C4_11  and  N2_12 
REMARK       I    between atoms: N2_12  and  C5_14 
REMARK    4  A    between atoms: C5_14  and  C6_16 
REMARK    5  A    between atoms: C7_18  and  N3_19 
REMARK    6  A    between atoms: C8_24  and  N5_25 
REMARK    7  A    between atoms: N6_27  and  C9_29 
REMARK    8  A    between atoms: C10_30  and  N7_31 
REMARK    9  A    between atoms: N7_31  and  C11_33 
REMARK   10  A    between atoms: C11_33  and  C12_34 
REMARK   11  A    between atoms: C11_33  and  C13_37 
REMARK   12  A    between atoms: C12_34  and  O5_35 
REMARK       I    between atoms: C13_37  and  N8_39 
ROOT
HETATM    1  N5  UNL     1      -6.508  26.476  26.143  1.00  0.00    -0.284 N 
ATOM      2  H5  UNL     1      -7.263  25.988  25.660  1.00  0.00     0.188 HD
HETATM    3  N6  UNL     1      -5.573  25.811  26.669  1.00  0.00    -0.293 N 
ATOM      4  H6  UNL     1      -5.603  24.793  26.595  1.00  0.00     0.187 HD
ENDROOT
BRANCH   1   5
HETATM    5  C8  UNL     1      -6.524  27.941  26.214  1.00  0.00     0.145 A 
HETATM    6  C6  UNL     1      -6.055  28.695  25.186  1.00  0.00     0.121 A 
HETATM    7  S1  UNL     1      -6.322  30.302  25.825  1.00  0.00    -0.045 SA
HETATM    8  C7  UNL     1      -6.995  29.866  27.318  1.00  0.00     0.144 A 
HETATM    9  N4  UNL     1      -6.993  28.540  27.277  1.00  0.00    -0.321 N 
ATOM     10  H4  UNL     1      -7.351  27.996  28.062  1.00  0.00     0.169 HD
BRANCH   6  11
HETATM   11  C5  UNL     1      -5.474  28.387  23.882  1.00  0.00     0.264 C 
HETATM   12  N2  UNL     1      -4.946  27.125  23.590  1.00  0.00    -0.327 N 
ATOM     13  H2  UNL     1      -4.946  26.370  24.276  1.00  0.00     0.165 HD
HETATM   14  O4  UNL     1      -5.468  29.320  23.017  1.00  0.00    -0.267 OA
BRANCH  12  15
HETATM   15  C4  UNL     1      -4.385  26.945  22.227  1.00  0.00     0.263 C 
HETATM   16  C2  UNL     1      -5.456  26.331  21.386  1.00  0.00     0.246 C 
HETATM   17  O2  UNL     1      -4.847  25.294  20.734  1.00  0.00    -0.349 OA
HETATM   18  C3  UNL     1      -3.571  25.147  21.203  1.00  0.00     0.341 C 
HETATM   19  O3  UNL     1      -3.417  25.949  22.331  1.00  0.00    -0.340 OA
BRANCH  16  20
HETATM   20  C1  UNL     1      -6.000  27.319  20.419  1.00  0.00     0.143 C 
HETATM   21  N1  UNL     1      -7.250  27.593  20.360  1.00  0.00    -0.381 N 
ATOM     22  H12 UNL     1      -7.624  28.272  19.696  1.00  0.00     0.158 HD
ATOM     23  H11 UNL     1      -7.901  27.126  20.990  1.00  0.00     0.158 HD
BRANCH  20  24
HETATM   24  O1  UNL     1      -5.120  27.950  19.567  1.00  0.00    -0.348 OA
ATOM     25  H1  UNL     1      -4.194  27.973  19.779  1.00  0.00     0.219 HD
ENDBRANCH  20  24
ENDBRANCH  16  20
ENDBRANCH  12  15
ENDBRANCH   6  11
BRANCH   8  26
HETATM   26  N3  UNL     1      -7.418  30.647  28.284  1.00  0.00    -0.380 N 
ATOM     27  H32 UNL     1      -6.969  31.480  28.665  1.00  0.00     0.158 HD
ATOM     28  H31 UNL     1      -8.273  30.571  28.837  1.00  0.00     0.158 HD
ENDBRANCH   8  26
ENDBRANCH   1   5
BRANCH   3  29
HETATM   29  C9  UNL     1      -4.475  26.404  27.364  1.00  0.00     0.133 A 
HETATM   30  C10 UNL     1      -3.978  26.344  28.648  1.00  0.00     0.116 A 
HETATM   31  C17 UNL     1      -2.952  27.221  28.345  1.00  0.00     0.252 A 
HETATM   32  O7  UNL     1      -1.978  27.759  28.932  1.00  0.00    -0.281 OA
HETATM   33  C18 UNL     1      -3.446  27.284  27.060  1.00  0.00     0.254 A 
HETATM   34  O8  UNL     1      -3.164  27.861  25.985  1.00  0.00    -0.281 OA
BRANCH  30  35
HETATM   35  N7  UNL     1      -4.365  25.649  29.836  1.00  0.00    -0.370 N 
ATOM     36  H7  UNL     1      -5.307  25.800  30.197  1.00  0.00     0.160 HD
BRANCH  35  37
HETATM   37  C11 UNL     1      -3.504  24.755  30.546  1.00  0.00     0.199 C 
BRANCH  37  38
HETATM   38  C12 UNL     1      -2.449  25.495  31.347  1.00  0.00     0.198 C 
BRANCH  38  39
HETATM   39  O5  UNL     1      -1.805  24.665  32.262  1.00  0.00    -0.398 OA
ATOM     40  H5  UNL     1      -1.616  23.808  31.897  1.00  0.00     0.209 HD
ENDBRANCH  38  39
ENDBRANCH  37  38
BRANCH  37  41
HETATM   41  C13 UNL     1      -4.324  23.875  31.407  1.00  0.00     0.260 C 
HETATM   42  O6  UNL     1      -5.338  24.338  32.019  1.00  0.00    -0.270 OA
HETATM   43  N8  UNL     1      -3.964  22.496  31.547  1.00  0.00    -0.158 N 
HETATM   44  C14 UNL     1      -3.716  22.069  32.737  1.00  0.00     0.684 A 
ATOM     45  H8  UNL     1      -3.905  21.877  30.738  1.00  0.00     0.187 HD
HETATM   46  N9  UNL     1      -3.742  22.733  33.901  1.00  0.00    -0.200 N 
HETATM   47  N10 UNL     1      -3.366  20.789  33.014  1.00  0.00    -0.200 N 
HETATM   48  C15 UNL     1      -3.417  21.919  34.928  1.00  0.00     0.123 A 
ATOM     49  H9  UNL     1      -3.976  23.721  33.998  1.00  0.00     0.183 HD
HETATM   50  C16 UNL     1      -3.186  20.703  34.342  1.00  0.00     0.123 A 
ATOM     51  H10 UNL     1      -3.259  20.032  32.338  1.00  0.00     0.183 HD
ENDBRANCH  37  41
ENDBRANCH  35  37
ENDBRANCH  30  35
ENDBRANCH   3  29
TORSDOF 12
ENDMDL
MODEL 2
REMARK VINA RESULT: -9.840200581      3.031      9.577
REMARK  12 active torsions:
REMARK  status: ('A' for Active; 'I' for Inactive)
REMARK    1  A    between atoms: C1_4  and  O1_5 
REMARK    2  A    between atoms: C1_4  and  C2_7 
REMARK    3  A    between atoms: C4_11  and  N2_12 
REMARK       I    between atoms: N2_12  and  C5_14 
REMARK    4  A    between atoms: C5_14  and  C6_16 
REMARK    5  A    between atoms: C7_18  and  N3_19 
REMARK    6  A    between atoms: C8_24  and  N5_25 
REMARK    7  A    between atoms: N6_27  and  C9_29 
REMARK    8  A    between atoms: C10_30  and  N7_31 
REMARK    9  A    between atoms: N7_31  and  C11_33 
REMARK   10  A    between atoms: C11_33  and  C12_34 
REMARK   11  A    between atoms: C11_33  and  C13_37 
REMARK   12  A    between atoms: C12_34  and  O5_35 
REMARK       I    between atoms: C13_37  and  N8_39 
ROOT
HETATM    1  N5  UNL     1      -6.586  27.216  27.238  1.00  0.00    -0.284 N 
ATOM      2  H5  UNL     1      -7.065  26.956  28.101  1.00  0.00     0.188 HD
HETATM    3  N6  UNL     1      -6.732  26.503  26.206  1.00  0.00    -0.293 N 
ATOM      4  H6  UNL     1      -7.331  25.680  26.269  1.00  0.00     0.187 HD
ENDROOT
BRANCH   1   5
HETATM    5  C8  UNL     1      -5.738  28.413  27.215  1.00  0.00     0.145 A 
HETATM    6  C6  UNL     1      -4.445  28.358  27.626  1.00  0.00     0.121 A 
HETATM    7  S1  UNL     1      -3.965  30.024  27.382  1.00  0.00    -0.045 SA
HETATM    8  C7  UNL     1      -5.437  30.620  26.789  1.00  0.00     0.144 A 
HETATM    9  N4  UNL     1      -6.224  29.551  26.798  1.00  0.00    -0.321 N 
ATOM     10  H4  UNL     1      -7.191  29.618  26.484  1.00  0.00     0.169 HD
BRANCH   6  11
HETATM   11  C5  UNL     1      -3.585  27.297  28.143  1.00  0.00     0.264 C 
HETATM   12  N2  UNL     1      -2.303  27.560  28.634  1.00  0.00    -0.327 N 
ATOM     13  H2  UNL     1      -1.917  28.504  28.651  1.00  0.00     0.165 HD
HETATM   14  O4  UNL     1      -4.055  26.114  28.127  1.00  0.00    -0.267 OA
BRANCH  12  15
HETATM   15  C4  UNL     1      -1.533  26.390  29.129  1.00  0.00     0.263 C 
HETATM   16  C2  UNL     1      -1.381  26.555  30.606  1.00  0.00     0.246 C 
HETATM   17  O2  UNL     1      -0.056  26.320  30.856  1.00  0.00    -0.349 OA
HETATM   18  C3  UNL     1       0.611  26.171  29.672  1.00  0.00     0.341 C 
HETATM   19  O3  UNL     1      -0.240  26.535  28.632  1.00  0.00    -0.340 OA
BRANCH  16  20
HETATM   20  C1  UNL     1      -2.238  25.587  31.336  1.00  0.00     0.143 C 
HETATM   21  N1  UNL     1      -3.480  25.435  31.060  1.00  0.00    -0.381 N 
ATOM     22  H12 UNL     1      -4.069  24.771  31.561  1.00  0.00     0.158 HD
ATOM     23  H11 UNL     1      -3.905  25.991  30.317  1.00  0.00     0.158 HD
BRANCH  20  24
HETATM   24  O1  UNL     1      -1.664  24.836  32.340  1.00  0.00    -0.348 OA
ATOM     25  H1  UNL     1      -1.452  25.244  33.171  1.00  0.00     0.219 HD
ENDBRANCH  20  24
ENDBRANCH  16  20
ENDBRANCH  12  15
ENDBRANCH   6  11
BRANCH   8  26
HETATM   26  N3  UNL     1      -5.732  31.842  26.411  1.00  0.00    -0.380 N 
ATOM     27  H32 UNL     1      -6.340  32.137  25.647  1.00  0.00     0.158 HD
ATOM     28  H31 UNL     1      -5.411  32.726  26.807  1.00  0.00     0.158 HD
ENDBRANCH   8  26
ENDBRANCH   1   5
BRANCH   3  29
HETATM   29  C9  UNL     1      -6.103  26.787  24.955  1.00  0.00     0.133 A 
HETATM   30  C10 UNL     1      -6.482  27.408  23.785  1.00  0.00     0.116 A 
HETATM   31  C17 UNL     1      -5.242  27.190  23.210  1.00  0.00     0.252 A 
HETATM   32  O7  UNL     1      -4.664  27.427  22.118  1.00  0.00    -0.281 OA
HETATM   33  C18 UNL     1      -4.860  26.568  24.378  1.00  0.00     0.254 A 
HETATM   34  O8  UNL     1      -3.841  26.004  24.838  1.00  0.00    -0.281 OA
BRANCH  30  35
HETATM   35  N7  UNL     1      -7.683  28.037  23.333  1.00  0.00    -0.370 N 
ATOM     36  H7  UNL     1      -8.574  27.610  23.586  1.00  0.00     0.160 HD
BRANCH  35  37
HETATM   37  C11 UNL     1      -7.706  29.231  22.546  1.00  0.00     0.199 C 
BRANCH  37  38
HETATM   38  C12 UNL     1      -9.103  29.563  22.056  1.00  0.00     0.198 C 
BRANCH  38  39
HETATM   39  O5  UNL     1      -9.267  30.927  21.823  1.00  0.00    -0.398 OA
ATOM     40  H5  UNL     1     -10.059  31.114  21.334  1.00  0.00     0.209 HD
ENDBRANCH  38  39
ENDBRANCH  37  38
BRANCH  37  41
HETATM   41  C13 UNL     1      -7.125  30.341  23.331  1.00  0.00     0.260 C 
HETATM   42  O6  UNL     1      -7.740  30.801  24.345  1.00  0.00    -0.270 OA
HETATM   43  N8  UNL     1      -5.863  30.894  22.940  1.00  0.00    -0.158 N 
HETATM   44  C14 UNL     1      -5.831  32.151  22.662  1.00  0.00     0.684 A 
ATOM     45  H8  UNL     1      -5.024  30.316  22.882  1.00  0.00     0.187 HD
HETATM   46  N9  UNL     1      -6.824  33.052  22.683  1.00  0.00    -0.200 N 
HETATM   47  N10 UNL     1      -4.706  32.804  22.281  1.00  0.00    -0.200 N 
HETATM   48  C15 UNL     1      -6.374  34.274  22.323  1.00  0.00     0.123 A 
ATOM     49  H9  UNL     1      -7.790  32.843  22.936  1.00  0.00     0.183 HD
HETATM   50  C16 UNL     1      -5.040  34.089  22.076  1.00  0.00     0.123 A 
ATOM     51  H10 UNL     1      -3.779  32.394  22.169  1.00  0.00     0.183 HD
ENDBRANCH  37  41
ENDBRANCH  35  37
ENDBRANCH  30  35
ENDBRANCH   3  29
TORSDOF 12
ENDMDL
MODEL 3
REMARK VINA RESULT: -9.668537796      3.024      8.768
REMARK  12 active torsions:
REMARK  status: ('A' for Active; 'I' for Inactive)
REMARK    1  A    between atoms: C1_4  and  O1_5 
REMARK    2  A    between atoms: C1_4  and  C2_7 
REMARK    3  A    between atoms: C4_11  and  N2_12 
REMARK       I    between atoms: N2_12  and  C5_14 
REMARK    4  A    between atoms: C5_14  and  C6_16 
REMARK    5  A    between atoms: C7_18  and  N3_19 
REMARK    6  A    between atoms: C8_24  and  N5_25 
REMARK    7  A    between atoms: N6_27  and  C9_29 
REMARK    8  A    between atoms: C10_30  and  N7_31 
REMARK    9  A    between atoms: N7_31  and  C11_33 
REMARK   10  A    between atoms: C11_33  and  C12_34 
REMARK   11  A    between atoms: C11_33  and  C13_37 
REMARK   12  A    between atoms: C12_34  and  O5_35 
REMARK       I    between atoms: C13_37  and  N8_39 
ROOT
HETATM    1  N5  UNL     1      -6.384  26.798  27.087  1.00  0.00    -0.284 N 
ATOM      2  H5  UNL     1      -6.903  25.989  27.430  1.00  0.00     0.188 HD
HETATM    3  N6  UNL     1      -6.515  27.913  27.666  1.00  0.00    -0.293 N 
ATOM      4  H6  UNL     1      -7.144  27.969  28.467  1.00  0.00     0.187 HD
ENDROOT
BRANCH   1   5
HETATM    5  C8  UNL     1      -5.497  26.649  25.928  1.00  0.00     0.145 A 
HETATM    6  C6  UNL     1      -4.226  26.193  26.078  1.00  0.00     0.121 A 
HETATM    7  S1  UNL     1      -3.679  26.231  24.416  1.00  0.00    -0.045 SA
HETATM    8  C7  UNL     1      -5.101  26.815  23.701  1.00  0.00     0.144 A 
HETATM    9  N4  UNL     1      -5.923  26.957  24.733  1.00  0.00    -0.321 N 
ATOM     10  H4  UNL     1      -6.874  27.300  24.594  1.00  0.00     0.169 HD
BRANCH   6  11
HETATM   11  C5  UNL     1      -3.426  25.766  27.223  1.00  0.00     0.264 C 
HETATM   12  N2  UNL     1      -2.316  26.496  27.660  1.00  0.00    -0.327 N 
ATOM     13  H2  UNL     1      -2.021  27.355  27.196  1.00  0.00     0.165 HD
HETATM   14  O4  UNL     1      -3.784  24.696  27.811  1.00  0.00    -0.267 OA
BRANCH  12  15
HETATM   15  C4  UNL     1      -1.590  25.951  28.836  1.00  0.00     0.263 C 
HETATM   16  C2  UNL     1      -2.088  26.683  30.039  1.00  0.00     0.246 C 
HETATM   17  O2  UNL     1      -0.962  27.054  30.721  1.00  0.00    -0.349 OA
HETATM   18  C3  UNL     1       0.143  26.740  29.981  1.00  0.00     0.341 C 
HETATM   19  O3  UNL     1      -0.268  26.366  28.705  1.00  0.00    -0.340 OA
BRANCH  16  20
HETATM   20  C1  UNL     1      -2.948  25.805  30.873  1.00  0.00     0.143 C 
HETATM   21  N1  UNL     1      -2.460  25.021  31.761  1.00  0.00    -0.381 N 
ATOM     22  H12 UNL     1      -3.050  24.418  32.334  1.00  0.00     0.158 HD
ATOM     23  H11 UNL     1      -1.452  24.990  31.909  1.00  0.00     0.158 HD
BRANCH  20  24
HETATM   24  O1  UNL     1      -4.311  25.847  30.672  1.00  0.00    -0.348 OA
ATOM     25  H1  UNL     1      -4.720  25.222  30.085  1.00  0.00     0.219 HD
ENDBRANCH  20  24
ENDBRANCH  16  20
ENDBRANCH  12  15
ENDBRANCH   6  11
BRANCH   8  26
HETATM   26  N3  UNL     1      -5.336  27.067  22.434  1.00  0.00    -0.380 N 
ATOM     27  H32 UNL     1      -5.549  26.405  21.688  1.00  0.00     0.158 HD
ATOM     28  H31 UNL     1      -5.351  27.969  21.957  1.00  0.00     0.158 HD
ENDBRANCH   8  26
ENDBRANCH   1   5
BRANCH   3  29
HETATM   29  C9  UNL     1      -5.832  29.099  27.259  1.00  0.00     0.133 A 
HETATM   30  C10 UNL     1      -6.154  30.208  26.508  1.00  0.00     0.116 A 
HETATM   31  C17 UNL     1      -4.895  30.755  26.685  1.00  0.00     0.252 A 
HETATM   32  O7  UNL     1      -4.269  31.790  26.341  1.00  0.00    -0.281 OA
HETATM   33  C18 UNL     1      -4.568  29.647  27.436  1.00  0.00     0.254 A 
HETATM   34  O8  UNL     1      -3.577  29.210  28.063  1.00  0.00    -0.281 OA
BRANCH  30  35
HETATM   35  N7  UNL     1      -7.328  30.637  25.815  1.00  0.00    -0.370 N 
ATOM     36  H7  UNL     1      -8.035  31.152  26.339  1.00  0.00     0.160 HD
BRANCH  35  37
HETATM   37  C11 UNL     1      -7.566  30.385  24.427  1.00  0.00     0.199 C 
BRANCH  37  38
HETATM   38  C12 UNL     1      -6.274  30.304  23.634  1.00  0.00     0.198 C 
BRANCH  38  39
HETATM   39  O5  UNL     1      -6.505  30.209  22.263  1.00  0.00    -0.398 OA
ATOM     40  H5  UNL     1      -6.071  29.456  21.878  1.00  0.00     0.209 HD
ENDBRANCH  38  39
ENDBRANCH  37  38
BRANCH  37  41
HETATM   41  C13 UNL     1      -8.369  29.152  24.289  1.00  0.00     0.260 C 
HETATM   42  O6  UNL     1      -8.171  28.362  23.312  1.00  0.00    -0.270 OA
HETATM   43  N8  UNL     1      -9.373  28.854  25.266  1.00  0.00    -0.158 N 
HETATM   44  C14 UNL     1     -10.583  28.719  24.845  1.00  0.00     0.684 A 
ATOM     45  H8  UNL     1      -9.141  28.754  26.254  1.00  0.00     0.187 HD
HETATM   46  N9  UNL     1     -11.065  28.817  23.598  1.00  0.00    -0.200 N 
HETATM   47  N10 UNL     1     -11.630  28.436  25.658  1.00  0.00    -0.200 N 
HETATM   48  C15 UNL     1     -12.399  28.605  23.578  1.00  0.00     0.123 A 
ATOM     49  H9  UNL     1     -10.501  29.023  22.774  1.00  0.00     0.183 HD
HETATM   50  C16 UNL     1     -12.728  28.368  24.887  1.00  0.00     0.123 A 
ATOM     51  H10 UNL     1     -11.591  28.300  26.669  1.00  0.00     0.183 HD
ENDBRANCH  37  41
ENDBRANCH  35  37
ENDBRANCH  30  35
ENDBRANCH   3  29
TORSDOF 12
ENDMDL
MODEL 4
REMARK VINA RESULT: -9.650988138      3.140      9.136
REMARK  12 active torsions:
REMARK  status: ('A' for Active; 'I' for Inactive)
REMARK    1  A    between atoms: C1_4  and  O1_5 
REMARK    2  A    between atoms: C1_4  and  C2_7 
REMARK    3  A    between atoms: C4_11  and  N2_12 
REMARK       I    between atoms: N2_12  and  C5_14 
REMARK    4  A    between atoms: C5_14  and  C6_16 
REMARK    5  A    between atoms: C7_18  and  N3_19 
REMARK    6  A    between atoms: C8_24  and  N5_25 
REMARK    7  A    between atoms: N6_27  and  C9_29 
REMARK    8  A    between atoms: C10_30  and  N7_31 
REMARK    9  A    between atoms: N7_31  and  C11_33 
REMARK   10  A    between atoms: C11_33  and  C12_34 
REMARK   11  A    between atoms: C11_33  and  C13_37 
REMARK   12  A    between atoms: C12_34  and  O5_35 
REMARK       I    between atoms: C13_37  and  N8_39 
ROOT
HETATM    1  N5  UNL     1      -6.473  26.971  27.233  1.00  0.00    -0.284 N 
ATOM      2  H5  UNL     1      -6.880  26.638  28.108  1.00  0.00     0.188 HD
HETATM    3  N6  UNL     1      -6.645  26.307  26.173  1.00  0.00    -0.293 N 
ATOM      4  H6  UNL     1      -7.192  25.447  26.226  1.00  0.00     0.187 HD
ENDROOT
BRANCH   1   5
HETATM    5  C8  UNL     1      -5.697  28.215  27.227  1.00  0.00     0.145 A 
HETATM    6  C6  UNL     1      -4.405  28.233  27.648  1.00  0.00     0.121 A 
HETATM    7  S1  UNL     1      -4.022  29.926  27.421  1.00  0.00    -0.045 SA
HETATM    8  C7  UNL     1      -5.522  30.440  26.820  1.00  0.00     0.144 A 
HETATM    9  N4  UNL     1      -6.244  29.327  26.815  1.00  0.00    -0.321 N 
ATOM     10  H4  UNL     1      -7.212  29.340  26.493  1.00  0.00     0.169 HD
BRANCH   6  11
HETATM   11  C5  UNL     1      -3.489  27.219  28.163  1.00  0.00     0.264 C 
HETATM   12  N2  UNL     1      -2.262  27.561  28.741  1.00  0.00    -0.327 N 
ATOM     13  H2  UNL     1      -1.958  28.530  28.826  1.00  0.00     0.165 HD
HETATM   14  O4  UNL     1      -3.856  26.005  28.064  1.00  0.00    -0.267 OA
BRANCH  12  15
HETATM   15  C4  UNL     1      -1.425  26.433  29.224  1.00  0.00     0.263 C 
HETATM   16  C2  UNL     1      -1.271  26.598  30.700  1.00  0.00     0.246 C 
HETATM   17  O2  UNL     1       0.066  26.436  30.940  1.00  0.00    -0.349 OA
HETATM   18  C3  UNL     1       0.732  26.330  29.751  1.00  0.00     0.341 C 
HETATM   19  O3  UNL     1      -0.146  26.651  28.719  1.00  0.00    -0.340 OA
BRANCH  16  20
HETATM   20  C1  UNL     1      -2.068  25.580  31.432  1.00  0.00     0.143 C 
HETATM   21  N1  UNL     1      -3.275  25.300  31.107  1.00  0.00    -0.381 N 
ATOM     22  H12 UNL     1      -3.822  24.601  31.609  1.00  0.00     0.158 HD
ATOM     23  H11 UNL     1      -3.714  25.784  30.324  1.00  0.00     0.158 HD
BRANCH  20  24
HETATM   24  O1  UNL     1      -1.475  24.926  32.491  1.00  0.00    -0.348 OA
ATOM     25  H1  UNL     1      -1.034  25.427  33.166  1.00  0.00     0.219 HD
ENDBRANCH  20  24
ENDBRANCH  16  20
ENDBRANCH  12  15
ENDBRANCH   6  11
BRANCH   8  26
HETATM   26  N3  UNL     1      -5.885  31.646  26.449  1.00  0.00    -0.380 N 
ATOM     27  H32 UNL     1      -5.310  32.486  26.383  1.00  0.00     0.158 HD
ATOM     28  H31 UNL     1      -6.807  31.972  26.158  1.00  0.00     0.158 HD
ENDBRANCH   8  26
ENDBRANCH   1   5
BRANCH   3  29
HETATM   29  C9  UNL     1      -6.115  26.694  24.905  1.00  0.00     0.133 A 
HETATM   30  C10 UNL     1      -6.607  27.336  23.790  1.00  0.00     0.116 A 
HETATM   31  C17 UNL     1      -5.391  27.239  23.136  1.00  0.00     0.252 A 
HETATM   32  O7  UNL     1      -4.898  27.568  22.026  1.00  0.00    -0.281 OA
HETATM   33  C18 UNL     1      -4.895  26.596  24.249  1.00  0.00     0.254 A 
HETATM   34  O8  UNL     1      -3.812  26.092  24.622  1.00  0.00    -0.281 OA
BRANCH  30  35
HETATM   35  N7  UNL     1      -7.877  27.890  23.437  1.00  0.00    -0.370 N 
ATOM     36  H7  UNL     1      -8.695  27.284  23.481  1.00  0.00     0.160 HD
BRANCH  35  37
HETATM   37  C11 UNL     1      -8.062  29.248  23.027  1.00  0.00     0.199 C 
BRANCH  37  38
HETATM   38  C12 UNL     1      -8.590  29.346  21.608  1.00  0.00     0.198 C 
BRANCH  38  39
HETATM   39  O5  UNL     1      -9.570  28.391  21.344  1.00  0.00    -0.398 OA
ATOM     40  H5  UNL     1      -9.578  28.129  20.431  1.00  0.00     0.209 HD
ENDBRANCH  38  39
ENDBRANCH  37  38
BRANCH  37  41
HETATM   41  C13 UNL     1      -8.956  29.928  23.989  1.00  0.00     0.260 C 
HETATM   42  O6  UNL     1      -8.514  30.304  25.121  1.00  0.00    -0.270 OA
HETATM   43  N8  UNL     1     -10.325  30.157  23.635  1.00  0.00    -0.158 N 
HETATM   44  C14 UNL     1     -11.225  29.648  24.403  1.00  0.00     0.684 A 
ATOM     45  H8  UNL     1     -10.576  30.701  22.810  1.00  0.00     0.187 HD
HETATM   46  N9  UNL     1     -11.078  28.913  25.514  1.00  0.00    -0.200 N 
HETATM   47  N10 UNL     1     -12.556  29.787  24.188  1.00  0.00    -0.200 N 
HETATM   48  C15 UNL     1     -12.280  28.571  26.028  1.00  0.00     0.123 A 
ATOM     49  H9  UNL     1     -10.180  28.648  25.918  1.00  0.00     0.183 HD
HETATM   50  C16 UNL     1     -13.191  29.134  25.175  1.00  0.00     0.123 A 
ATOM     51  H10 UNL     1     -12.994  30.295  23.419  1.00  0.00     0.183 HD
ENDBRANCH  37  41
ENDBRANCH  35  37
ENDBRANCH  30  35
ENDBRANCH   3  29
TORSDOF 12
ENDMDL
MODEL 5
REMARK VINA RESULT: -9.567825160      3.106      9.680
REMARK  12 active torsions:
REMARK  status: ('A' for Active; 'I' for Inactive)
REMARK    1  A    between atoms: C1_4  and  O1_5 
REMARK    2  A    between atoms: C1_4  and  C2_7 
REMARK    3  A    between atoms: C4_11  and  N2_12 
REMARK       I    between atoms: N2_12  and  C5_14 
REMARK    4  A    between atoms: C5_14  and  C6_16 
REMARK    5  A    between atoms: C7_18  and  N3_19 
REMARK    6  A    between atoms: C8_24  and  N5_25 
REMARK    7  A    between atoms: N6_27  and  C9_29 
REMARK    8  A    between atoms: C10_30  and  N7_31 
REMARK    9  A    between atoms: N7_31  and  C11_33 
REMARK   10  A    between atoms: C11_33  and  C12_34 
REMARK   11  A    between atoms: C11_33  and  C13_37 
REMARK   12  A    between atoms: C12_34  and  O5_35 
REMARK       I    between atoms: C13_37  and  N8_39 
ROOT
HETATM    1  N5  UNL     1      -6.661  27.254  27.122  1.00  0.00    -0.284 N 
ATOM      2  H5  UNL     1      -7.170  26.998  27.968  1.00  0.00     0.188 HD
HETATM    3  N6  UNL     1      -6.765  26.532  26.091  1.00  0.00    -0.293 N 
ATOM      4  H6  UNL     1      -7.362  25.706  26.138  1.00  0.00     0.187 HD
ENDROOT
BRANCH   1   5
HETATM    5  C8  UNL     1      -5.819  28.455  27.120  1.00  0.00     0.145 A 
HETATM    6  C6  UNL     1      -4.528  28.402  27.538  1.00  0.00     0.121 A 
HETATM    7  S1  UNL     1      -4.056  30.073  27.320  1.00  0.00    -0.045 SA
HETATM    8  C7  UNL     1      -5.527  30.670  26.726  1.00  0.00     0.144 A 
HETATM    9  N4  UNL     1      -6.308  29.597  26.716  1.00  0.00    -0.321 N 
ATOM     10  H4  UNL     1      -7.274  29.663  26.397  1.00  0.00     0.169 HD
BRANCH   6  11
HETATM   11  C5  UNL     1      -3.666  27.337  28.044  1.00  0.00     0.264 C 
HETATM   12  N2  UNL     1      -2.400  27.604  28.575  1.00  0.00    -0.327 N 
ATOM     13  H2  UNL     1      -2.028  28.552  28.629  1.00  0.00     0.165 HD
HETATM   14  O4  UNL     1      -4.118  26.149  27.983  1.00  0.00    -0.267 OA
BRANCH  12  15
HETATM   15  C4  UNL     1      -1.626  26.431  29.055  1.00  0.00     0.263 C 
HETATM   16  C2  UNL     1      -1.441  26.596  30.528  1.00  0.00     0.246 C 
HETATM   17  O2  UNL     1      -0.113  26.355  30.750  1.00  0.00    -0.349 OA
HETATM   18  C3  UNL     1       0.529  26.202  29.552  1.00  0.00     0.341 C 
HETATM   19  O3  UNL     1      -0.343  26.569  28.531  1.00  0.00    -0.340 OA
BRANCH  16  20
HETATM   20  C1  UNL     1      -2.287  25.633  31.277  1.00  0.00     0.143 C 
HETATM   21  N1  UNL     1      -3.543  25.515  31.054  1.00  0.00    -0.381 N 
ATOM     22  H12 UNL     1      -4.125  24.853  31.568  1.00  0.00     0.158 HD
ATOM     23  H11 UNL     1      -3.987  26.094  30.342  1.00  0.00     0.158 HD
BRANCH  20  24
HETATM   24  O1  UNL     1      -1.687  24.850  32.240  1.00  0.00    -0.348 OA
ATOM     25  H1  UNL     1      -1.121  24.133  31.978  1.00  0.00     0.219 HD
ENDBRANCH  20  24
ENDBRANCH  16  20
ENDBRANCH  12  15
ENDBRANCH   6  11
BRANCH   8  26
HETATM   26  N3  UNL     1      -5.826  31.895  26.363  1.00  0.00    -0.380 N 
ATOM     27  H32 UNL     1      -5.407  32.768  26.683  1.00  0.00     0.158 HD
ATOM     28  H31 UNL     1      -6.532  32.207  25.695  1.00  0.00     0.158 HD
ENDBRANCH   8  26
ENDBRANCH   1   5
BRANCH   3  29
HETATM   29  C9  UNL     1      -6.092  26.809  24.862  1.00  0.00     0.133 A 
HETATM   30  C10 UNL     1      -6.359  27.574  23.748  1.00  0.00     0.116 A 
HETATM   31  C17 UNL     1      -5.168  27.206  23.148  1.00  0.00     0.252 A 
HETATM   32  O7  UNL     1      -4.553  27.432  22.074  1.00  0.00    -0.281 OA
HETATM   33  C18 UNL     1      -4.897  26.439  24.260  1.00  0.00     0.254 A 
HETATM   34  O8  UNL     1      -3.985  25.684  24.666  1.00  0.00    -0.281 OA
BRANCH  30  35
HETATM   35  N7  UNL     1      -7.442  28.421  23.356  1.00  0.00    -0.370 N 
ATOM     36  H7  UNL     1      -7.255  29.417  23.239  1.00  0.00     0.160 HD
BRANCH  35  37
HETATM   37  C11 UNL     1      -8.771  27.951  23.118  1.00  0.00     0.199 C 
BRANCH  37  38
HETATM   38  C12 UNL     1      -9.591  27.893  24.393  1.00  0.00     0.198 C 
BRANCH  38  39
HETATM   39  O5  UNL     1      -9.075  28.722  25.388  1.00  0.00    -0.398 OA
ATOM     40  H5  UNL     1      -8.182  28.492  25.617  1.00  0.00     0.209 HD
ENDBRANCH  38  39
ENDBRANCH  37  38
BRANCH  37  41
HETATM   41  C13 UNL     1      -9.413  28.805  22.095  1.00  0.00     0.260 C 
HETATM   42  O6  UNL     1      -9.458  28.430  20.881  1.00  0.00    -0.270 OA
HETATM   43  N8  UNL     1      -9.982  30.060  22.485  1.00  0.00    -0.158 N 
HETATM   44  C14 UNL     1      -9.524  31.118  21.912  1.00  0.00     0.684 A 
ATOM     45  H8  UNL     1     -10.720  30.114  23.188  1.00  0.00     0.187 HD
HETATM   46  N9  UNL     1      -8.568  31.234  20.979  1.00  0.00    -0.200 N 
HETATM   47  N10 UNL     1      -9.972  32.368  22.183  1.00  0.00    -0.200 N 
HETATM   48  C15 UNL     1      -8.382  32.527  20.637  1.00  0.00     0.123 A 
ATOM     49  H9  UNL     1      -8.051  30.450  20.581  1.00  0.00     0.183 HD
HETATM   50  C16 UNL     1      -9.278  33.218  21.409  1.00  0.00     0.123 A 
ATOM     51  H10 UNL     1     -10.701  32.617  22.852  1.00  0.00     0.183 HD
ENDBRANCH  37  41
ENDBRANCH  35  37
ENDBRANCH  30  35
ENDBRANCH   3  29
TORSDOF 12
ENDMDL
