MODEL 1
REMARK VINA RESULT: -10.458253774      0.000      0.000
REMARK  13 active torsions:
REMARK  status: ('A' for Active; 'I' for Inactive)
REMARK    1  A    between atoms: N1_1  and  C1_4 
REMARK    2  A    between atoms: C2_7  and  N3_8 
REMARK    3  A    between atoms: C3_13  and  N5_14 
REMARK       I    between atoms: N5_14  and  C4_16 
REMARK    4  A    between atoms: C4_16  and  C5_18 
REMARK    5  A    between atoms: N6_20  and  C7_21 
REMARK    6  A    between atoms: C7_21  and  C8_22 
REMARK    7  A    between atoms: C7_21  and  C17_39 
REMARK    8  A    between atoms: C8_22  and  C9_24 
REMARK    9  A    between atoms: C9_24  and  N7_25 
REMARK   10  A    between atoms: C11_27  and  N8_28 
REMARK   11  A    between atoms: C17_39  and  O3_40 
REMARK   12  A    between atoms: C17_39  and  O4_42 
REMARK   13  A    between atoms: C18_44  and  N11_45 
ROOT
HETATM    1  C5  UNL     1      -2.995  24.405  31.724  1.00  0.00     0.120 A 
HETATM    2  C6  UNL     1      -3.736  24.973  30.748  1.00  0.00     0.130 A 
HETATM    3  N6  UNL     1      -3.010  26.012  30.184  1.00  0.00    -0.305 N 
HETATM    4  C18 UNL     1      -1.849  26.066  30.813  1.00  0.00     0.253 A 
HETATM    5  N12 UNL     1      -1.857  25.065  31.764  1.00  0.00    -0.317 N 
ATOM      6  H12 UNL     1      -1.091  24.865  32.407  1.00  0.00     0.169 HD
ENDROOT
BRANCH   3   7
HETATM    7  C7  UNL     1      -3.628  26.718  29.124  1.00  0.00     0.218 C 
BRANCH   7   8
HETATM    8  C8  UNL     1      -3.753  25.677  28.003  1.00  0.00     0.173 C 
HETATM    9  O2  UNL     1      -2.763  25.088  27.653  1.00  0.00    -0.294 OA
BRANCH   8  10
HETATM   10  C9  UNL     1      -5.048  25.413  27.376  1.00  0.00     0.227 C 
BRANCH  10  11
HETATM   11  N7  UNL     1      -5.267  26.228  26.202  1.00  0.00    -0.183 N 
HETATM   12  C10 UNL     1      -4.793  26.091  24.948  1.00  0.00     0.158 A 
HETATM   13  C11 UNL     1      -5.296  27.095  24.129  1.00  0.00     0.135 A 
HETATM   14  N9  UNL     1      -6.076  27.835  24.911  1.00  0.00    -0.175 N 
HETATM   15  C16 UNL     1      -6.073  27.339  26.138  1.00  0.00     0.679 A 
ATOM     16  H9  UNL     1      -6.596  28.659  24.611  1.00  0.00     0.186 HD
HETATM   17  N10 UNL     1      -6.701  27.778  27.179  1.00  0.00    -0.234 N 
ATOM     18 2H10 UNL     1      -6.699  27.396  28.125  1.00  0.00     0.174 HD
ATOM     19 1H10 UNL     1      -7.299  28.603  27.131  1.00  0.00     0.174 HD
BRANCH  13  20
HETATM   20  N8  UNL     1      -5.008  27.235  22.756  1.00  0.00    -0.366 N 
HETATM   21  C12 UNL     1      -4.084  26.409  22.003  1.00  0.00     0.124 C 
HETATM   22  C13 UNL     1      -4.877  26.134  20.752  1.00  0.00     0.021 C 
HETATM   23  C14 UNL     1      -5.833  27.311  20.597  1.00  0.00     0.021 C 
HETATM   24  C15 UNL     1      -5.525  28.194  21.802  1.00  0.00     0.124 C 
ENDBRANCH  13  20
ENDBRANCH  10  11
ENDBRANCH   8  10
ENDBRANCH   7   8
BRANCH   7  25
HETATM   25  C17 UNL     1      -3.092  27.955  28.555  1.00  0.00     0.284 C 
BRANCH  25  26
HETATM   26  O3  UNL     1      -2.278  27.585  27.390  1.00  0.00    -0.369 OA
ATOM     27  H3  UNL     1      -1.449  28.042  27.466  1.00  0.00     0.212 HD
ENDBRANCH  25  26
BRANCH  25  28
HETATM   28  O4  UNL     1      -4.008  28.842  28.016  1.00  0.00    -0.369 OA
ATOM     29  H4  UNL     1      -3.716  29.363  27.278  1.00  0.00     0.212 HD
ENDBRANCH  25  28
ENDBRANCH   7  25
ENDBRANCH   3   7
BRANCH   4  30
HETATM   30  N11 UNL     1      -0.704  26.905  30.662  1.00  0.00    -0.079 N 
HETATM   31  O5  UNL     1      -0.214  27.681  31.426  1.00  0.00    -0.529 OA
HETATM   32  O6  UNL     1      -0.047  26.829  29.418  1.00  0.00    -0.529 OA
ENDBRANCH   4  30
BRANCH   1  33
HETATM   33  C4  UNL     1      -3.373  23.226  32.574  1.00  0.00     0.287 C 
HETATM   34  N5  UNL     1      -2.517  22.825  33.604  1.00  0.00    -0.153 N 
ATOM     35  H5  UNL     1      -1.530  22.995  33.412  1.00  0.00     0.187 HD
HETATM   36  O1  UNL     1      -4.449  22.649  32.311  1.00  0.00    -0.265 OA
BRANCH  34  37
HETATM   37  C3  UNL     1      -2.736  22.296  34.722  1.00  0.00     0.714 A 
HETATM   38  N4  UNL     1      -2.927  20.990  34.959  1.00  0.00    -0.021 N 
HETATM   39  C2  UNL     1      -3.147  20.488  36.193  1.00  0.00     0.705 A 
ATOM     40  H4  UNL     1      -2.903  20.345  34.170  1.00  0.00     0.203 HD
HETATM   41  N2  UNL     1      -3.187  21.304  37.266  1.00  0.00    -0.022 N 
HETATM   42  C1  UNL     1      -2.997  22.620  37.035  1.00  0.00     0.705 A 
ATOM     43  H2  UNL     1      -3.352  20.945  38.206  1.00  0.00     0.203 HD
HETATM   44  N13 UNL     1      -2.778  23.111  35.808  1.00  0.00    -0.021 N 
ATOM     45  H13 UNL     1      -2.640  24.114  35.688  1.00  0.00     0.203 HD
BRANCH  39  46
HETATM   46  N3  UNL     1      -3.327  19.200  36.387  1.00  0.00    -0.234 N 
ATOM     47  H32 UNL     1      -2.664  18.647  36.929  1.00  0.00     0.174 HD
ATOM     48  H31 UNL     1      -4.154  18.763  35.980  1.00  0.00     0.174 HD
ENDBRANCH  39  46
BRANCH  42  49
HETATM   49  N1  UNL     1      -3.018  23.414  38.076  1.00  0.00    -0.234 N 
ATOM     50  H12 UNL     1      -2.212  23.474  38.699  1.00  0.00     0.174 HD
ATOM     51  H11 UNL     1      -3.873  23.948  38.232  1.00  0.00     0.174 HD
ENDBRANCH  42  49
ENDBRANCH  34  37
ENDBRANCH   1  33
TORSDOF 13
ENDMDL
MODEL 2
REMARK VINA RESULT: -10.421971933      0.386      1.423
REMARK  13 active torsions:
REMARK  status: ('A' for Active; 'I' for Inactive)
REMARK    1  A    between atoms: N1_1  and  C1_4 
REMARK    2  A    between atoms: C2_7  and  N3_8 
REMARK    3  A    between atoms: C3_13  and  N5_14 
REMARK       I    between atoms: N5_14  and  C4_16 
REMARK    4  A    between atoms: C4_16  and  C5_18 
REMARK    5  A    between atoms: N6_20  and  C7_21 
REMARK    6  A    between atoms: C7_21  and  C8_22 
REMARK    7  A    between atoms: C7_21  and  C17_39 
REMARK    8  A    between atoms: C8_22  and  C9_24 
REMARK    9  A    between atoms: C9_24  and  N7_25 
REMARK   10  A    between atoms: C11_27  and  N8_28 
REMARK   11  A    between atoms: C17_39  and  O3_40 
REMARK   12  A    between atoms: C17_39  and  O4_42 
REMARK   13  A    between atoms: C18_44  and  N11_45 
ROOT
HETATM    1  C5  UNL     1      -3.068  24.270  31.743  1.00  0.00     0.120 A 
HETATM    2  C6  UNL     1      -3.775  24.854  30.751  1.00  0.00     0.130 A 
HETATM    3  N6  UNL     1      -3.049  25.927  30.256  1.00  0.00    -0.305 N 
HETATM    4  C18 UNL     1      -1.921  25.987  30.943  1.00  0.00     0.253 A 
HETATM    5  N12 UNL     1      -1.951  24.954  31.861  1.00  0.00    -0.317 N 
ATOM      6  H12 UNL     1      -1.212  24.752  32.533  1.00  0.00     0.169 HD
ENDROOT
BRANCH   3   7
HETATM    7  C7  UNL     1      -3.632  26.654  29.191  1.00  0.00     0.218 C 
BRANCH   7   8
HETATM    8  C8  UNL     1      -3.752  25.625  28.057  1.00  0.00     0.173 C 
HETATM    9  O2  UNL     1      -2.762  25.037  27.708  1.00  0.00    -0.294 OA
BRANCH   8  10
HETATM   10  C9  UNL     1      -5.044  25.372  27.419  1.00  0.00     0.227 C 
BRANCH  10  11
HETATM   11  N7  UNL     1      -5.250  26.198  26.250  1.00  0.00    -0.183 N 
HETATM   12  C10 UNL     1      -4.783  26.058  24.994  1.00  0.00     0.158 A 
HETATM   13  C11 UNL     1      -5.268  27.076  24.181  1.00  0.00     0.135 A 
HETATM   14  N9  UNL     1      -6.029  27.828  24.970  1.00  0.00    -0.175 N 
HETATM   15  C16 UNL     1      -6.033  27.326  26.194  1.00  0.00     0.679 A 
ATOM     16  H9  UNL     1      -6.534  28.664  24.676  1.00  0.00     0.186 HD
HETATM   17  N10 UNL     1      -6.648  27.772  27.240  1.00  0.00    -0.234 N 
ATOM     18 2H10 UNL     1      -6.650  27.386  28.184  1.00  0.00     0.174 HD
ATOM     19 1H10 UNL     1      -7.229  28.610  27.199  1.00  0.00     0.174 HD
BRANCH  13  20
HETATM   20  N8  UNL     1      -4.982  27.217  22.808  1.00  0.00    -0.366 N 
HETATM   21  C12 UNL     1      -4.086  26.369  22.045  1.00  0.00     0.124 C 
HETATM   22  C13 UNL     1      -4.892  26.126  20.796  1.00  0.00     0.021 C 
HETATM   23  C14 UNL     1      -5.814  27.332  20.653  1.00  0.00     0.021 C 
HETATM   24  C15 UNL     1      -5.475  28.197  21.863  1.00  0.00     0.124 C 
ENDBRANCH  13  20
ENDBRANCH  10  11
ENDBRANCH   8  10
ENDBRANCH   7   8
BRANCH   7  25
HETATM   25  C17 UNL     1      -3.062  27.885  28.644  1.00  0.00     0.284 C 
BRANCH  25  26
HETATM   26  O3  UNL     1      -2.196  27.507  27.521  1.00  0.00    -0.369 OA
ATOM     27  H3  UNL     1      -1.454  28.100  27.521  1.00  0.00     0.212 HD
ENDBRANCH  25  26
BRANCH  25  28
HETATM   28  O4  UNL     1      -3.947  28.777  28.060  1.00  0.00    -0.369 OA
ATOM     29  H4  UNL     1      -3.739  29.700  28.141  1.00  0.00     0.212 HD
ENDBRANCH  25  28
ENDBRANCH   7  25
ENDBRANCH   3   7
BRANCH   4  30
HETATM   30  N11 UNL     1      -0.792  26.857  30.876  1.00  0.00    -0.079 N 
HETATM   31  O5  UNL     1      -0.123  27.177  29.939  1.00  0.00    -0.529 OA
HETATM   32  O6  UNL     1      -0.380  27.424  32.097  1.00  0.00    -0.529 OA
ENDBRANCH   4  30
BRANCH   1  33
HETATM   33  C4  UNL     1      -3.458  23.055  32.535  1.00  0.00     0.287 C 
HETATM   34  N5  UNL     1      -2.678  22.676  33.631  1.00  0.00    -0.153 N 
ATOM     35  H5  UNL     1      -1.688  22.901  33.532  1.00  0.00     0.187 HD
HETATM   36  O1  UNL     1      -4.474  22.430  32.166  1.00  0.00    -0.265 OA
BRANCH  34  37
HETATM   37  C3  UNL     1      -2.968  22.113  34.715  1.00  0.00     0.714 A 
HETATM   38  N4  UNL     1      -3.311  22.720  35.861  1.00  0.00    -0.021 N 
HETATM   39  C2  UNL     1      -3.621  22.047  36.989  1.00  0.00     0.705 A 
ATOM     40  H4  UNL     1      -3.338  23.740  35.880  1.00  0.00     0.203 HD
HETATM   41  N2  UNL     1      -3.597  20.699  37.010  1.00  0.00    -0.022 N 
HETATM   42  C1  UNL     1      -3.253  20.081  35.861  1.00  0.00     0.705 A 
ATOM     43  H2  UNL     1      -3.829  20.173  37.852  1.00  0.00     0.203 HD
HETATM   44  N13 UNL     1      -2.946  20.754  34.745  1.00  0.00    -0.021 N 
ATOM     45  H13 UNL     1      -2.693  20.238  33.903  1.00  0.00     0.203 HD
BRANCH  39  46
HETATM   46  N3  UNL     1      -3.955  22.678  38.093  1.00  0.00    -0.234 N 
ATOM     47  H32 UNL     1      -4.878  23.096  38.208  1.00  0.00     0.174 HD
ATOM     48  H31 UNL     1      -3.263  22.740  38.840  1.00  0.00     0.174 HD
ENDBRANCH  39  46
BRANCH  42  49
HETATM   49  N1  UNL     1      -3.244  18.771  35.872  1.00  0.00    -0.234 N 
ATOM     50  H12 UNL     1      -3.818  18.255  36.539  1.00  0.00     0.174 HD
ATOM     51  H11 UNL     1      -2.634  18.307  35.199  1.00  0.00     0.174 HD
ENDBRANCH  42  49
ENDBRANCH  34  37
ENDBRANCH   1  33
TORSDOF 13
ENDMDL
MODEL 3
REMARK VINA RESULT: -9.300576625      1.690      2.282
REMARK  13 active torsions:
REMARK  status: ('A' for Active; 'I' for Inactive)
REMARK    1  A    between atoms: N1_1  and  C1_4 
REMARK    2  A    between atoms: C2_7  and  N3_8 
REMARK    3  A    between atoms: C3_13  and  N5_14 
REMARK       I    between atoms: N5_14  and  C4_16 
REMARK    4  A    between atoms: C4_16  and  C5_18 
REMARK    5  A    between atoms: N6_20  and  C7_21 
REMARK    6  A    between atoms: C7_21  and  C8_22 
REMARK    7  A    between atoms: C7_21  and  C17_39 
REMARK    8  A    between atoms: C8_22  and  C9_24 
REMARK    9  A    between atoms: C9_24  and  N7_25 
REMARK   10  A    between atoms: C11_27  and  N8_28 
REMARK   11  A    between atoms: C17_39  and  O3_40 
REMARK   12  A    between atoms: C17_39  and  O4_42 
REMARK   13  A    between atoms: C18_44  and  N11_45 
ROOT
HETATM    1  C5  UNL     1      -3.414  24.701  31.202  1.00  0.00     0.120 A 
HETATM    2  C6  UNL     1      -4.086  25.456  30.306  1.00  0.00     0.130 A 
HETATM    3  N6  UNL     1      -3.199  26.345  29.716  1.00  0.00    -0.305 N 
HETATM    4  C18 UNL     1      -2.010  26.126  30.252  1.00  0.00     0.253 A 
HETATM    5  N12 UNL     1      -2.163  25.106  31.172  1.00  0.00    -0.317 N 
ATOM      6  H12 UNL     1      -1.412  24.722  31.745  1.00  0.00     0.169 HD
ENDROOT
BRANCH   3   7
HETATM    7  C7  UNL     1      -3.727  27.212  28.730  1.00  0.00     0.218 C 
BRANCH   7   8
HETATM    8  C8  UNL     1      -4.160  26.270  27.597  1.00  0.00     0.173 C 
HETATM    9  O2  UNL     1      -3.360  25.480  27.169  1.00  0.00    -0.294 OA
BRANCH   8  10
HETATM   10  C9  UNL     1      -5.516  26.340  27.052  1.00  0.00     0.227 C 
BRANCH  10  11
HETATM   11  N7  UNL     1      -5.595  27.186  25.882  1.00  0.00    -0.183 N 
HETATM   12  C10 UNL     1      -6.016  28.461  25.759  1.00  0.00     0.158 A 
HETATM   13  C11 UNL     1      -5.885  28.887  24.442  1.00  0.00     0.135 A 
HETATM   14  N9  UNL     1      -5.382  27.849  23.781  1.00  0.00    -0.175 N 
HETATM   15  C16 UNL     1      -5.203  26.837  24.612  1.00  0.00     0.679 A 
ATOM     16  H9  UNL     1      -5.167  27.837  22.784  1.00  0.00     0.186 HD
HETATM   17  N10 UNL     1      -4.741  25.658  24.350  1.00  0.00    -0.234 N 
ATOM     18 2H10 UNL     1      -4.603  24.876  24.991  1.00  0.00     0.174 HD
ATOM     19 1H10 UNL     1      -4.449  25.398  23.407  1.00  0.00     0.174 HD
BRANCH  13  20
HETATM   20  N8  UNL     1      -6.222  30.174  23.975  1.00  0.00    -0.366 N 
HETATM   21  C12 UNL     1      -6.553  31.312  24.811  1.00  0.00     0.124 C 
HETATM   22  C13 UNL     1      -5.758  32.409  24.154  1.00  0.00     0.021 C 
HETATM   23  C14 UNL     1      -5.605  31.998  22.694  1.00  0.00     0.021 C 
HETATM   24  C15 UNL     1      -6.329  30.658  22.614  1.00  0.00     0.124 C 
ENDBRANCH  13  20
ENDBRANCH  10  11
ENDBRANCH   8  10
ENDBRANCH   7   8
BRANCH   7  25
HETATM   25  C17 UNL     1      -2.979  28.327  28.150  1.00  0.00     0.284 C 
BRANCH  25  26
HETATM   26  O3  UNL     1      -2.509  27.899  26.827  1.00  0.00    -0.369 OA
ATOM     27  H3  UNL     1      -1.924  28.573  26.501  1.00  0.00     0.212 HD
ENDBRANCH  25  26
BRANCH  25  28
HETATM   28  O4  UNL     1      -3.697  29.476  27.861  1.00  0.00    -0.369 OA
ATOM     29  H4  UNL     1      -4.306  29.777  28.524  1.00  0.00     0.212 HD
ENDBRANCH  25  28
ENDBRANCH   7  25
ENDBRANCH   3   7
BRANCH   4  30
HETATM   30  N11 UNL     1      -0.728  26.713  30.036  1.00  0.00    -0.079 N 
HETATM   31  O5  UNL     1      -0.121  27.500  30.698  1.00  0.00    -0.529 OA
HETATM   32  O6  UNL     1      -0.067  26.325  28.854  1.00  0.00    -0.529 OA
ENDBRANCH   4  30
BRANCH   1  33
HETATM   33  C4  UNL     1      -3.972  23.590  32.045  1.00  0.00     0.287 C 
HETATM   34  N5  UNL     1      -3.096  22.671  32.630  1.00  0.00    -0.153 N 
ATOM     35  H5  UNL     1      -2.253  22.496  32.081  1.00  0.00     0.187 HD
HETATM   36  O1  UNL     1      -5.212  23.538  32.179  1.00  0.00    -0.265 OA
BRANCH  34  37
HETATM   37  C3  UNL     1      -3.151  22.022  33.702  1.00  0.00     0.714 A 
HETATM   38  N4  UNL     1      -3.042  20.691  33.833  1.00  0.00    -0.021 N 
HETATM   39  C2  UNL     1      -3.101  20.059  35.024  1.00  0.00     0.705 A 
ATOM     40  H4  UNL     1      -2.909  20.130  32.991  1.00  0.00     0.203 HD
HETATM   41  N2  UNL     1      -3.276  20.760  36.163  1.00  0.00    -0.022 N 
HETATM   42  C1  UNL     1      -3.387  22.099  36.039  1.00  0.00     0.705 A 
ATOM     43  H2  UNL     1      -3.322  20.302  37.072  1.00  0.00     0.203 HD
HETATM   44  N13 UNL     1      -3.328  22.721  34.855  1.00  0.00    -0.021 N 
ATOM     45  H13 UNL     1      -3.417  23.735  34.816  1.00  0.00     0.203 HD
BRANCH  39  46
HETATM   46  N3  UNL     1      -2.987  18.752  35.113  1.00  0.00    -0.234 N 
ATOM     47  H32 UNL     1      -3.645  18.129  34.645  1.00  0.00     0.174 HD
ATOM     48  H31 UNL     1      -2.217  18.372  35.663  1.00  0.00     0.174 HD
ENDBRANCH  39  46
BRANCH  42  49
HETATM   49  N1  UNL     1      -3.541  22.786  37.144  1.00  0.00    -0.234 N 
ATOM     50  H12 UNL     1      -2.780  23.358  37.509  1.00  0.00     0.174 HD
ATOM     51  H11 UNL     1      -4.442  22.706  37.616  1.00  0.00     0.174 HD
ENDBRANCH  42  49
ENDBRANCH  34  37
ENDBRANCH   1  33
TORSDOF 13
ENDMDL
MODEL 4
REMARK VINA RESULT: -9.066730905      1.562      2.448
REMARK  13 active torsions:
REMARK  status: ('A' for Active; 'I' for Inactive)
REMARK    1  A    between atoms: N1_1  and  C1_4 
REMARK    2  A    between atoms: C2_7  and  N3_8 
REMARK    3  A    between atoms: C3_13  and  N5_14 
REMARK       I    between atoms: N5_14  and  C4_16 
REMARK    4  A    between atoms: C4_16  and  C5_18 
REMARK    5  A    between atoms: N6_20  and  C7_21 
REMARK    6  A    between atoms: C7_21  and  C8_22 
REMARK    7  A    between atoms: C7_21  and  C17_39 
REMARK    8  A    between atoms: C8_22  and  C9_24 
REMARK    9  A    between atoms: C9_24  and  N7_25 
REMARK   10  A    between atoms: C11_27  and  N8_28 
REMARK   11  A    between atoms: C17_39  and  O3_40 
REMARK   12  A    between atoms: C17_39  and  O4_42 
REMARK   13  A    between atoms: C18_44  and  N11_45 
ROOT
HETATM    1  C5  UNL     1      -3.312  24.743  31.255  1.00  0.00     0.120 A 
HETATM    2  C6  UNL     1      -4.027  25.408  30.323  1.00  0.00     0.130 A 
HETATM    3  N6  UNL     1      -3.209  26.352  29.721  1.00  0.00    -0.305 N 
HETATM    4  C18 UNL     1      -2.017  26.255  30.286  1.00  0.00     0.253 A 
HETATM    5  N12 UNL     1      -2.100  25.254  31.235  1.00  0.00    -0.317 N 
ATOM      6  H12 UNL     1      -1.332  24.956  31.835  1.00  0.00     0.169 HD
ENDROOT
BRANCH   3   7
HETATM    7  C7  UNL     1      -3.789  27.139  28.697  1.00  0.00     0.218 C 
BRANCH   7   8
HETATM    8  C8  UNL     1      -4.001  26.151  27.541  1.00  0.00     0.173 C 
HETATM    9  O2  UNL     1      -3.067  25.485  27.176  1.00  0.00    -0.294 OA
BRANCH   8  10
HETATM   10  C9  UNL     1      -5.310  26.030  26.899  1.00  0.00     0.227 C 
BRANCH  10  11
HETATM   11  N7  UNL     1      -5.466  26.945  25.791  1.00  0.00    -0.183 N 
HETATM   12  C10 UNL     1      -6.191  28.077  25.694  1.00  0.00     0.158 A 
HETATM   13  C11 UNL     1      -6.016  28.658  24.444  1.00  0.00     0.135 A 
HETATM   14  N9  UNL     1      -5.177  27.857  23.794  1.00  0.00    -0.175 N 
HETATM   15  C16 UNL     1      -4.839  26.842  24.571  1.00  0.00     0.679 A 
ATOM     16  H9  UNL     1      -4.844  28.004  22.841  1.00  0.00     0.186 HD
HETATM   17  N10 UNL     1      -4.051  25.854  24.301  1.00  0.00    -0.234 N 
ATOM     18 2H10 UNL     1      -3.791  25.071  24.900  1.00  0.00     0.174 HD
ATOM     19 1H10 UNL     1      -3.586  25.777  23.396  1.00  0.00     0.174 HD
BRANCH  13  20
HETATM   20  N8  UNL     1      -6.623  29.858  24.021  1.00  0.00    -0.366 N 
HETATM   21  C12 UNL     1      -6.073  30.781  23.047  1.00  0.00     0.124 C 
HETATM   22  C13 UNL     1      -7.281  31.079  22.199  1.00  0.00     0.021 C 
HETATM   23  C14 UNL     1      -8.488  30.873  23.105  1.00  0.00     0.021 C 
HETATM   24  C15 UNL     1      -7.878  30.449  24.437  1.00  0.00     0.124 C 
ENDBRANCH  13  20
ENDBRANCH  10  11
ENDBRANCH   8  10
ENDBRANCH   7   8
BRANCH   7  25
HETATM   25  C17 UNL     1      -3.175  28.355  28.166  1.00  0.00     0.284 C 
BRANCH  25  26
HETATM   26  O3  UNL     1      -2.461  27.986  26.937  1.00  0.00    -0.369 OA
ATOM     27  H3  UNL     1      -2.501  28.731  26.350  1.00  0.00     0.212 HD
ENDBRANCH  25  26
BRANCH  25  28
HETATM   28  O4  UNL     1      -4.035  29.350  27.730  1.00  0.00    -0.369 OA
ATOM     29  H4  UNL     1      -3.637  30.116  27.336  1.00  0.00     0.212 HD
ENDBRANCH  25  28
ENDBRANCH   7  25
ENDBRANCH   3   7
BRANCH   4  30
HETATM   30  N11 UNL     1      -0.786  26.945  30.074  1.00  0.00    -0.079 N 
HETATM   31  O5  UNL     1      -0.167  27.655  30.808  1.00  0.00    -0.529 OA
HETATM   32  O6  UNL     1      -0.205  26.787  28.801  1.00  0.00    -0.529 OA
ENDBRANCH   4  30
BRANCH   1  33
HETATM   33  C4  UNL     1      -3.789  23.613  32.123  1.00  0.00     0.287 C 
HETATM   34  N5  UNL     1      -2.852  22.849  32.824  1.00  0.00    -0.153 N 
ATOM     35  H5  UNL     1      -1.954  22.757  32.349  1.00  0.00     0.187 HD
HETATM   36  O1  UNL     1      -5.020  23.407  32.172  1.00  0.00    -0.265 OA
BRANCH  34  37
HETATM   37  C3  UNL     1      -2.908  22.254  33.928  1.00  0.00     0.714 A 
HETATM   38  N4  UNL     1      -2.426  22.701  35.098  1.00  0.00    -0.021 N 
HETATM   39  C2  UNL     1      -2.532  22.011  36.253  1.00  0.00     0.705 A 
ATOM     40  H4  UNL     1      -1.957  23.607  35.114  1.00  0.00     0.203 HD
HETATM   41  N2  UNL     1      -3.144  20.809  36.277  1.00  0.00    -0.022 N 
HETATM   42  C1  UNL     1      -3.632  20.353  35.105  1.00  0.00     0.705 A 
ATOM     43  H2  UNL     1      -3.235  20.272  37.139  1.00  0.00     0.203 HD
HETATM   44  N13 UNL     1      -3.524  21.043  33.962  1.00  0.00    -0.021 N 
ATOM     45  H13 UNL     1      -3.910  20.653  33.103  1.00  0.00     0.203 HD
BRANCH  39  46
HETATM   46  N3  UNL     1      -2.048  22.483  37.380  1.00  0.00    -0.234 N 
ATOM     47  H32 UNL     1      -1.119  22.900  37.426  1.00  0.00     0.174 HD
ATOM     48  H31 UNL     1      -2.631  22.424  38.216  1.00  0.00     0.174 HD
ENDBRANCH  39  46
BRANCH  42  49
HETATM   49  N1  UNL     1      -4.242  19.194  35.127  1.00  0.00    -0.234 N 
ATOM     50  H12 UNL     1      -3.764  18.363  35.477  1.00  0.00     0.174 HD
ATOM     51  H11 UNL     1      -5.197  19.168  34.771  1.00  0.00     0.174 HD
ENDBRANCH  42  49
ENDBRANCH  34  37
ENDBRANCH   1  33
TORSDOF 13
ENDMDL
MODEL 5
REMARK VINA RESULT: -8.991885354      1.876      2.730
REMARK  13 active torsions:
REMARK  status: ('A' for Active; 'I' for Inactive)
REMARK    1  A    between atoms: N1_1  and  C1_4 
REMARK    2  A    between atoms: C2_7  and  N3_8 
REMARK    3  A    between atoms: C3_13  and  N5_14 
REMARK       I    between atoms: N5_14  and  C4_16 
REMARK    4  A    between atoms: C4_16  and  C5_18 
REMARK    5  A    between atoms: N6_20  and  C7_21 
REMARK    6  A    between atoms: C7_21  and  C8_22 
REMARK    7  A    between atoms: C7_21  and  C17_39 
REMARK    8  A    between atoms: C8_22  and  C9_24 
REMARK    9  A    between atoms: C9_24  and  N7_25 
REMARK   10  A    between atoms: C11_27  and  N8_28 
REMARK   11  A    between atoms: C17_39  and  O3_40 
REMARK   12  A    between atoms: C17_39  and  O4_42 
REMARK   13  A    between atoms: C18_44  and  N11_45 
ROOT
HETATM    1  C5  UNL     1      -3.641  24.308  30.768  1.00  0.00     0.120 A 
HETATM    2  C6  UNL     1      -4.300  24.661  29.643  1.00  0.00     0.130 A 
HETATM    3  N6  UNL     1      -3.425  25.332  28.803  1.00  0.00    -0.305 N 
HETATM    4  C18 UNL     1      -2.254  25.382  29.416  1.00  0.00     0.253 A 
HETATM    5  N12 UNL     1      -2.407  24.745  30.633  1.00  0.00    -0.317 N 
ATOM      6  H12 UNL     1      -1.669  24.629  31.327  1.00  0.00     0.169 HD
ENDROOT
BRANCH   3   7
HETATM    7  C7  UNL     1      -3.941  25.766  27.559  1.00  0.00     0.218 C 
BRANCH   7   8
HETATM    8  C8  UNL     1      -4.013  27.294  27.696  1.00  0.00     0.173 C 
HETATM    9  O2  UNL     1      -4.450  27.759  28.717  1.00  0.00    -0.294 OA
BRANCH   8  10
HETATM   10  C9  UNL     1      -3.563  28.159  26.606  1.00  0.00     0.227 C 
BRANCH  10  11
HETATM   11  N7  UNL     1      -4.666  28.725  25.862  1.00  0.00    -0.183 N 
HETATM   12  C10 UNL     1      -5.231  28.323  24.706  1.00  0.00     0.158 A 
HETATM   13  C11 UNL     1      -6.295  29.153  24.375  1.00  0.00     0.135 A 
HETATM   14  N9  UNL     1      -6.358  30.057  25.348  1.00  0.00    -0.175 N 
HETATM   15  C16 UNL     1      -5.406  29.821  26.235  1.00  0.00     0.679 A 
ATOM     16  H9  UNL     1      -7.036  30.817  25.401  1.00  0.00     0.186 HD
HETATM   17  N10 UNL     1      -5.138  30.479  27.316  1.00  0.00    -0.234 N 
ATOM     18 2H10 UNL     1      -4.404  30.297  28.000  1.00  0.00     0.174 HD
ATOM     19 1H10 UNL     1      -5.687  31.293  27.593  1.00  0.00     0.174 HD
BRANCH  13  20
HETATM   20  N8  UNL     1      -7.109  29.003  23.233  1.00  0.00    -0.366 N 
HETATM   21  C12 UNL     1      -6.634  28.936  21.865  1.00  0.00     0.124 C 
HETATM   22  C13 UNL     1      -7.442  27.788  21.322  1.00  0.00     0.021 C 
HETATM   23  C14 UNL     1      -8.721  27.749  22.150  1.00  0.00     0.021 C 
HETATM   24  C15 UNL     1      -8.550  28.895  23.141  1.00  0.00     0.124 C 
ENDBRANCH  13  20
ENDBRANCH  10  11
ENDBRANCH   8  10
ENDBRANCH   7   8
BRANCH   7  25
HETATM   25  C17 UNL     1      -5.204  25.288  26.997  1.00  0.00     0.284 C 
BRANCH  25  26
HETATM   26  O3  UNL     1      -6.251  26.233  27.403  1.00  0.00    -0.369 OA
ATOM     27  H3  UNL     1      -6.371  26.139  28.340  1.00  0.00     0.212 HD
ENDBRANCH  25  26
BRANCH  25  28
HETATM   28  O4  UNL     1      -5.312  25.289  25.616  1.00  0.00    -0.369 OA
ATOM     29  H4  UNL     1      -6.073  24.858  25.246  1.00  0.00     0.212 HD
ENDBRANCH  25  28
ENDBRANCH   7  25
ENDBRANCH   3   7
BRANCH   4  30
HETATM   30  N11 UNL     1      -0.989  25.926  29.043  1.00  0.00    -0.079 N 
HETATM   31  O5  UNL     1      -0.727  26.938  28.466  1.00  0.00    -0.529 OA
HETATM   32  O6  UNL     1       0.137  25.154  29.391  1.00  0.00    -0.529 OA
ENDBRANCH   4  30
BRANCH   1  33
HETATM   33  C4  UNL     1      -4.191  23.535  31.933  1.00  0.00     0.287 C 
HETATM   34  N5  UNL     1      -3.433  22.497  32.482  1.00  0.00    -0.153 N 
ATOM     35  H5  UNL     1      -2.845  22.011  31.805  1.00  0.00     0.187 HD
HETATM   36  O1  UNL     1      -5.320  23.861  32.357  1.00  0.00    -0.265 OA
BRANCH  34  37
HETATM   37  C3  UNL     1      -3.341  22.051  33.652  1.00  0.00     0.714 A 
HETATM   38  N4  UNL     1      -3.373  22.772  34.783  1.00  0.00    -0.021 N 
HETATM   39  C2  UNL     1      -3.278  22.222  36.012  1.00  0.00     0.705 A 
ATOM     40  H4  UNL     1      -3.473  23.784  34.710  1.00  0.00     0.203 HD
HETATM   41  N2  UNL     1      -3.144  20.888  36.155  1.00  0.00    -0.022 N 
HETATM   42  C1  UNL     1      -3.111  20.156  35.022  1.00  0.00     0.705 A 
ATOM     43  H2  UNL     1      -3.072  20.453  37.075  1.00  0.00     0.203 HD
HETATM   44  N13 UNL     1      -3.205  20.708  33.806  1.00  0.00    -0.021 N 
ATOM     45  H13 UNL     1      -3.175  20.109  32.981  1.00  0.00     0.203 HD
BRANCH  39  46
HETATM   46  N3  UNL     1      -3.316  22.961  37.098  1.00  0.00    -0.234 N 
ATOM     47  H32 UNL     1      -3.367  22.541  38.026  1.00  0.00     0.174 HD
ATOM     48  H31 UNL     1      -3.291  23.975  36.991  1.00  0.00     0.174 HD
ENDBRANCH  39  46
BRANCH  42  49
HETATM   49  N1  UNL     1      -2.997  18.858  35.158  1.00  0.00    -0.234 N 
ATOM     50  H12 UNL     1      -3.798  18.294  35.442  1.00  0.00     0.174 HD
ATOM     51  H11 UNL     1      -2.077  18.454  34.979  1.00  0.00     0.174 HD
ENDBRANCH  42  49
ENDBRANCH  34  37
ENDBRANCH   1  33
TORSDOF 13
ENDMDL
