MODEL 1
REMARK VINA RESULT: -9.717440490      0.000      0.000
REMARK  14 active torsions:
REMARK  status: ('A' for Active; 'I' for Inactive)
REMARK    1  A    between atoms: C2_3  and  C3_4 
REMARK    2  A    between atoms: C4_7  and  N3_8 
REMARK    3  A    between atoms: N3_8  and  C5_10 
REMARK    4  A    between atoms: C5_10  and  C6_11 
REMARK    5  A    between atoms: C6_11  and  N4_12 
REMARK    6  A    between atoms: N4_12  and  C7_14 
REMARK    7  A    between atoms: C10_22  and  N8_23 
REMARK    8  A    between atoms: N8_23  and  O1_24 
REMARK    9  A    between atoms: N8_23  and  O2_26 
REMARK   10  A    between atoms: C11_30  and  N10_31 
REMARK   11  A    between atoms: N10_31  and  C12_33 
REMARK   12  A    between atoms: C12_33  and  C13_34 
REMARK   13  A    between atoms: C15_38  and  N12_39 
REMARK   14  A    between atoms: C16_44  and  N14_45 
ROOT
HETATM    1  C3  UNL     1      -5.323  28.213  26.790  1.00  0.00     0.164 A 
HETATM    2  N2  UNL     1      -5.563  27.123  27.600  1.00  0.00    -0.173 N 
ATOM      3  H2  UNL     1      -6.139  27.271  28.429  1.00  0.00     0.186 HD
HETATM    4  C4  UNL     1      -5.109  25.916  27.387  1.00  0.00     0.694 A 
HETATM    5  N9  UNL     1      -4.357  25.711  26.288  1.00  0.00    -0.022 N 
ATOM      6  H9  UNL     1      -3.998  24.775  26.099  1.00  0.00     0.203 HD
HETATM    7  C11 UNL     1      -4.068  26.704  25.441  1.00  0.00     0.694 A 
HETATM    8  N15 UNL     1      -4.565  27.940  25.725  1.00  0.00    -0.173 N 
ATOM      9  H15 UNL     1      -4.346  28.704  25.085  1.00  0.00     0.186 HD
ENDROOT
BRANCH   4  10
HETATM   10  N3  UNL     1      -5.359  24.947  28.253  1.00  0.00    -0.221 N 
ATOM     11  H3  UNL     1      -6.309  24.597  28.382  1.00  0.00     0.178 HD
BRANCH  10  12
HETATM   12  C5  UNL     1      -4.266  24.394  29.010  1.00  0.00     0.182 C 
BRANCH  12  13
HETATM   13  C6  UNL     1      -3.851  25.090  30.245  1.00  0.00     0.082 C 
BRANCH  13  14
HETATM   14  N4  UNL     1      -3.156  26.292  30.253  1.00  0.00    -0.353 N 
ATOM     15  H4  UNL     1      -3.658  27.110  29.907  1.00  0.00     0.166 HD
BRANCH  14  16
HETATM   16  C7  UNL     1      -1.970  26.482  30.640  1.00  0.00     0.135 A 
HETATM   17  N5  UNL     1      -1.536  26.756  31.883  1.00  0.00    -0.337 N 
HETATM   18  C8  UNL     1      -0.256  27.047  32.157  1.00  0.00     0.183 A 
ATOM     19  H5  UNL     1      -2.209  26.743  32.650  1.00  0.00     0.168 HD
HETATM   20  N6  UNL     1       0.680  27.078  31.200  1.00  0.00    -0.339 N 
HETATM   21  C9  UNL     1       0.325  26.814  29.932  1.00  0.00     0.147 A 
ATOM     22  H6  UNL     1       1.648  27.298  31.431  1.00  0.00     0.167 HD
HETATM   23  N7  UNL     1       1.288  26.860  28.868  1.00  0.00    -0.080 NA
HETATM   24  C10 UNL     1      -0.970  26.520  29.642  1.00  0.00     0.150 A 
BRANCH  24  25
HETATM   25  N8  UNL     1      -1.307  26.287  28.292  1.00  0.00    -0.029 NA
BRANCH  25  26
HETATM   26  O1  UNL     1      -2.159  27.244  27.825  1.00  0.00    -0.284 OA
ATOM     27  H1  UNL     1      -2.100  27.324  26.880  1.00  0.00     0.240 HD
ENDBRANCH  25  26
BRANCH  25  28
HETATM   28  O2  UNL     1      -1.718  25.051  28.025  1.00  0.00    -0.284 OA
ATOM     29  H2  UNL     1      -1.600  24.778  27.122  1.00  0.00     0.240 HD
ENDBRANCH  25  28
ENDBRANCH  24  25
ENDBRANCH  14  16
ENDBRANCH  13  14
ENDBRANCH  12  13
ENDBRANCH  10  12
ENDBRANCH   4  10
BRANCH   1  30
HETATM   30  C2  UNL     1      -5.966  29.524  27.090  1.00  0.00     0.089 A 
HETATM   31  N1  UNL     1      -5.407  30.709  27.233  1.00  0.00    -0.309 N 
HETATM   32  C1  UNL     1      -3.938  30.975  27.131  1.00  0.00     0.160 C 
HETATM   33  C18 UNL     1      -6.205  31.765  27.457  1.00  0.00     0.290 A 
HETATM   34  S1  UNL     1      -7.768  31.118  27.466  1.00  0.00    -0.038 SA
HETATM   35  O3  UNL     1      -5.866  32.998  27.626  1.00  0.00    -0.260 OA
HETATM   36  C17 UNL     1      -7.367  29.496  27.185  1.00  0.00     0.088 A 
ENDBRANCH   1  30
BRANCH   7  37
HETATM   37  N10 UNL     1      -3.411  26.506  24.336  1.00  0.00    -0.221 N 
ATOM     38  H10 UNL     1      -2.516  26.968  24.171  1.00  0.00     0.178 HD
BRANCH  37  39
HETATM   39  C12 UNL     1      -3.971  25.625  23.357  1.00  0.00     0.182 C 
BRANCH  39  40
HETATM   40  C13 UNL     1      -4.891  26.214  22.366  1.00  0.00     0.020 A 
HETATM   41  C14 UNL     1      -5.988  26.938  22.787  1.00  0.00     0.118 A 
HETATM   42  N11 UNL     1      -6.714  27.609  21.875  1.00  0.00    -0.201 N 
HETATM   43  C15 UNL     1      -6.392  27.581  20.575  1.00  0.00     0.677 A 
ATOM     44  H11 UNL     1      -7.524  28.149  22.179  1.00  0.00     0.183 HD
HETATM   45  N13 UNL     1      -5.332  26.881  20.165  1.00  0.00    -0.177 N 
HETATM   46  C16 UNL     1      -4.576  26.195  21.034  1.00  0.00     0.124 A 
ATOM     47  H13 UNL     1      -5.093  26.868  19.174  1.00  0.00     0.185 HD
BRANCH  43  48
HETATM   48  N12 UNL     1      -7.122  28.230  19.705  1.00  0.00    -0.234 N 
ATOM     49 2H12 UNL     1      -7.264  29.235  19.809  1.00  0.00     0.174 HD
ATOM     50 1H12 UNL     1      -7.543  27.734  18.919  1.00  0.00     0.174 HD
ENDBRANCH  43  48
BRANCH  46  51
HETATM   51  N14 UNL     1      -3.556  25.473  20.666  1.00  0.00    -0.385 N 
ATOM     52 2H14 UNL     1      -3.615  24.465  20.523  1.00  0.00     0.157 HD
ATOM     53 1H14 UNL     1      -2.662  25.948  20.544  1.00  0.00     0.157 HD
ENDBRANCH  46  51
ENDBRANCH  39  40
ENDBRANCH  37  39
ENDBRANCH   7  37
TORSDOF 14
ENDMDL
MODEL 2
REMARK VINA RESULT: -9.384071718      4.795      6.875
REMARK  14 active torsions:
REMARK  status: ('A' for Active; 'I' for Inactive)
REMARK    1  A    between atoms: C2_3  and  C3_4 
REMARK    2  A    between atoms: C4_7  and  N3_8 
REMARK    3  A    between atoms: N3_8  and  C5_10 
REMARK    4  A    between atoms: C5_10  and  C6_11 
REMARK    5  A    between atoms: C6_11  and  N4_12 
REMARK    6  A    between atoms: N4_12  and  C7_14 
REMARK    7  A    between atoms: C10_22  and  N8_23 
REMARK    8  A    between atoms: N8_23  and  O1_24 
REMARK    9  A    between atoms: N8_23  and  O2_26 
REMARK   10  A    between atoms: C11_30  and  N10_31 
REMARK   11  A    between atoms: N10_31  and  C12_33 
REMARK   12  A    between atoms: C12_33  and  C13_34 
REMARK   13  A    between atoms: C15_38  and  N12_39 
REMARK   14  A    between atoms: C16_44  and  N14_45 
ROOT
HETATM    1  C3  UNL     1      -2.383  25.387  30.582  1.00  0.00     0.164 A 
HETATM    2  N2  UNL     1      -2.844  24.351  31.365  1.00  0.00    -0.173 N 
ATOM      3  H2  UNL     1      -2.346  24.160  32.236  1.00  0.00     0.186 HD
HETATM    4  C4  UNL     1      -3.870  23.593  31.078  1.00  0.00     0.694 A 
HETATM    5  N9  UNL     1      -4.538  23.845  29.937  1.00  0.00    -0.022 N 
ATOM      6  H9  UNL     1      -5.347  23.270  29.697  1.00  0.00     0.203 HD
HETATM    7  C11 UNL     1      -4.169  24.829  29.110  1.00  0.00     0.694 A 
HETATM    8  N15 UNL     1      -3.087  25.576  29.464  1.00  0.00    -0.173 N 
ATOM      9  H15 UNL     1      -2.796  26.326  28.836  1.00  0.00     0.186 HD
ENDROOT
BRANCH   4  10
HETATM   10  N3  UNL     1      -4.203  22.591  31.877  1.00  0.00    -0.221 N 
ATOM     11  H3  UNL     1      -4.486  22.767  32.841  1.00  0.00     0.178 HD
BRANCH  10  12
HETATM   12  C5  UNL     1      -4.160  21.248  31.359  1.00  0.00     0.182 C 
BRANCH  12  13
HETATM   13  C6  UNL     1      -3.860  20.147  32.297  1.00  0.00     0.082 C 
BRANCH  13  14
HETATM   14  N4  UNL     1      -2.928  20.245  33.322  1.00  0.00    -0.353 N 
ATOM     15  H4  UNL     1      -2.001  20.584  33.063  1.00  0.00     0.166 HD
BRANCH  14  16
HETATM   16  C7  UNL     1      -3.103  19.959  34.538  1.00  0.00     0.135 A 
HETATM   17  N5  UNL     1      -3.329  18.750  35.083  1.00  0.00    -0.337 N 
HETATM   18  C8  UNL     1      -3.609  18.582  36.384  1.00  0.00     0.183 A 
ATOM     19  H5  UNL     1      -3.286  17.927  34.482  1.00  0.00     0.168 HD
HETATM   20  N6  UNL     1      -3.678  19.618  37.230  1.00  0.00    -0.339 N 
HETATM   21  C9  UNL     1      -3.465  20.858  36.761  1.00  0.00     0.147 A 
ATOM     22  H6  UNL     1      -3.890  19.466  38.216  1.00  0.00     0.167 HD
HETATM   23  N7  UNL     1      -3.553  22.001  37.624  1.00  0.00    -0.080 NA
HETATM   24  C10 UNL     1      -3.181  21.040  35.444  1.00  0.00     0.150 A 
BRANCH  24  25
HETATM   25  N8  UNL     1      -3.001  22.362  34.986  1.00  0.00    -0.029 NA
BRANCH  25  26
HETATM   26  O1  UNL     1      -4.184  22.913  34.590  1.00  0.00    -0.284 OA
ATOM     27  H1  UNL     1      -4.163  23.860  34.662  1.00  0.00     0.240 HD
ENDBRANCH  25  26
BRANCH  25  28
HETATM   28  O2  UNL     1      -2.032  22.515  34.089  1.00  0.00    -0.284 OA
ATOM     29  H2  UNL     1      -2.328  22.754  33.219  1.00  0.00     0.240 HD
ENDBRANCH  25  28
ENDBRANCH  24  25
ENDBRANCH  14  16
ENDBRANCH  13  14
ENDBRANCH  12  13
ENDBRANCH  10  12
ENDBRANCH   4  10
BRANCH   1  30
HETATM   30  C2  UNL     1      -1.253  26.237  31.056  1.00  0.00     0.089 A 
HETATM   31  N1  UNL     1      -0.048  26.378  30.541  1.00  0.00    -0.309 N 
HETATM   32  C1  UNL     1       0.448  25.660  29.326  1.00  0.00     0.160 C 
HETATM   33  C18 UNL     1       0.794  27.247  31.123  1.00  0.00     0.290 A 
HETATM   34  S1  UNL     1      -0.093  27.897  32.409  1.00  0.00    -0.038 SA
HETATM   35  O3  UNL     1       2.005  27.531  30.785  1.00  0.00    -0.260 OA
HETATM   36  C17 UNL     1      -1.533  27.034  32.179  1.00  0.00     0.088 A 
ENDBRANCH   1  30
BRANCH   7  37
HETATM   37  N10 UNL     1      -4.852  25.135  28.046  1.00  0.00    -0.221 N 
ATOM     38  H10 UNL     1      -5.386  24.424  27.546  1.00  0.00     0.178 HD
BRANCH  37  39
HETATM   39  C12 UNL     1      -4.837  26.493  27.593  1.00  0.00     0.182 C 
BRANCH  39  40
HETATM   40  C13 UNL     1      -4.763  26.718  26.137  1.00  0.00     0.020 A 
HETATM   41  C14 UNL     1      -3.559  26.580  25.477  1.00  0.00     0.118 A 
HETATM   42  N11 UNL     1      -3.546  26.619  24.133  1.00  0.00    -0.201 N 
HETATM   43  C15 UNL     1      -4.675  26.793  23.432  1.00  0.00     0.677 A 
ATOM     44  H11 UNL     1      -2.660  26.515  23.637  1.00  0.00     0.183 HD
HETATM   45  N13 UNL     1      -5.840  26.928  24.069  1.00  0.00    -0.177 N 
HETATM   46  C16 UNL     1      -5.907  26.896  25.406  1.00  0.00     0.124 A 
ATOM     47  H13 UNL     1      -6.695  27.056  23.527  1.00  0.00     0.185 HD
BRANCH  43  48
HETATM   48  N12 UNL     1      -4.634  26.842  22.126  1.00  0.00    -0.234 N 
ATOM     49 2H12 UNL     1      -4.803  27.725  21.644  1.00  0.00     0.174 HD
ATOM     50 1H12 UNL     1      -4.424  26.000  21.589  1.00  0.00     0.174 HD
ENDBRANCH  43  48
BRANCH  46  51
HETATM   51  N14 UNL     1      -7.021  27.059  26.062  1.00  0.00    -0.385 N 
ATOM     52 2H14 UNL     1      -7.130  26.796  27.042  1.00  0.00     0.157 HD
ATOM     53 1H14 UNL     1      -7.816  27.444  25.552  1.00  0.00     0.157 HD
ENDBRANCH  46  51
ENDBRANCH  39  40
ENDBRANCH  37  39
ENDBRANCH   7  37
TORSDOF 14
ENDMDL
MODEL 3
REMARK VINA RESULT: -9.270539719      2.327      5.151
REMARK  14 active torsions:
REMARK  status: ('A' for Active; 'I' for Inactive)
REMARK    1  A    between atoms: C2_3  and  C3_4 
REMARK    2  A    between atoms: C4_7  and  N3_8 
REMARK    3  A    between atoms: N3_8  and  C5_10 
REMARK    4  A    between atoms: C5_10  and  C6_11 
REMARK    5  A    between atoms: C6_11  and  N4_12 
REMARK    6  A    between atoms: N4_12  and  C7_14 
REMARK    7  A    between atoms: C10_22  and  N8_23 
REMARK    8  A    between atoms: N8_23  and  O1_24 
REMARK    9  A    between atoms: N8_23  and  O2_26 
REMARK   10  A    between atoms: C11_30  and  N10_31 
REMARK   11  A    between atoms: N10_31  and  C12_33 
REMARK   12  A    between atoms: C12_33  and  C13_34 
REMARK   13  A    between atoms: C15_38  and  N12_39 
REMARK   14  A    between atoms: C16_44  and  N14_45 
ROOT
HETATM    1  C3  UNL     1      -5.246  26.544  25.145  1.00  0.00     0.164 A 
HETATM    2  N2  UNL     1      -4.717  25.605  26.005  1.00  0.00    -0.173 N 
ATOM      3  H2  UNL     1      -4.189  24.835  25.594  1.00  0.00     0.186 HD
HETATM    4  C4  UNL     1      -4.842  25.625  27.306  1.00  0.00     0.694 A 
HETATM    5  N9  UNL     1      -5.529  26.645  27.857  1.00  0.00    -0.022 N 
ATOM      6  H9  UNL     1      -5.632  26.684  28.871  1.00  0.00     0.203 HD
HETATM    7  C11 UNL     1      -6.079  27.605  27.108  1.00  0.00     0.694 A 
HETATM    8  N15 UNL     1      -5.919  27.521  25.757  1.00  0.00    -0.173 N 
ATOM      9  H15 UNL     1      -6.340  28.249  25.179  1.00  0.00     0.186 HD
ENDROOT
BRANCH   4  10
HETATM   10  N3  UNL     1      -4.335  24.647  28.040  1.00  0.00    -0.221 N 
ATOM     11  H3  UNL     1      -3.704  23.960  27.626  1.00  0.00     0.178 HD
BRANCH  10  12
HETATM   12  C5  UNL     1      -4.689  24.570  29.433  1.00  0.00     0.182 C 
BRANCH  12  13
HETATM   13  C6  UNL     1      -3.684  24.984  30.433  1.00  0.00     0.082 C 
BRANCH  13  14
HETATM   14  N4  UNL     1      -3.053  26.221  30.421  1.00  0.00    -0.353 N 
ATOM     15  H4  UNL     1      -3.616  27.016  30.118  1.00  0.00     0.166 HD
BRANCH  14  16
HETATM   16  C7  UNL     1      -1.859  26.468  30.744  1.00  0.00     0.135 A 
HETATM   17  N5  UNL     1      -1.383  26.835  31.948  1.00  0.00    -0.337 N 
HETATM   18  C8  UNL     1      -0.102  27.178  32.147  1.00  0.00     0.183 A 
ATOM     19  H5  UNL     1      -2.024  26.854  32.742  1.00  0.00     0.168 HD
HETATM   20  N6  UNL     1       0.792  27.172  31.151  1.00  0.00    -0.339 N 
HETATM   21  C9  UNL     1       0.394  26.816  29.919  1.00  0.00     0.147 A 
ATOM     22  H6  UNL     1       1.762  27.433  31.326  1.00  0.00     0.167 HD
HETATM   23  N7  UNL     1       1.311  26.819  28.814  1.00  0.00    -0.080 NA
HETATM   24  C10 UNL     1      -0.902  26.469  29.705  1.00  0.00     0.150 A 
BRANCH  24  25
HETATM   25  N8  UNL     1      -1.287  26.139  28.388  1.00  0.00    -0.029 NA
BRANCH  25  26
HETATM   26  O1  UNL     1      -2.288  26.954  27.948  1.00  0.00    -0.284 OA
ATOM     27  H1  UNL     1      -2.568  26.712  27.073  1.00  0.00     0.240 HD
ENDBRANCH  25  26
BRANCH  25  28
HETATM   28  O2  UNL     1      -1.542  24.850  28.187  1.00  0.00    -0.284 OA
ATOM     29  H2  UNL     1      -1.732  24.616  27.287  1.00  0.00     0.240 HD
ENDBRANCH  25  28
ENDBRANCH  24  25
ENDBRANCH  14  16
ENDBRANCH  13  14
ENDBRANCH  12  13
ENDBRANCH  10  12
ENDBRANCH   4  10
BRANCH   1  30
HETATM   30  C2  UNL     1      -4.966  26.462  23.683  1.00  0.00     0.089 A 
HETATM   31  N1  UNL     1      -5.319  27.292  22.722  1.00  0.00    -0.309 N 
HETATM   32  C1  UNL     1      -6.126  28.535  22.926  1.00  0.00     0.160 C 
HETATM   33  C18 UNL     1      -4.905  27.030  21.473  1.00  0.00     0.290 A 
HETATM   34  S1  UNL     1      -4.000  25.608  21.617  1.00  0.00    -0.038 SA
HETATM   35  O3  UNL     1      -5.139  27.704  20.398  1.00  0.00    -0.260 OA
HETATM   36  C17 UNL     1      -4.173  25.372  23.286  1.00  0.00     0.088 A 
ENDBRANCH   1  30
BRANCH   7  37
HETATM   37  N10 UNL     1      -6.676  28.637  27.629  1.00  0.00    -0.221 N 
ATOM     38  H10 UNL     1      -7.087  28.586  28.562  1.00  0.00     0.178 HD
BRANCH  37  39
HETATM   39  C12 UNL     1      -6.742  29.846  26.865  1.00  0.00     0.182 C 
BRANCH  39  40
HETATM   40  C13 UNL     1      -5.625  30.797  27.007  1.00  0.00     0.020 A 
HETATM   41  C14 UNL     1      -4.356  30.334  27.295  1.00  0.00     0.118 A 
HETATM   42  N11 UNL     1      -3.324  31.195  27.250  1.00  0.00    -0.201 N 
HETATM   43  C15 UNL     1      -3.509  32.485  26.936  1.00  0.00     0.677 A 
ATOM     44  H11 UNL     1      -2.383  30.860  27.459  1.00  0.00     0.183 HD
HETATM   45  N13 UNL     1      -4.734  32.934  26.657  1.00  0.00    -0.177 N 
HETATM   46  C16 UNL     1      -5.796  32.117  26.688  1.00  0.00     0.124 A 
ATOM     47  H13 UNL     1      -4.865  33.916  26.416  1.00  0.00     0.185 HD
BRANCH  43  48
HETATM   48  N12 UNL     1      -2.490  33.305  26.912  1.00  0.00    -0.234 N 
ATOM     49 2H12 UNL     1      -1.943  33.461  27.758  1.00  0.00     0.174 HD
ATOM     50 1H12 UNL     1      -2.239  33.782  26.046  1.00  0.00     0.174 HD
ENDBRANCH  43  48
BRANCH  46  51
HETATM   51  N14 UNL     1      -7.010  32.528  26.457  1.00  0.00    -0.385 N 
ATOM     52 2H14 UNL     1      -7.725  32.580  27.184  1.00  0.00     0.157 HD
ATOM     53 1H14 UNL     1      -7.247  32.782  25.498  1.00  0.00     0.157 HD
ENDBRANCH  46  51
ENDBRANCH  39  40
ENDBRANCH  37  39
ENDBRANCH   7  37
TORSDOF 14
ENDMDL
MODEL 4
REMARK VINA RESULT: -9.166942454      5.073      7.081
REMARK  14 active torsions:
REMARK  status: ('A' for Active; 'I' for Inactive)
REMARK    1  A    between atoms: C2_3  and  C3_4 
REMARK    2  A    between atoms: C4_7  and  N3_8 
REMARK    3  A    between atoms: N3_8  and  C5_10 
REMARK    4  A    between atoms: C5_10  and  C6_11 
REMARK    5  A    between atoms: C6_11  and  N4_12 
REMARK    6  A    between atoms: N4_12  and  C7_14 
REMARK    7  A    between atoms: C10_22  and  N8_23 
REMARK    8  A    between atoms: N8_23  and  O1_24 
REMARK    9  A    between atoms: N8_23  and  O2_26 
REMARK   10  A    between atoms: C11_30  and  N10_31 
REMARK   11  A    between atoms: N10_31  and  C12_33 
REMARK   12  A    between atoms: C12_33  and  C13_34 
REMARK   13  A    between atoms: C15_38  and  N12_39 
REMARK   14  A    between atoms: C16_44  and  N14_45 
ROOT
HETATM    1  C3  UNL     1      -2.087  26.315  30.798  1.00  0.00     0.164 A 
HETATM    2  N2  UNL     1      -2.773  25.358  31.513  1.00  0.00    -0.173 N 
ATOM      3  H2  UNL     1      -2.355  25.031  32.385  1.00  0.00     0.186 HD
HETATM    4  C4  UNL     1      -3.919  24.836  31.160  1.00  0.00     0.694 A 
HETATM    5  N9  UNL     1      -4.483  25.271  30.016  1.00  0.00    -0.022 N 
ATOM      6  H9  UNL     1      -5.380  24.883  29.726  1.00  0.00     0.203 HD
HETATM    7  C11 UNL     1      -3.895  26.197  29.253  1.00  0.00     0.694 A 
HETATM    8  N15 UNL     1      -2.698  26.694  29.673  1.00  0.00    -0.173 N 
ATOM      9  H15 UNL     1      -2.242  27.399  29.093  1.00  0.00     0.186 HD
ENDROOT
BRANCH   4  10
HETATM   10  N3  UNL     1      -4.475  23.886  31.896  1.00  0.00    -0.221 N 
ATOM     11  H3  UNL     1      -5.380  24.037  32.342  1.00  0.00     0.178 HD
BRANCH  10  12
HETATM   12  C5  UNL     1      -3.779  22.636  32.054  1.00  0.00     0.182 C 
BRANCH  12  13
HETATM   13  C6  UNL     1      -3.120  22.363  33.348  1.00  0.00     0.082 C 
BRANCH  13  14
HETATM   14  N4  UNL     1      -3.660  21.537  34.325  1.00  0.00    -0.353 N 
ATOM     15  H4  UNL     1      -4.151  20.705  33.998  1.00  0.00     0.166 HD
BRANCH  14  16
HETATM   16  C7  UNL     1      -3.608  21.705  35.575  1.00  0.00     0.135 A 
HETATM   17  N5  UNL     1      -3.474  22.859  36.253  1.00  0.00    -0.337 N 
HETATM   18  C8  UNL     1      -3.323  22.903  37.585  1.00  0.00     0.183 A 
ATOM     19  H5  UNL     1      -3.489  23.736  35.733  1.00  0.00     0.168 HD
HETATM   20  N6  UNL     1      -3.299  21.791  38.329  1.00  0.00    -0.339 N 
HETATM   21  C9  UNL     1      -3.427  20.598  37.725  1.00  0.00     0.147 A 
ATOM     22  H6  UNL     1      -3.185  21.848  39.341  1.00  0.00     0.167 HD
HETATM   23  N7  UNL     1      -3.382  19.377  38.477  1.00  0.00    -0.080 NA
HETATM   24  C10 UNL     1      -3.579  20.541  36.375  1.00  0.00     0.150 A 
BRANCH  24  25
HETATM   25  N8  UNL     1      -3.673  19.267  35.776  1.00  0.00    -0.029 NA
BRANCH  25  26
HETATM   26  O1  UNL     1      -2.571  18.997  35.018  1.00  0.00    -0.284 OA
ATOM     27  H1  UNL     1      -1.814  18.821  35.564  1.00  0.00     0.240 HD
ENDBRANCH  25  26
BRANCH  25  28
HETATM   28  O2  UNL     1      -4.814  19.033  35.136  1.00  0.00    -0.284 OA
ATOM     29  H2  UNL     1      -4.787  18.306  34.526  1.00  0.00     0.240 HD
ENDBRANCH  25  28
ENDBRANCH  24  25
ENDBRANCH  14  16
ENDBRANCH  13  14
ENDBRANCH  12  13
ENDBRANCH  10  12
ENDBRANCH   4  10
BRANCH   1  30
HETATM   30  C2  UNL     1      -0.828  26.897  31.344  1.00  0.00     0.089 A 
HETATM   31  N1  UNL     1       0.387  26.876  30.833  1.00  0.00    -0.309 N 
HETATM   32  C1  UNL     1       0.756  26.214  29.544  1.00  0.00     0.160 C 
HETATM   33  C18 UNL     1       1.365  27.517  31.493  1.00  0.00     0.290 A 
HETATM   34  S1  UNL     1       0.598  28.174  32.851  1.00  0.00    -0.038 SA
HETATM   35  O3  UNL     1       2.610  27.616  31.172  1.00  0.00    -0.260 OA
HETATM   36  C17 UNL     1      -0.970  27.609  32.548  1.00  0.00     0.088 A 
ENDBRANCH   1  30
BRANCH   7  37
HETATM   37  N10 UNL     1      -4.464  26.685  28.189  1.00  0.00    -0.221 N 
ATOM     38  H10 UNL     1      -4.633  27.687  28.101  1.00  0.00     0.178 HD
BRANCH  37  39
HETATM   39  C12 UNL     1      -4.845  25.783  27.145  1.00  0.00     0.182 C 
BRANCH  39  40
HETATM   40  C13 UNL     1      -4.814  26.298  25.763  1.00  0.00     0.020 A 
HETATM   41  C14 UNL     1      -3.636  26.278  25.045  1.00  0.00     0.118 A 
HETATM   42  N11 UNL     1      -3.665  26.589  23.738  1.00  0.00    -0.201 N 
HETATM   43  C15 UNL     1      -4.812  26.919  23.128  1.00  0.00     0.677 A 
ATOM     44  H11 UNL     1      -2.799  26.574  23.199  1.00  0.00     0.183 HD
HETATM   45  N13 UNL     1      -5.953  26.939  23.820  1.00  0.00    -0.177 N 
HETATM   46  C16 UNL     1      -5.977  26.638  25.126  1.00  0.00     0.124 A 
ATOM     47  H13 UNL     1      -6.822  27.188  23.348  1.00  0.00     0.185 HD
BRANCH  43  48
HETATM   48  N12 UNL     1      -4.812  27.231  21.858  1.00  0.00    -0.234 N 
ATOM     49 2H12 UNL     1      -3.929  27.346  21.361  1.00  0.00     0.174 HD
ATOM     50 1H12 UNL     1      -5.696  27.352  21.361  1.00  0.00     0.174 HD
ENDBRANCH  43  48
BRANCH  46  51
HETATM   51  N14 UNL     1      -7.065  26.681  25.841  1.00  0.00    -0.385 N 
ATOM     52 2H14 UNL     1      -7.240  26.047  26.621  1.00  0.00     0.157 HD
ATOM     53 1H14 UNL     1      -7.772  27.368  25.581  1.00  0.00     0.157 HD
ENDBRANCH  46  51
ENDBRANCH  39  40
ENDBRANCH  37  39
ENDBRANCH   7  37
TORSDOF 14
ENDMDL
MODEL 5
REMARK VINA RESULT: -9.151484304      1.577      2.568
REMARK  14 active torsions:
REMARK  status: ('A' for Active; 'I' for Inactive)
REMARK    1  A    between atoms: C2_3  and  C3_4 
REMARK    2  A    between atoms: C4_7  and  N3_8 
REMARK    3  A    between atoms: N3_8  and  C5_10 
REMARK    4  A    between atoms: C5_10  and  C6_11 
REMARK    5  A    between atoms: C6_11  and  N4_12 
REMARK    6  A    between atoms: N4_12  and  C7_14 
REMARK    7  A    between atoms: C10_22  and  N8_23 
REMARK    8  A    between atoms: N8_23  and  O1_24 
REMARK    9  A    between atoms: N8_23  and  O2_26 
REMARK   10  A    between atoms: C11_30  and  N10_31 
REMARK   11  A    between atoms: N10_31  and  C12_33 
REMARK   12  A    between atoms: C12_33  and  C13_34 
REMARK   13  A    between atoms: C15_38  and  N12_39 
REMARK   14  A    between atoms: C16_44  and  N14_45 
ROOT
HETATM    1  C3  UNL     1      -7.051  29.260  26.939  1.00  0.00     0.164 A 
HETATM    2  N2  UNL     1      -6.404  28.240  27.603  1.00  0.00    -0.173 N 
ATOM      3  H2  UNL     1      -6.074  28.428  28.550  1.00  0.00     0.186 HD
HETATM    4  C4  UNL     1      -6.180  27.049  27.112  1.00  0.00     0.694 A 
HETATM    5  N9  UNL     1      -6.622  26.789  25.866  1.00  0.00    -0.022 N 
ATOM      6  H9  UNL     1      -6.464  25.864  25.465  1.00  0.00     0.203 HD
HETATM    7  C11 UNL     1      -7.261  27.712  25.141  1.00  0.00     0.694 A 
HETATM    8  N15 UNL     1      -7.455  28.936  25.709  1.00  0.00    -0.173 N 
ATOM      9  H15 UNL     1      -7.938  29.647  25.160  1.00  0.00     0.186 HD
ENDROOT
BRANCH   4  10
HETATM   10  N3  UNL     1      -5.506  26.152  27.815  1.00  0.00    -0.221 N 
ATOM     11  H3  UNL     1      -5.735  25.982  28.795  1.00  0.00     0.178 HD
BRANCH  10  12
HETATM   12  C5  UNL     1      -4.444  25.422  27.173  1.00  0.00     0.182 C 
BRANCH  12  13
HETATM   13  C6  UNL     1      -3.060  25.909  27.344  1.00  0.00     0.082 C 
BRANCH  13  14
HETATM   14  N4  UNL     1      -2.182  25.408  28.295  1.00  0.00    -0.353 N 
ATOM     15  H4  UNL     1      -1.573  24.646  27.996  1.00  0.00     0.166 HD
BRANCH  14  16
HETATM   16  C7  UNL     1      -2.056  25.793  29.490  1.00  0.00     0.135 A 
HETATM   17  N5  UNL     1      -3.025  26.067  30.381  1.00  0.00    -0.337 N 
HETATM   18  C8  UNL     1      -2.771  26.576  31.596  1.00  0.00     0.183 A 
ATOM     19  H5  UNL     1      -3.994  25.880  30.122  1.00  0.00     0.168 HD
HETATM   20  N6  UNL     1      -1.523  26.841  32.002  1.00  0.00    -0.339 N 
HETATM   21  C9  UNL     1      -0.500  26.595  31.168  1.00  0.00     0.147 A 
ATOM     22  H6  UNL     1      -1.353  27.226  32.931  1.00  0.00     0.167 HD
HETATM   23  N7  UNL     1       0.853  26.887  31.549  1.00  0.00    -0.080 NA
HETATM   24  C10 UNL     1      -0.746  26.081  29.934  1.00  0.00     0.150 A 
BRANCH  24  25
HETATM   25  N8  UNL     1       0.355  25.872  29.076  1.00  0.00    -0.029 NA
BRANCH  25  26
HETATM   26  O1  UNL     1       1.225  24.964  29.603  1.00  0.00    -0.284 OA
ATOM     27  H1  UNL     1       1.868  24.691  28.958  1.00  0.00     0.240 HD
ENDBRANCH  25  26
BRANCH  25  28
HETATM   28  O2  UNL     1       0.954  26.982  28.656  1.00  0.00    -0.284 OA
ATOM     29  H2  UNL     1       1.592  27.344  29.260  1.00  0.00     0.240 HD
ENDBRANCH  25  28
ENDBRANCH  24  25
ENDBRANCH  14  16
ENDBRANCH  13  14
ENDBRANCH  12  13
ENDBRANCH  10  12
ENDBRANCH   4  10
BRANCH   1  30
HETATM   30  C2  UNL     1      -7.324  30.550  27.635  1.00  0.00     0.089 A 
HETATM   31  N1  UNL     1      -6.619  31.664  27.624  1.00  0.00    -0.309 N 
HETATM   32  C1  UNL     1      -5.333  31.850  26.883  1.00  0.00     0.160 C 
HETATM   33  C18 UNL     1      -7.095  32.723  28.298  1.00  0.00     0.290 A 
HETATM   34  S1  UNL     1      -8.554  32.180  28.962  1.00  0.00    -0.038 SA
HETATM   35  O3  UNL     1      -6.568  33.893  28.418  1.00  0.00    -0.260 OA
HETATM   36  C17 UNL     1      -8.525  30.596  28.363  1.00  0.00     0.088 A 
ENDBRANCH   1  30
BRANCH   7  37
HETATM   37  N10 UNL     1      -7.763  27.452  23.970  1.00  0.00    -0.221 N 
ATOM     38  H10 UNL     1      -8.494  26.749  23.860  1.00  0.00     0.178 HD
BRANCH  37  39
HETATM   39  C12 UNL     1      -7.268  28.175  22.838  1.00  0.00     0.182 C 
BRANCH  39  40
HETATM   40  C13 UNL     1      -6.226  27.523  22.024  1.00  0.00     0.020 A 
HETATM   41  C14 UNL     1      -5.221  26.802  22.636  1.00  0.00     0.118 A 
HETATM   42  N11 UNL     1      -4.384  26.076  21.874  1.00  0.00    -0.201 N 
HETATM   43  C15 UNL     1      -4.510  26.045  20.540  1.00  0.00     0.677 A 
ATOM     44  H11 UNL     1      -3.640  25.538  22.319  1.00  0.00     0.183 HD
HETATM   45  N13 UNL     1      -5.481  26.742  19.946  1.00  0.00    -0.177 N 
HETATM   46  C16 UNL     1      -6.340  27.482  20.660  1.00  0.00     0.124 A 
ATOM     47  H13 UNL     1      -5.571  26.710  18.930  1.00  0.00     0.185 HD
BRANCH  43  48
HETATM   48  N12 UNL     1      -3.675  25.342  19.820  1.00  0.00    -0.234 N 
ATOM     49 2H12 UNL     1      -3.928  24.400  19.521  1.00  0.00     0.174 HD
ATOM     50 1H12 UNL     1      -2.774  25.737  19.549  1.00  0.00     0.174 HD
ENDBRANCH  43  48
BRANCH  46  51
HETATM   51  N14 UNL     1      -7.277  28.202  20.112  1.00  0.00    -0.385 N 
ATOM     52 2H14 UNL     1      -8.268  28.073  20.321  1.00  0.00     0.157 HD
ATOM     53 1H14 UNL     1      -6.993  28.903  19.429  1.00  0.00     0.157 HD
ENDBRANCH  46  51
ENDBRANCH  39  40
ENDBRANCH  37  39
ENDBRANCH   7  37
TORSDOF 14
ENDMDL
