MODEL 1
REMARK VINA RESULT: -8.422806734      0.000      0.000
REMARK  10 active torsions:
REMARK  status: ('A' for Active; 'I' for Inactive)
REMARK    1  A    between atoms: C8_15  and  C9_16 
REMARK    2  A    between atoms: C9_16  and  N4_17 
REMARK    3  A    between atoms: N4_17  and  C10_19 
REMARK    4  A    between atoms: C10_19  and  C11_20 
REMARK    5  A    between atoms: C11_20  and  C12_21 
REMARK    6  A    between atoms: C12_21  and  C13_22 
REMARK    7  A    between atoms: C13_22  and  N5_23 
REMARK    8  A    between atoms: C19_38  and  N9_39 
REMARK    9  A    between atoms: N9_39  and  N10_41 
REMARK       I    between atoms: N10_41  and  C20_43 
REMARK   10  A    between atoms: N12_45  and  O4_47 
ROOT
HETATM    1  C1  UNL     1     -11.614  32.297  20.406  1.00  0.00     0.164 C 
HETATM    2  N1  UNL     1     -10.520  32.248  21.366  1.00  0.00    -0.270 N 
HETATM    3  C2  UNL     1      -9.998  33.367  21.894  1.00  0.00     0.330 A 
HETATM    4  O1  UNL     1     -10.505  34.483  21.534  1.00  0.00    -0.246 OA
HETATM    5  N2  UNL     1      -8.989  33.346  22.764  1.00  0.00    -0.293 N 
ATOM      6  H2  UNL     1      -8.625  34.221  23.143  1.00  0.00     0.172 HD
HETATM    7  C3  UNL     1      -8.447  32.171  23.145  1.00  0.00     0.126 A 
HETATM    8  N3  UNL     1      -7.471  31.862  24.018  1.00  0.00    -0.340 N 
ATOM      9  H3  UNL     1      -6.923  32.528  24.563  1.00  0.00     0.167 HD
HETATM   10  C4  UNL     1      -7.345  30.540  24.049  1.00  0.00     0.067 A 
HETATM   11  C5  UNL     1      -8.281  29.986  23.143  1.00  0.00     0.037 A 
HETATM   12  C6  UNL     1      -8.998  31.002  22.579  1.00  0.00     0.091 A 
HETATM   13  C7  UNL     1     -10.029  31.010  21.702  1.00  0.00     0.266 A 
HETATM   14  O2  UNL     1     -10.639  30.106  21.148  1.00  0.00    -0.267 OA
HETATM   15  C8  UNL     1      -8.341  28.606  22.709  1.00  0.00     0.056 C 
HETATM   16  N6  UNL     1      -8.061  27.567  23.475  1.00  0.00    -0.301 N 
ATOM     17  H6  UNL     1      -8.160  26.658  23.023  1.00  0.00     0.186 HD
HETATM   18  N7  UNL     1      -7.646  27.522  24.824  1.00  0.00    -0.283 N 
ATOM     19  H7  UNL     1      -8.043  26.808  25.434  1.00  0.00     0.188 HD
HETATM   20  C14 UNL     1      -6.684  28.446  25.375  1.00  0.00     0.160 A 
HETATM   21  C15 UNL     1      -6.537  29.775  24.984  1.00  0.00     0.109 A 
HETATM   22  C16 UNL     1      -5.516  30.278  25.750  1.00  0.00     0.283 A 
HETATM   23  O3  UNL     1      -5.110  31.450  25.660  1.00  0.00    -0.265 OA
HETATM   24  N8  UNL     1      -5.087  29.276  26.558  1.00  0.00    -0.223 N 
HETATM   25  C17 UNL     1      -4.142  29.230  27.505  1.00  0.00     0.123 A 
HETATM   26  C18 UNL     1      -3.870  28.102  28.248  1.00  0.00     0.052 A 
HETATM   27  C19 UNL     1      -4.592  26.954  28.019  1.00  0.00     0.067 A 
HETATM   28  C21 UNL     1      -5.568  27.028  27.029  1.00  0.00     0.150 A 
HETATM   29  N13 UNL     1      -5.792  28.162  26.336  1.00  0.00    -0.237 N 
ENDROOT
BRANCH  15  30
HETATM   30  C9  UNL     1      -8.570  28.380  21.287  1.00  0.00     0.173 C 
BRANCH  30  31
HETATM   31  N4  UNL     1      -7.493  28.530  20.364  1.00  0.00    -0.416 N 
ATOM     32  H4  UNL     1      -7.703  28.780  19.398  1.00  0.00     0.153 HD
BRANCH  31  33
HETATM   33  C10 UNL     1      -6.165  28.346  20.737  1.00  0.00     0.114 C 
BRANCH  33  34
HETATM   34  C11 UNL     1      -5.833  26.857  20.516  1.00  0.00     0.021 C 
BRANCH  34  35
HETATM   35  C12 UNL     1      -5.154  26.231  21.694  1.00  0.00     0.029 C 
BRANCH  35  36
HETATM   36  C13 UNL     1      -4.004  25.368  21.178  1.00  0.00     0.229 C 
BRANCH  36  37
HETATM   37  N5  UNL     1      -4.036  25.369  19.750  1.00  0.00    -0.079 N 
ATOM     38  H53 UNL     1      -4.733  24.726  19.375  1.00  0.00     0.274 HD
ATOM     39  H52 UNL     1      -4.423  26.233  19.369  1.00  0.00     0.274 HD
ATOM     40  H51 UNL     1      -3.097  25.174  19.403  1.00  0.00     0.274 HD
ENDBRANCH  36  37
ENDBRANCH  35  36
ENDBRANCH  34  35
ENDBRANCH  33  34
ENDBRANCH  31  33
ENDBRANCH  30  31
ENDBRANCH  15  30
BRANCH  27  41
HETATM   41  N9  UNL     1      -4.396  25.733  28.753  1.00  0.00    -0.297 N 
ATOM     42  H9  UNL     1      -4.354  24.854  28.237  1.00  0.00     0.187 HD
BRANCH  41  43
HETATM   43  N10 UNL     1      -4.262  25.699  30.145  1.00  0.00    -0.272 N 
HETATM   44  C20 UNL     1      -3.035  25.548  30.839  1.00  0.00     0.227 C 
HETATM   45  N11 UNL     1      -1.936  26.387  30.507  1.00  0.00    -0.060 NA
HETATM   46  N12 UNL     1      -2.878  24.680  31.769  1.00  0.00    -0.240 N 
ATOM     47  H12 UNL     1      -3.661  24.076  32.019  1.00  0.00     0.197 HD
ATOM     48  H10 UNL     1      -5.110  25.790  30.703  1.00  0.00     0.189 HD
BRANCH  46  49
HETATM   49  O4  UNL     1      -1.699  24.542  32.433  1.00  0.00    -0.287 OA
ATOM     50  H4  UNL     1      -1.666  24.361  33.365  1.00  0.00     0.244 HD
ENDBRANCH  46  49
ENDBRANCH  41  43
ENDBRANCH  27  41
TORSDOF 10
ENDMDL
MODEL 2
REMARK VINA RESULT: -8.265984361      2.044      3.182
REMARK  10 active torsions:
REMARK  status: ('A' for Active; 'I' for Inactive)
REMARK    1  A    between atoms: C8_15  and  C9_16 
REMARK    2  A    between atoms: C9_16  and  N4_17 
REMARK    3  A    between atoms: N4_17  and  C10_19 
REMARK    4  A    between atoms: C10_19  and  C11_20 
REMARK    5  A    between atoms: C11_20  and  C12_21 
REMARK    6  A    between atoms: C12_21  and  C13_22 
REMARK    7  A    between atoms: C13_22  and  N5_23 
REMARK    8  A    between atoms: C19_38  and  N9_39 
REMARK    9  A    between atoms: N9_39  and  N10_41 
REMARK       I    between atoms: N10_41  and  C20_43 
REMARK   10  A    between atoms: N12_45  and  O4_47 
ROOT
HETATM    1  C1  UNL     1      -9.230  32.185  22.633  1.00  0.00     0.164 C 
HETATM    2  N1  UNL     1      -8.199  31.836  23.602  1.00  0.00    -0.270 N 
HETATM    3  C2  UNL     1      -7.435  32.775  24.182  1.00  0.00     0.330 A 
HETATM    4  O1  UNL     1      -7.652  33.993  23.864  1.00  0.00    -0.246 OA
HETATM    5  N2  UNL     1      -6.479  32.478  25.062  1.00  0.00    -0.293 N 
ATOM      6  H2  UNL     1      -5.923  33.224  25.481  1.00  0.00     0.172 HD
HETATM    7  C3  UNL     1      -6.243  31.193  25.398  1.00  0.00     0.126 A 
HETATM    8  N3  UNL     1      -5.388  30.624  26.268  1.00  0.00    -0.340 N 
ATOM      9  H3  UNL     1      -4.708  31.117  26.846  1.00  0.00     0.167 HD
HETATM   10  C4  UNL     1      -5.584  29.311  26.243  1.00  0.00     0.067 A 
HETATM   11  C5  UNL     1      -6.607  29.034  25.305  1.00  0.00     0.037 A 
HETATM   12  C6  UNL     1      -7.047  30.214  24.777  1.00  0.00     0.091 A 
HETATM   13  C7  UNL     1      -8.028  30.504  23.890  1.00  0.00     0.266 A 
HETATM   14  O2  UNL     1      -8.825  29.796  23.292  1.00  0.00    -0.267 OA
HETATM   15  C8  UNL     1      -6.988  27.727  24.812  1.00  0.00     0.056 C 
HETATM   16  N6  UNL     1      -6.982  26.623  25.536  1.00  0.00    -0.301 N 
ATOM     17  H6  UNL     1      -7.287  25.783  25.045  1.00  0.00     0.186 HD
HETATM   18  N7  UNL     1      -6.617  26.427  26.886  1.00  0.00    -0.283 N 
ATOM     19  H7  UNL     1      -7.187  25.807  27.461  1.00  0.00     0.188 HD
HETATM   20  C14 UNL     1      -5.473  27.070  27.486  1.00  0.00     0.160 A 
HETATM   21  C15 UNL     1      -5.003  28.338  27.154  1.00  0.00     0.109 A 
HETATM   22  C16 UNL     1      -3.907  28.551  27.951  1.00  0.00     0.283 A 
HETATM   23  O3  UNL     1      -3.230  29.593  27.915  1.00  0.00    -0.265 OA
HETATM   24  N8  UNL     1      -3.748  27.445  28.721  1.00  0.00    -0.223 N 
HETATM   25  C17 UNL     1      -2.862  27.136  29.675  1.00  0.00     0.123 A 
HETATM   26  C18 UNL     1      -2.884  25.947  30.371  1.00  0.00     0.052 A 
HETATM   27  C19 UNL     1      -3.855  25.017  30.087  1.00  0.00     0.067 A 
HETATM   28  C21 UNL     1      -4.765  25.362  29.091  1.00  0.00     0.150 A 
HETATM   29  N13 UNL     1      -4.695  26.542  28.444  1.00  0.00    -0.237 N 
ENDROOT
BRANCH  15  30
HETATM   30  C9  UNL     1      -7.236  27.618  23.379  1.00  0.00     0.173 C 
BRANCH  30  31
HETATM   31  N4  UNL     1      -6.155  27.774  22.461  1.00  0.00    -0.416 N 
ATOM     32  H4  UNL     1      -5.440  28.473  22.655  1.00  0.00     0.153 HD
BRANCH  31  33
HETATM   33  C10 UNL     1      -6.046  27.002  21.308  1.00  0.00     0.114 C 
BRANCH  33  34
HETATM   34  C11 UNL     1      -4.623  26.409  21.291  1.00  0.00     0.021 C 
BRANCH  34  35
HETATM   35  C12 UNL     1      -4.396  25.412  22.385  1.00  0.00     0.029 C 
BRANCH  35  36
HETATM   36  C13 UNL     1      -3.180  25.861  23.193  1.00  0.00     0.229 C 
BRANCH  36  37
HETATM   37  N5  UNL     1      -3.630  26.389  24.442  1.00  0.00    -0.079 N 
ATOM     38  H53 UNL     1      -3.381  27.371  24.563  1.00  0.00     0.274 HD
ATOM     39  H52 UNL     1      -4.644  26.496  24.478  1.00  0.00     0.274 HD
ATOM     40  H51 UNL     1      -3.271  25.800  25.193  1.00  0.00     0.274 HD
ENDBRANCH  36  37
ENDBRANCH  35  36
ENDBRANCH  34  35
ENDBRANCH  33  34
ENDBRANCH  31  33
ENDBRANCH  30  31
ENDBRANCH  15  30
BRANCH  27  41
HETATM   41  N9  UNL     1      -3.974  23.757  30.770  1.00  0.00    -0.297 N 
ATOM     42  H9  UNL     1      -4.591  23.045  30.379  1.00  0.00     0.187 HD
BRANCH  41  43
HETATM   43  N10 UNL     1      -3.280  23.467  31.949  1.00  0.00    -0.272 N 
HETATM   44  C20 UNL     1      -3.654  22.474  32.888  1.00  0.00     0.227 C 
HETATM   45  N11 UNL     1      -3.933  21.155  32.438  1.00  0.00    -0.060 NA
HETATM   46  N12 UNL     1      -3.745  22.720  34.144  1.00  0.00    -0.240 N 
ATOM     47  H12 UNL     1      -3.543  23.661  34.479  1.00  0.00     0.197 HD
ATOM     48  H10 UNL     1      -2.440  24.011  32.149  1.00  0.00     0.189 HD
BRANCH  46  49
HETATM   49  O4  UNL     1      -4.102  21.761  35.041  1.00  0.00    -0.287 OA
ATOM     50  H4  UNL     1      -3.645  20.931  35.098  1.00  0.00     0.244 HD
ENDBRANCH  46  49
ENDBRANCH  41  43
ENDBRANCH  27  41
TORSDOF 10
ENDMDL
MODEL 3
REMARK VINA RESULT: -8.233729993      1.229      1.349
REMARK  10 active torsions:
REMARK  status: ('A' for Active; 'I' for Inactive)
REMARK    1  A    between atoms: C8_15  and  C9_16 
REMARK    2  A    between atoms: C9_16  and  N4_17 
REMARK    3  A    between atoms: N4_17  and  C10_19 
REMARK    4  A    between atoms: C10_19  and  C11_20 
REMARK    5  A    between atoms: C11_20  and  C12_21 
REMARK    6  A    between atoms: C12_21  and  C13_22 
REMARK    7  A    between atoms: C13_22  and  N5_23 
REMARK    8  A    between atoms: C19_38  and  N9_39 
REMARK    9  A    between atoms: N9_39  and  N10_41 
REMARK       I    between atoms: N10_41  and  C20_43 
REMARK   10  A    between atoms: N12_45  and  O4_47 
ROOT
HETATM    1  C1  UNL     1     -10.338  32.459  19.262  1.00  0.00     0.164 C 
HETATM    2  N1  UNL     1      -9.470  32.321  20.424  1.00  0.00    -0.270 N 
HETATM    3  C2  UNL     1      -9.083  33.387  21.142  1.00  0.00     0.330 A 
HETATM    4  O1  UNL     1      -9.513  34.534  20.776  1.00  0.00    -0.246 OA
HETATM    5  N2  UNL     1      -8.280  33.286  22.201  1.00  0.00    -0.293 N 
ATOM      6  H2  UNL     1      -8.013  34.123  22.719  1.00  0.00     0.172 HD
HETATM    7  C3  UNL     1      -7.820  32.079  22.588  1.00  0.00     0.126 A 
HETATM    8  N3  UNL     1      -7.048  31.689  23.619  1.00  0.00    -0.340 N 
ATOM      9  H3  UNL     1      -6.634  32.303  24.321  1.00  0.00     0.167 HD
HETATM   10  C4  UNL     1      -6.919  30.368  23.566  1.00  0.00     0.067 A 
HETATM   11  C5  UNL     1      -7.637  29.900  22.439  1.00  0.00     0.037 A 
HETATM   12  C6  UNL     1      -8.228  30.965  21.823  1.00  0.00     0.091 A 
HETATM   13  C7  UNL     1      -9.051  31.055  20.752  1.00  0.00     0.266 A 
HETATM   14  O2  UNL     1      -9.522  30.206  20.009  1.00  0.00    -0.267 OA
HETATM   15  C8  UNL     1      -7.591  28.561  21.889  1.00  0.00     0.056 C 
HETATM   16  N6  UNL     1      -7.470  27.460  22.608  1.00  0.00    -0.301 N 
ATOM     17  H6  UNL     1      -7.463  26.593  22.072  1.00  0.00     0.186 HD
HETATM   18  N7  UNL     1      -7.349  27.300  24.006  1.00  0.00    -0.283 N 
ATOM     19  H7  UNL     1      -7.860  26.541  24.457  1.00  0.00     0.188 HD
HETATM   20  C14 UNL     1      -6.534  28.166  24.822  1.00  0.00     0.160 A 
HETATM   21  C15 UNL     1      -6.320  29.521  24.584  1.00  0.00     0.109 A 
HETATM   22  C16 UNL     1      -5.488  29.950  25.587  1.00  0.00     0.283 A 
HETATM   23  O3  UNL     1      -5.084  31.122  25.683  1.00  0.00    -0.265 OA
HETATM   24  N8  UNL     1      -5.231  28.881  26.382  1.00  0.00    -0.223 N 
HETATM   25  C17 UNL     1      -4.507  28.748  27.500  1.00  0.00     0.123 A 
HETATM   26  C18 UNL     1      -4.387  27.560  28.186  1.00  0.00     0.052 A 
HETATM   27  C19 UNL     1      -5.034  26.441  27.716  1.00  0.00     0.067 A 
HETATM   28  C21 UNL     1      -5.780  26.606  26.552  1.00  0.00     0.150 A 
HETATM   29  N13 UNL     1      -5.863  27.795  25.924  1.00  0.00    -0.237 N 
ENDROOT
BRANCH  15  30
HETATM   30  C9  UNL     1      -7.513  28.457  20.437  1.00  0.00     0.173 C 
BRANCH  30  31
HETATM   31  N4  UNL     1      -6.326  27.952  19.827  1.00  0.00    -0.416 N 
ATOM     32  H4  UNL     1      -6.332  27.758  18.826  1.00  0.00     0.153 HD
BRANCH  31  33
HETATM   33  C10 UNL     1      -5.162  27.717  20.551  1.00  0.00     0.114 C 
BRANCH  33  34
HETATM   34  C11 UNL     1      -4.834  26.217  20.411  1.00  0.00     0.021 C 
BRANCH  34  35
HETATM   35  C12 UNL     1      -4.549  25.559  21.726  1.00  0.00     0.029 C 
BRANCH  35  36
HETATM   36  C13 UNL     1      -4.099  26.638  22.710  1.00  0.00     0.229 C 
BRANCH  36  37
HETATM   37  N5  UNL     1      -3.426  26.009  23.802  1.00  0.00    -0.079 N 
ATOM     38  H53 UNL     1      -3.902  26.157  24.691  1.00  0.00     0.274 HD
ATOM     39  H52 UNL     1      -3.498  24.992  23.771  1.00  0.00     0.274 HD
ATOM     40  H51 UNL     1      -2.458  26.331  23.818  1.00  0.00     0.274 HD
ENDBRANCH  36  37
ENDBRANCH  35  36
ENDBRANCH  34  35
ENDBRANCH  33  34
ENDBRANCH  31  33
ENDBRANCH  30  31
ENDBRANCH  15  30
BRANCH  27  41
HETATM   41  N9  UNL     1      -4.986  25.162  28.370  1.00  0.00    -0.297 N 
ATOM     42  H9  UNL     1      -5.834  24.595  28.397  1.00  0.00     0.187 HD
BRANCH  41  43
HETATM   43  N10 UNL     1      -3.827  24.661  28.972  1.00  0.00    -0.272 N 
HETATM   44  C20 UNL     1      -3.429  24.920  30.308  1.00  0.00     0.227 C 
HETATM   45  N11 UNL     1      -4.359  24.721  31.365  1.00  0.00    -0.060 NA
HETATM   46  N12 UNL     1      -2.249  25.322  30.604  1.00  0.00    -0.240 N 
ATOM     47  H12 UNL     1      -1.572  25.464  29.854  1.00  0.00     0.197 HD
ATOM     48  H10 UNL     1      -3.222  24.066  28.407  1.00  0.00     0.189 HD
BRANCH  46  49
HETATM   49  O4  UNL     1      -1.872  25.566  31.888  1.00  0.00    -0.287 OA
ATOM     50  H4  UNL     1      -2.476  25.918  32.530  1.00  0.00     0.244 HD
ENDBRANCH  46  49
ENDBRANCH  41  43
ENDBRANCH  27  41
TORSDOF 10
ENDMDL
MODEL 4
REMARK VINA RESULT: -8.226715212      1.766      1.932
REMARK  10 active torsions:
REMARK  status: ('A' for Active; 'I' for Inactive)
REMARK    1  A    between atoms: C8_15  and  C9_16 
REMARK    2  A    between atoms: C9_16  and  N4_17 
REMARK    3  A    between atoms: N4_17  and  C10_19 
REMARK    4  A    between atoms: C10_19  and  C11_20 
REMARK    5  A    between atoms: C11_20  and  C12_21 
REMARK    6  A    between atoms: C12_21  and  C13_22 
REMARK    7  A    between atoms: C13_22  and  N5_23 
REMARK    8  A    between atoms: C19_38  and  N9_39 
REMARK    9  A    between atoms: N9_39  and  N10_41 
REMARK       I    between atoms: N10_41  and  C20_43 
REMARK   10  A    between atoms: N12_45  and  O4_47 
ROOT
HETATM    1  C1  UNL     1     -12.639  31.049  22.670  1.00  0.00     0.164 C 
HETATM    2  N1  UNL     1     -11.404  31.136  23.436  1.00  0.00    -0.270 N 
HETATM    3  C2  UNL     1     -11.040  32.270  24.057  1.00  0.00     0.330 A 
HETATM    4  O1  UNL     1     -11.826  33.273  23.961  1.00  0.00    -0.246 OA
HETATM    5  N2  UNL     1      -9.909  32.376  24.752  1.00  0.00    -0.293 N 
ATOM      6  H2  UNL     1      -9.673  33.256  25.210  1.00  0.00     0.172 HD
HETATM    7  C3  UNL     1      -9.074  31.321  24.852  1.00  0.00     0.126 A 
HETATM    8  N3  UNL     1      -7.914  31.140  25.510  1.00  0.00    -0.340 N 
ATOM      9  H3  UNL     1      -7.427  31.841  26.068  1.00  0.00     0.167 HD
HETATM   10  C4  UNL     1      -7.511  29.891  25.305  1.00  0.00     0.067 A 
HETATM   11  C5  UNL     1      -8.459  29.252  24.470  1.00  0.00     0.037 A 
HETATM   12  C6  UNL     1      -9.462  30.136  24.192  1.00  0.00     0.091 A 
HETATM   13  C7  UNL     1     -10.613  30.013  23.491  1.00  0.00     0.266 A 
HETATM   14  O2  UNL     1     -11.111  29.070  22.894  1.00  0.00    -0.267 OA
HETATM   15  C8  UNL     1      -8.308  27.961  23.832  1.00  0.00     0.056 C 
HETATM   16  N6  UNL     1      -7.683  26.929  24.369  1.00  0.00    -0.301 N 
ATOM     17  H6  UNL     1      -7.671  26.086  23.795  1.00  0.00     0.186 HD
HETATM   18  N7  UNL     1      -7.032  26.813  25.615  1.00  0.00    -0.283 N 
ATOM     19  H7  UNL     1      -7.154  25.956  26.154  1.00  0.00     0.188 HD
HETATM   20  C14 UNL     1      -6.200  27.859  26.160  1.00  0.00     0.160 A 
HETATM   21  C15 UNL     1      -6.406  29.224  25.974  1.00  0.00     0.109 A 
HETATM   22  C16 UNL     1      -5.391  29.851  26.651  1.00  0.00     0.283 A 
HETATM   23  O3  UNL     1      -5.262  31.086  26.694  1.00  0.00    -0.265 OA
HETATM   24  N8  UNL     1      -4.624  28.883  27.214  1.00  0.00    -0.223 N 
HETATM   25  C17 UNL     1      -3.535  28.940  27.990  1.00  0.00     0.123 A 
HETATM   26  C18 UNL     1      -2.904  27.822  28.490  1.00  0.00     0.052 A 
HETATM   27  C19 UNL     1      -3.400  26.576  28.187  1.00  0.00     0.067 A 
HETATM   28  C21 UNL     1      -4.533  26.544  27.379  1.00  0.00     0.150 A 
HETATM   29  N13 UNL     1      -5.110  27.672  26.920  1.00  0.00    -0.237 N 
ENDROOT
BRANCH  15  30
HETATM   30  C9  UNL     1      -8.738  27.869  22.442  1.00  0.00     0.173 C 
BRANCH  30  31
HETATM   31  N4  UNL     1      -7.778  27.609  21.419  1.00  0.00    -0.416 N 
ATOM     32  H4  UNL     1      -7.871  26.762  20.860  1.00  0.00     0.153 HD
BRANCH  31  33
HETATM   33  C10 UNL     1      -6.719  28.473  21.160  1.00  0.00     0.114 C 
BRANCH  33  34
HETATM   34  C11 UNL     1      -5.545  27.613  20.649  1.00  0.00     0.021 C 
BRANCH  34  35
HETATM   35  C12 UNL     1      -5.372  26.346  21.428  1.00  0.00     0.029 C 
BRANCH  35  36
HETATM   36  C13 UNL     1      -4.011  25.750  21.070  1.00  0.00     0.229 C 
BRANCH  36  37
HETATM   37  N5  UNL     1      -4.015  25.400  19.685  1.00  0.00    -0.079 N 
ATOM     38  H53 UNL     1      -4.529  24.538  19.502  1.00  0.00     0.274 HD
ATOM     39  H52 UNL     1      -4.591  26.029  19.125  1.00  0.00     0.274 HD
ATOM     40  H51 UNL     1      -3.051  25.357  19.357  1.00  0.00     0.274 HD
ENDBRANCH  36  37
ENDBRANCH  35  36
ENDBRANCH  34  35
ENDBRANCH  33  34
ENDBRANCH  31  33
ENDBRANCH  30  31
ENDBRANCH  15  30
BRANCH  27  41
HETATM   41  N9  UNL     1      -2.825  25.351  28.676  1.00  0.00    -0.297 N 
ATOM     42  H9  UNL     1      -3.448  24.579  28.912  1.00  0.00     0.187 HD
BRANCH  41  43
HETATM   43  N10 UNL     1      -1.447  25.175  28.840  1.00  0.00    -0.272 N 
HETATM   44  C20 UNL     1      -0.636  25.908  29.743  1.00  0.00     0.227 C 
HETATM   45  N11 UNL     1      -1.033  26.023  31.103  1.00  0.00    -0.060 NA
HETATM   46  N12 UNL     1       0.456  26.471  29.378  1.00  0.00    -0.240 N 
ATOM     47  H12 UNL     1       0.753  26.392  28.406  1.00  0.00     0.197 HD
ATOM     48  H10 UNL     1      -0.990  24.465  28.268  1.00  0.00     0.189 HD
BRANCH  46  49
HETATM   49  O4  UNL     1       1.231  27.172  30.250  1.00  0.00    -0.287 OA
ATOM     50  H4  UNL     1       1.546  26.790  31.060  1.00  0.00     0.244 HD
ENDBRANCH  46  49
ENDBRANCH  41  43
ENDBRANCH  27  41
TORSDOF 10
ENDMDL
MODEL 5
REMARK VINA RESULT: -8.218268282      2.657      5.109
REMARK  10 active torsions:
REMARK  status: ('A' for Active; 'I' for Inactive)
REMARK    1  A    between atoms: C8_15  and  C9_16 
REMARK    2  A    between atoms: C9_16  and  N4_17 
REMARK    3  A    between atoms: N4_17  and  C10_19 
REMARK    4  A    between atoms: C10_19  and  C11_20 
REMARK    5  A    between atoms: C11_20  and  C12_21 
REMARK    6  A    between atoms: C12_21  and  C13_22 
REMARK    7  A    between atoms: C13_22  and  N5_23 
REMARK    8  A    between atoms: C19_38  and  N9_39 
REMARK    9  A    between atoms: N9_39  and  N10_41 
REMARK       I    between atoms: N10_41  and  C20_43 
REMARK   10  A    between atoms: N12_45  and  O4_47 
ROOT
HETATM    1  C1  UNL     1      -7.645  31.912  21.500  1.00  0.00     0.164 C 
HETATM    2  N1  UNL     1      -7.203  30.721  22.212  1.00  0.00    -0.270 N 
HETATM    3  C2  UNL     1      -7.329  29.496  21.676  1.00  0.00     0.330 A 
HETATM    4  O1  UNL     1      -7.841  29.411  20.510  1.00  0.00    -0.246 OA
HETATM    5  N2  UNL     1      -6.942  28.392  22.315  1.00  0.00    -0.293 N 
ATOM      6  H2  UNL     1      -7.053  27.480  21.869  1.00  0.00     0.172 HD
HETATM    7  C3  UNL     1      -6.404  28.476  23.548  1.00  0.00     0.126 A 
HETATM    8  N3  UNL     1      -5.902  27.549  24.385  1.00  0.00    -0.340 N 
ATOM      9  H3  UNL     1      -5.865  26.544  24.212  1.00  0.00     0.167 HD
HETATM   10  C4  UNL     1      -5.462  28.168  25.475  1.00  0.00     0.067 A 
HETATM   11  C5  UNL     1      -5.707  29.554  25.324  1.00  0.00     0.037 A 
HETATM   12  C6  UNL     1      -6.282  29.767  24.105  1.00  0.00     0.091 A 
HETATM   13  C7  UNL     1      -6.662  30.896  23.462  1.00  0.00     0.266 A 
HETATM   14  O2  UNL     1      -6.601  32.076  23.777  1.00  0.00    -0.267 OA
HETATM   15  C8  UNL     1      -5.578  30.565  26.353  1.00  0.00     0.056 C 
HETATM   16  N6  UNL     1      -4.659  30.555  27.302  1.00  0.00    -0.301 N 
ATOM     17  H6  UNL     1      -4.696  31.344  27.947  1.00  0.00     0.186 HD
HETATM   18  N7  UNL     1      -3.633  29.620  27.559  1.00  0.00    -0.283 N 
ATOM     19  H7  UNL     1      -2.712  29.967  27.827  1.00  0.00     0.188 HD
HETATM   20  C14 UNL     1      -3.833  28.195  27.456  1.00  0.00     0.160 A 
HETATM   21  C15 UNL     1      -4.686  27.571  26.549  1.00  0.00     0.109 A 
HETATM   22  C16 UNL     1      -4.577  26.226  26.798  1.00  0.00     0.283 A 
HETATM   23  O3  UNL     1      -5.211  25.362  26.168  1.00  0.00    -0.265 OA
HETATM   24  N8  UNL     1      -3.688  26.075  27.813  1.00  0.00    -0.223 N 
HETATM   25  C17 UNL     1      -3.203  24.989  28.426  1.00  0.00     0.123 A 
HETATM   26  C18 UNL     1      -2.270  25.046  29.439  1.00  0.00     0.052 A 
HETATM   27  C19 UNL     1      -1.803  26.269  29.857  1.00  0.00     0.067 A 
HETATM   28  C21 UNL     1      -2.323  27.383  29.203  1.00  0.00     0.150 A 
HETATM   29  N13 UNL     1      -3.233  27.266  28.216  1.00  0.00    -0.237 N 
ENDROOT
BRANCH  15  30
HETATM   30  C9  UNL     1      -6.642  31.559  26.425  1.00  0.00     0.173 C 
BRANCH  30  31
HETATM   31  N4  UNL     1      -7.907  31.204  26.979  1.00  0.00    -0.416 N 
ATOM     32  H4  UNL     1      -7.937  30.768  27.900  1.00  0.00     0.153 HD
BRANCH  31  33
HETATM   33  C10 UNL     1      -9.103  31.432  26.304  1.00  0.00     0.114 C 
BRANCH  33  34
HETATM   34  C11 UNL     1      -9.559  30.080  25.719  1.00  0.00     0.021 C 
BRANCH  34  35
HETATM   35  C12 UNL     1     -10.134  30.207  24.342  1.00  0.00     0.029 C 
BRANCH  35  36
HETATM   36  C13 UNL     1     -10.306  28.802  23.767  1.00  0.00     0.229 C 
BRANCH  36  37
HETATM   37  N5  UNL     1      -9.700  27.865  24.658  1.00  0.00    -0.079 N 
ATOM     38  H53 UNL     1      -9.343  28.307  25.505  1.00  0.00     0.274 HD
ATOM     39  H52 UNL     1     -10.381  27.247  25.098  1.00  0.00     0.274 HD
ATOM     40  H51 UNL     1      -8.977  27.354  24.151  1.00  0.00     0.274 HD
ENDBRANCH  36  37
ENDBRANCH  35  36
ENDBRANCH  34  35
ENDBRANCH  33  34
ENDBRANCH  31  33
ENDBRANCH  30  31
ENDBRANCH  15  30
BRANCH  27  41
HETATM   41  N9  UNL     1      -0.817  26.432  30.891  1.00  0.00    -0.297 N 
ATOM     42  H9  UNL     1      -0.680  25.673  31.560  1.00  0.00     0.187 HD
BRANCH  41  43
HETATM   43  N10 UNL     1      -0.038  27.586  31.019  1.00  0.00    -0.272 N 
HETATM   44  C20 UNL     1       1.001  27.764  31.967  1.00  0.00     0.227 C 
HETATM   45  N11 UNL     1       2.011  26.772  32.091  1.00  0.00    -0.060 NA
HETATM   46  N12 UNL     1       1.069  28.800  32.720  1.00  0.00    -0.240 N 
ATOM     47  H12 UNL     1       0.352  29.520  32.637  1.00  0.00     0.197 HD
ATOM     48  H10 UNL     1      -0.231  28.359  30.383  1.00  0.00     0.189 HD
BRANCH  46  49
HETATM   49  O4  UNL     1       2.070  28.966  33.627  1.00  0.00    -0.287 OA
ATOM     50  H4  UNL     1       2.062  29.674  34.260  1.00  0.00     0.244 HD
ENDBRANCH  46  49
ENDBRANCH  41  43
ENDBRANCH  27  41
TORSDOF 10
ENDMDL
