MODEL 1
REMARK VINA RESULT: -8.157581174      0.000      0.000
REMARK  17 active torsions:
REMARK  status: ('A' for Active; 'I' for Inactive)
REMARK    1  A    between atoms: O1_2  and  C2_3 
REMARK    2  A    between atoms: C3_4  and  C4_5 
REMARK    3  A    between atoms: C4_5  and  O2_6 
REMARK    4  A    between atoms: C4_5  and  O3_8 
REMARK    5  A    between atoms: O3_8  and  C5_9 
REMARK    6  A    between atoms: C6_10  and  O4_11 
REMARK    7  A    between atoms: C7_14  and  C8_15 
REMARK    8  A    between atoms: C8_15  and  O6_16 
REMARK    9  A    between atoms: C8_15  and  C9_18 
REMARK   10  A    between atoms: C9_18  and  O7_19 
REMARK   11  A    between atoms: C9_18  and  C10_21 
REMARK   12  A    between atoms: C10_21  and  O8_22 
REMARK   13  A    between atoms: C11_24  and  C12_25 
REMARK   14  A    between atoms: C12_25  and  O9_27 
REMARK   15  A    between atoms: C12_25  and  C14_29 
REMARK   16  A    between atoms: C20_37  and  O12_38 
REMARK   17  A    between atoms: C21_40  and  O13_41 
ROOT
HETATM    1  C5  UNL     1      -6.947  28.367  24.644  1.00  0.00     0.189 C 
HETATM    2  C6  UNL     1      -5.837  29.191  24.011  1.00  0.00     0.286 C 
HETATM    3  O5  UNL     1      -6.092  29.279  22.682  1.00  0.00    -0.350 OA
HETATM    4  C7  UNL     1      -6.823  28.141  22.282  1.00  0.00     0.166 C 
HETATM    5  C11 UNL     1      -7.762  27.994  23.432  1.00  0.00     0.096 C 
ENDROOT
BRANCH   1   6
HETATM    6  O3  UNL     1      -6.435  27.216  25.218  1.00  0.00    -0.350 OA
BRANCH   6   7
HETATM    7  C4  UNL     1      -6.270  27.242  26.578  1.00  0.00     0.264 C 
BRANCH   7   8
HETATM    8  C3  UNL     1      -5.040  26.514  27.079  1.00  0.00     0.070 C 
HETATM    9  C2  UNL     1      -4.068  27.343  27.813  1.00  0.00     0.134 C 
HETATM   10  C23 UNL     1      -3.505  26.807  29.058  1.00  0.00     0.026 C 
HETATM   11  C17 UNL     1      -3.387  25.334  29.222  1.00  0.00    -0.035 C 
HETATM   12  C22 UNL     1      -2.181  27.519  29.295  1.00  0.00     0.042 C 
HETATM   13  C16 UNL     1      -4.284  24.561  28.287  1.00  0.00     0.010 C 
HETATM   14  C18 UNL     1      -3.762  24.893  30.616  1.00  0.00     0.016 C 
HETATM   15  C19 UNL     1      -1.967  24.916  28.979  1.00  0.00     0.044 C 
HETATM   16  C15 UNL     1      -5.518  25.391  27.961  1.00  0.00     0.013 C 
HETATM   17  C20 UNL     1      -1.029  25.455  30.033  1.00  0.00     0.147 C 
HETATM   18  C21 UNL     1      -1.378  26.860  30.395  1.00  0.00     0.147 C 
BRANCH   9  19
HETATM   19  O1  UNL     1      -3.000  27.750  26.963  1.00  0.00    -0.390 OA
HETATM   20  C1  UNL     1      -3.032  27.107  25.737  1.00  0.00     0.202 C 
ENDBRANCH   9  19
BRANCH  17  21
HETATM   21  O12 UNL     1       0.253  25.440  29.451  1.00  0.00    -0.393 OA
ATOM     22  H12 UNL     1       0.200  24.833  28.723  1.00  0.00     0.210 HD
ENDBRANCH  17  21
BRANCH  18  23
HETATM   23  O13 UNL     1      -0.185  27.629  30.508  1.00  0.00    -0.393 OA
ATOM     24  H13 UNL     1      -0.353  28.392  31.049  1.00  0.00     0.210 HD
ENDBRANCH  18  23
ENDBRANCH   7   8
BRANCH   7  25
HETATM   25  O2  UNL     1      -5.960  28.619  26.862  1.00  0.00    -0.371 OA
ATOM     26  H2  UNL     1      -5.675  28.586  27.767  1.00  0.00     0.212 HD
ENDBRANCH   7  25
ENDBRANCH   6   7
ENDBRANCH   1   6
BRANCH   2  27
HETATM   27  O4  UNL     1      -5.732  30.458  24.580  1.00  0.00    -0.369 OA
ATOM     28  H4  UNL     1      -6.066  31.137  24.007  1.00  0.00     0.212 HD
ENDBRANCH   2  27
BRANCH   5  29
HETATM   29  C12 UNL     1      -9.045  28.790  23.311  1.00  0.00     0.150 C 
HETATM   30  C13 UNL     1      -9.321  29.517  24.602  1.00  0.00     0.058 C 
BRANCH  29  31
HETATM   31  O9  UNL     1      -8.760  29.815  22.360  1.00  0.00    -0.379 OA
ATOM     32  H9  UNL     1      -8.623  30.601  22.876  1.00  0.00     0.211 HD
ENDBRANCH  29  31
BRANCH  29  33
HETATM   33  C14 UNL     1     -10.211  28.037  22.843  1.00  0.00     0.209 C 
HETATM   34  O10 UNL     1     -10.613  28.145  21.668  1.00  0.00    -0.646 OA
HETATM   35  O11 UNL     1     -10.896  27.185  23.695  1.00  0.00    -0.646 OA
ENDBRANCH  29  33
ENDBRANCH   5  29
BRANCH   4  36
HETATM   36  C8  UNL     1      -5.887  26.967  22.132  1.00  0.00     0.178 C 
BRANCH  36  37
HETATM   37  O6  UNL     1      -4.655  27.263  22.788  1.00  0.00    -0.390 OA
ATOM     38  H6  UNL     1      -4.535  26.661  23.512  1.00  0.00     0.210 HD
ENDBRANCH  36  37
BRANCH  36  39
HETATM   39  C9  UNL     1      -5.454  26.675  20.717  1.00  0.00     0.172 C 
BRANCH  39  40
HETATM   40  O7  UNL     1      -5.432  27.710  19.843  1.00  0.00    -0.391 OA
ATOM     41  H7  UNL     1      -5.458  27.503  18.916  1.00  0.00     0.210 HD
ENDBRANCH  39  40
BRANCH  39  42
HETATM   42  C10 UNL     1      -4.224  25.777  20.658  1.00  0.00     0.198 C 
BRANCH  42  43
HETATM   43  O8  UNL     1      -4.195  24.997  19.530  1.00  0.00    -0.398 OA
ATOM     44  H8  UNL     1      -4.524  24.119  19.686  1.00  0.00     0.209 HD
ENDBRANCH  42  43
ENDBRANCH  39  42
ENDBRANCH  36  39
ENDBRANCH   4  36
TORSDOF 17
ENDMDL
MODEL 2
REMARK VINA RESULT: -7.898408558      2.113      8.775
REMARK  17 active torsions:
REMARK  status: ('A' for Active; 'I' for Inactive)
REMARK    1  A    between atoms: O1_2  and  C2_3 
REMARK    2  A    between atoms: C3_4  and  C4_5 
REMARK    3  A    between atoms: C4_5  and  O2_6 
REMARK    4  A    between atoms: C4_5  and  O3_8 
REMARK    5  A    between atoms: O3_8  and  C5_9 
REMARK    6  A    between atoms: C6_10  and  O4_11 
REMARK    7  A    between atoms: C7_14  and  C8_15 
REMARK    8  A    between atoms: C8_15  and  O6_16 
REMARK    9  A    between atoms: C8_15  and  C9_18 
REMARK   10  A    between atoms: C9_18  and  O7_19 
REMARK   11  A    between atoms: C9_18  and  C10_21 
REMARK   12  A    between atoms: C10_21  and  O8_22 
REMARK   13  A    between atoms: C11_24  and  C12_25 
REMARK   14  A    between atoms: C12_25  and  O9_27 
REMARK   15  A    between atoms: C12_25  and  C14_29 
REMARK   16  A    between atoms: C20_37  and  O12_38 
REMARK   17  A    between atoms: C21_40  and  O13_41 
ROOT
HETATM    1  C5  UNL     1      -2.989  26.671  27.706  1.00  0.00     0.189 C 
HETATM    2  C6  UNL     1      -4.312  26.951  28.403  1.00  0.00     0.286 C 
HETATM    3  O5  UNL     1      -4.257  26.393  29.637  1.00  0.00    -0.350 OA
HETATM    4  C7  UNL     1      -3.380  25.290  29.600  1.00  0.00     0.166 C 
HETATM    5  C11 UNL     1      -2.285  25.831  28.742  1.00  0.00     0.096 C 
ENDROOT
BRANCH   1   6
HETATM    6  O3  UNL     1      -3.189  25.911  26.566  1.00  0.00    -0.350 OA
BRANCH   6   7
HETATM    7  C4  UNL     1      -3.018  26.560  25.372  1.00  0.00     0.264 C 
BRANCH   7   8
HETATM    8  C3  UNL     1      -4.227  26.536  24.460  1.00  0.00     0.070 C 
HETATM    9  C2  UNL     1      -4.951  27.812  24.334  1.00  0.00     0.134 C 
HETATM   10  C23 UNL     1      -5.359  28.244  22.992  1.00  0.00     0.026 C 
HETATM   11  C17 UNL     1      -5.632  27.214  21.954  1.00  0.00    -0.035 C 
HETATM   12  C22 UNL     1      -6.526  29.206  23.166  1.00  0.00     0.042 C 
HETATM   13  C16 UNL     1      -5.007  25.877  22.269  1.00  0.00     0.010 C 
HETATM   14  C18 UNL     1      -5.086  27.620  20.605  1.00  0.00     0.016 C 
HETATM   15  C19 UNL     1      -7.112  27.030  21.808  1.00  0.00     0.044 C 
HETATM   16  C15 UNL     1      -3.752  26.085  23.105  1.00  0.00     0.013 C 
HETATM   17  C20 UNL     1      -7.786  28.263  21.254  1.00  0.00     0.147 C 
HETATM   18  C21 UNL     1      -7.209  29.504  21.849  1.00  0.00     0.147 C 
BRANCH   9  19
HETATM   19  O1  UNL     1      -6.087  27.841  25.192  1.00  0.00    -0.390 OA
HETATM   20  C1  UNL     1      -6.527  26.571  25.524  1.00  0.00     0.202 C 
ENDBRANCH   9  19
BRANCH  17  21
HETATM   21  O12 UNL     1      -9.139  28.164  21.630  1.00  0.00    -0.393 OA
ATOM     22  H12 UNL     1      -9.641  28.353  20.846  1.00  0.00     0.210 HD
ENDBRANCH  17  21
BRANCH  18  23
HETATM   23  O13 UNL     1      -8.261  30.411  22.162  1.00  0.00    -0.393 OA
ATOM     24  H13 UNL     1      -8.395  30.424  23.102  1.00  0.00     0.210 HD
ENDBRANCH  18  23
ENDBRANCH   7   8
BRANCH   7  25
HETATM   25  O2  UNL     1      -2.929  27.949  25.742  1.00  0.00    -0.371 OA
ATOM     26  H2  UNL     1      -2.512  28.341  24.985  1.00  0.00     0.212 HD
ENDBRANCH   7  25
ENDBRANCH   6   7
ENDBRANCH   1   6
BRANCH   2  27
HETATM   27  O4  UNL     1      -4.583  28.315  28.487  1.00  0.00    -0.369 OA
ATOM     28  H4  UNL     1      -3.916  28.784  28.973  1.00  0.00     0.212 HD
ENDBRANCH   2  27
BRANCH   5  29
HETATM   29  C12 UNL     1      -1.209  26.590  29.490  1.00  0.00     0.150 C 
HETATM   30  C13 UNL     1      -1.335  28.066  29.212  1.00  0.00     0.058 C 
BRANCH  29  31
HETATM   31  O9  UNL     1      -1.538  26.443  30.870  1.00  0.00    -0.379 OA
ATOM     32  H9  UNL     1      -1.252  25.567  31.101  1.00  0.00     0.211 HD
ENDBRANCH  29  31
BRANCH  29  33
HETATM   33  C14 UNL     1       0.159  26.106  29.286  1.00  0.00     0.209 C 
HETATM   34  O10 UNL     1       0.506  24.981  29.696  1.00  0.00    -0.646 OA
HETATM   35  O11 UNL     1       1.099  26.886  28.632  1.00  0.00    -0.646 OA
ENDBRANCH  29  33
ENDBRANCH   5  29
BRANCH   4  36
HETATM   36  C8  UNL     1      -4.083  24.107  28.980  1.00  0.00     0.178 C 
BRANCH  36  37
HETATM   37  O6  UNL     1      -5.362  24.519  28.504  1.00  0.00    -0.390 OA
ATOM     38  H6  UNL     1      -5.286  25.378  28.107  1.00  0.00     0.210 HD
ENDBRANCH  36  37
BRANCH  36  39
HETATM   39  C9  UNL     1      -4.422  22.994  29.940  1.00  0.00     0.172 C 
BRANCH  39  40
HETATM   40  O7  UNL     1      -3.890  21.772  29.696  1.00  0.00    -0.391 OA
ATOM     41  H7  UNL     1      -2.994  21.620  29.974  1.00  0.00     0.210 HD
ENDBRANCH  39  40
BRANCH  39  42
HETATM   42  C10 UNL     1      -4.337  23.436  31.397  1.00  0.00     0.198 C 
BRANCH  42  43
HETATM   43  O8  UNL     1      -5.358  24.282  31.751  1.00  0.00    -0.398 OA
ATOM     44  H8  UNL     1      -5.046  25.144  32.002  1.00  0.00     0.209 HD
ENDBRANCH  42  43
ENDBRANCH  39  42
ENDBRANCH  36  39
ENDBRANCH   4  36
TORSDOF 17
ENDMDL
MODEL 3
REMARK VINA RESULT: -7.776902327      0.902      1.387
REMARK  17 active torsions:
REMARK  status: ('A' for Active; 'I' for Inactive)
REMARK    1  A    between atoms: O1_2  and  C2_3 
REMARK    2  A    between atoms: C3_4  and  C4_5 
REMARK    3  A    between atoms: C4_5  and  O2_6 
REMARK    4  A    between atoms: C4_5  and  O3_8 
REMARK    5  A    between atoms: O3_8  and  C5_9 
REMARK    6  A    between atoms: C6_10  and  O4_11 
REMARK    7  A    between atoms: C7_14  and  C8_15 
REMARK    8  A    between atoms: C8_15  and  O6_16 
REMARK    9  A    between atoms: C8_15  and  C9_18 
REMARK   10  A    between atoms: C9_18  and  O7_19 
REMARK   11  A    between atoms: C9_18  and  C10_21 
REMARK   12  A    between atoms: C10_21  and  O8_22 
REMARK   13  A    between atoms: C11_24  and  C12_25 
REMARK   14  A    between atoms: C12_25  and  O9_27 
REMARK   15  A    between atoms: C12_25  and  C14_29 
REMARK   16  A    between atoms: C20_37  and  O12_38 
REMARK   17  A    between atoms: C21_40  and  O13_41 
ROOT
HETATM    1  C5  UNL     1      -6.895  29.027  24.360  1.00  0.00     0.189 C 
HETATM    2  C6  UNL     1      -6.333  29.804  23.179  1.00  0.00     0.286 C 
HETATM    3  O5  UNL     1      -6.849  29.266  22.046  1.00  0.00    -0.350 OA
HETATM    4  C7  UNL     1      -7.143  27.907  22.280  1.00  0.00     0.166 C 
HETATM    5  C11 UNL     1      -7.715  27.976  23.656  1.00  0.00     0.096 C 
ENDROOT
BRANCH   1   6
HETATM    6  O3  UNL     1      -5.876  28.409  25.067  1.00  0.00    -0.350 OA
BRANCH   6   7
HETATM    7  C4  UNL     1      -6.266  27.490  26.005  1.00  0.00     0.264 C 
BRANCH   7   8
HETATM    8  C3  UNL     1      -5.134  26.684  26.608  1.00  0.00     0.070 C 
HETATM    9  C2  UNL     1      -4.092  27.467  27.293  1.00  0.00     0.134 C 
HETATM   10  C23 UNL     1      -3.618  26.992  28.599  1.00  0.00     0.026 C 
HETATM   11  C17 UNL     1      -3.666  25.536  28.898  1.00  0.00    -0.035 C 
HETATM   12  C22 UNL     1      -2.229  27.576  28.811  1.00  0.00     0.042 C 
HETATM   13  C16 UNL     1      -4.624  24.781  28.010  1.00  0.00     0.010 C 
HETATM   14  C18 UNL     1      -4.116  25.270  30.314  1.00  0.00     0.016 C 
HETATM   15  C19 UNL     1      -2.297  24.947  28.737  1.00  0.00     0.044 C 
HETATM   16  C15 UNL     1      -5.751  25.706  27.572  1.00  0.00     0.013 C 
HETATM   17  C20 UNL     1      -1.327  25.477  29.767  1.00  0.00     0.147 C 
HETATM   18  C21 UNL     1      -1.527  26.939  29.990  1.00  0.00     0.147 C 
BRANCH   9  19
HETATM   19  O1  UNL     1      -2.969  27.676  26.444  1.00  0.00    -0.390 OA
HETATM   20  C1  UNL     1      -2.968  26.818  25.356  1.00  0.00     0.202 C 
ENDBRANCH   9  19
BRANCH  17  21
HETATM   21  O12 UNL     1      -0.043  25.270  29.229  1.00  0.00    -0.393 OA
ATOM     22  H12 UNL     1       0.541  25.831  29.725  1.00  0.00     0.210 HD
ENDBRANCH  17  21
BRANCH  18  23
HETATM   23  O13 UNL     1      -0.258  27.582  30.070  1.00  0.00    -0.393 OA
ATOM     24  H13 UNL     1      -0.384  28.502  30.270  1.00  0.00     0.210 HD
ENDBRANCH  18  23
ENDBRANCH   7   8
BRANCH   7  25
HETATM   25  O2  UNL     1      -6.706  28.295  27.115  1.00  0.00    -0.371 OA
ATOM     26  H2  UNL     1      -7.646  28.159  27.111  1.00  0.00     0.212 HD
ENDBRANCH   7  25
ENDBRANCH   6   7
ENDBRANCH   1   6
BRANCH   2  27
HETATM   27  O4  UNL     1      -6.622  31.163  23.259  1.00  0.00    -0.369 OA
ATOM     28  H4  UNL     1      -7.239  31.439  22.591  1.00  0.00     0.212 HD
ENDBRANCH   2  27
BRANCH   5  29
HETATM   29  C12 UNL     1      -9.203  28.248  23.712  1.00  0.00     0.150 C 
HETATM   30  C13 UNL     1      -9.833  27.934  22.379  1.00  0.00     0.058 C 
BRANCH  29  31
HETATM   31  O9  UNL     1      -9.728  27.273  24.611  1.00  0.00    -0.379 OA
ATOM     32  H9  UNL     1     -10.604  27.575  24.822  1.00  0.00     0.211 HD
ENDBRANCH  29  31
BRANCH  29  33
HETATM   33  C14 UNL     1      -9.581  29.578  24.200  1.00  0.00     0.209 C 
HETATM   34  O10 UNL     1      -9.840  29.766  25.404  1.00  0.00    -0.646 OA
HETATM   35  O11 UNL     1      -9.658  30.657  23.334  1.00  0.00    -0.646 OA
ENDBRANCH  29  33
ENDBRANCH   5  29
BRANCH   4  36
HETATM   36  C8  UNL     1      -5.871  27.097  22.210  1.00  0.00     0.178 C 
BRANCH  36  37
HETATM   37  O6  UNL     1      -4.772  27.916  22.602  1.00  0.00    -0.390 OA
ATOM     38  H6  UNL     1      -4.028  27.731  22.041  1.00  0.00     0.210 HD
ENDBRANCH  36  37
BRANCH  36  39
HETATM   39  C9  UNL     1      -5.479  26.646  20.825  1.00  0.00     0.172 C 
BRANCH  39  40
HETATM   40  O7  UNL     1      -5.404  27.591  19.856  1.00  0.00    -0.391 OA
ATOM     41  H7  UNL     1      -6.004  27.518  19.124  1.00  0.00     0.210 HD
ENDBRANCH  39  40
BRANCH  39  42
HETATM   42  C10 UNL     1      -4.309  25.668  20.841  1.00  0.00     0.198 C 
BRANCH  42  43
HETATM   43  O8  UNL     1      -4.181  24.983  19.659  1.00  0.00    -0.398 OA
ATOM     44  H8  UNL     1      -4.342  25.532  18.901  1.00  0.00     0.209 HD
ENDBRANCH  42  43
ENDBRANCH  39  42
ENDBRANCH  36  39
ENDBRANCH   4  36
TORSDOF 17
ENDMDL
MODEL 4
REMARK VINA RESULT: -7.631643180      1.388      3.443
REMARK  17 active torsions:
REMARK  status: ('A' for Active; 'I' for Inactive)
REMARK    1  A    between atoms: O1_2  and  C2_3 
REMARK    2  A    between atoms: C3_4  and  C4_5 
REMARK    3  A    between atoms: C4_5  and  O2_6 
REMARK    4  A    between atoms: C4_5  and  O3_8 
REMARK    5  A    between atoms: O3_8  and  C5_9 
REMARK    6  A    between atoms: C6_10  and  O4_11 
REMARK    7  A    between atoms: C7_14  and  C8_15 
REMARK    8  A    between atoms: C8_15  and  O6_16 
REMARK    9  A    between atoms: C8_15  and  C9_18 
REMARK   10  A    between atoms: C9_18  and  O7_19 
REMARK   11  A    between atoms: C9_18  and  C10_21 
REMARK   12  A    between atoms: C10_21  and  O8_22 
REMARK   13  A    between atoms: C11_24  and  C12_25 
REMARK   14  A    between atoms: C12_25  and  O9_27 
REMARK   15  A    between atoms: C12_25  and  C14_29 
REMARK   16  A    between atoms: C20_37  and  O12_38 
REMARK   17  A    between atoms: C21_40  and  O13_41 
ROOT
HETATM    1  C5  UNL     1      -7.094  27.748  24.480  1.00  0.00     0.189 C 
HETATM    2  C6  UNL     1      -8.535  28.233  24.502  1.00  0.00     0.286 C 
HETATM    3  O5  UNL     1      -8.727  29.014  23.411  1.00  0.00    -0.350 OA
HETATM    4  C7  UNL     1      -7.497  29.601  23.049  1.00  0.00     0.166 C 
HETATM    5  C11 UNL     1      -6.567  28.454  23.256  1.00  0.00     0.096 C 
ENDROOT
BRANCH   1   6
HETATM    6  O3  UNL     1      -6.409  28.202  25.595  1.00  0.00    -0.350 OA
BRANCH   6   7
HETATM    7  C4  UNL     1      -6.499  27.422  26.717  1.00  0.00     0.264 C 
BRANCH   7   8
HETATM    8  C3  UNL     1      -5.223  26.695  27.087  1.00  0.00     0.070 C 
HETATM    9  C2  UNL     1      -4.252  27.479  27.870  1.00  0.00     0.134 C 
HETATM   10  C23 UNL     1      -3.617  26.834  29.026  1.00  0.00     0.026 C 
HETATM   11  C17 UNL     1      -3.437  25.358  29.020  1.00  0.00    -0.035 C 
HETATM   12  C22 UNL     1      -2.311  27.570  29.288  1.00  0.00     0.042 C 
HETATM   13  C16 UNL     1      -4.344  24.655  28.041  1.00  0.00     0.010 C 
HETATM   14  C18 UNL     1      -3.735  24.752  30.371  1.00  0.00     0.016 C 
HETATM   15  C19 UNL     1      -2.015  25.028  28.678  1.00  0.00     0.044 C 
HETATM   16  C15 UNL     1      -5.621  25.464  27.857  1.00  0.00     0.013 C 
HETATM   17  C20 UNL     1      -1.052  25.488  29.748  1.00  0.00     0.147 C 
HETATM   18  C21 UNL     1      -1.438  26.829  30.276  1.00  0.00     0.147 C 
BRANCH   9  19
HETATM   19  O1  UNL     1      -3.238  28.019  27.030  1.00  0.00    -0.390 OA
HETATM   20  C1  UNL     1      -3.176  27.380  25.803  1.00  0.00     0.202 C 
ENDBRANCH   9  19
BRANCH  17  21
HETATM   21  O12 UNL     1       0.202  25.589  29.119  1.00  0.00    -0.393 OA
ATOM     22  H12 UNL     1       0.846  25.407  29.793  1.00  0.00     0.210 HD
ENDBRANCH  17  21
BRANCH  18  23
HETATM   23  O13 UNL     1      -0.270  27.630  30.428  1.00  0.00    -0.393 OA
ATOM     24  H13 UNL     1      -0.477  28.531  30.214  1.00  0.00     0.210 HD
ENDBRANCH  18  23
ENDBRANCH   7   8
BRANCH   7  25
HETATM   25  O2  UNL     1      -6.644  28.373  27.789  1.00  0.00    -0.371 OA
ATOM     26  H2  UNL     1      -5.917  28.966  27.641  1.00  0.00     0.212 HD
ENDBRANCH   7  25
ENDBRANCH   6   7
ENDBRANCH   1   6
BRANCH   2  27
HETATM   27  O4  UNL     1      -9.444  27.178  24.524  1.00  0.00    -0.369 OA
ATOM     28  H4  UNL     1     -10.205  27.349  23.981  1.00  0.00     0.212 HD
ENDBRANCH   2  27
BRANCH   5  29
HETATM   29  C12 UNL     1      -6.415  27.535  22.061  1.00  0.00     0.150 C 
HETATM   30  C13 UNL     1      -5.335  26.519  22.330  1.00  0.00     0.058 C 
BRANCH  29  31
HETATM   31  O9  UNL     1      -7.627  26.786  22.009  1.00  0.00    -0.379 OA
ATOM     32  H9  UNL     1      -7.365  25.881  22.127  1.00  0.00     0.211 HD
ENDBRANCH  29  31
BRANCH  29  33
HETATM   33  C14 UNL     1      -6.230  28.207  20.772  1.00  0.00     0.209 C 
HETATM   34  O10 UNL     1      -5.094  28.332  20.274  1.00  0.00    -0.646 OA
HETATM   35  O11 UNL     1      -7.313  28.719  20.076  1.00  0.00    -0.646 OA
ENDBRANCH  29  33
ENDBRANCH   5  29
BRANCH   4  36
HETATM   36  C8  UNL     1      -7.207  30.767  23.962  1.00  0.00     0.178 C 
BRANCH  36  37
HETATM   37  O6  UNL     1      -7.773  31.952  23.404  1.00  0.00    -0.390 OA
ATOM     38  H6  UNL     1      -7.952  31.808  22.482  1.00  0.00     0.210 HD
ENDBRANCH  36  37
BRANCH  36  39
HETATM   39  C9  UNL     1      -5.748  31.122  24.098  1.00  0.00     0.172 C 
BRANCH  39  40
HETATM   40  O7  UNL     1      -5.194  31.883  23.123  1.00  0.00    -0.391 OA
ATOM     41  H7  UNL     1      -4.616  32.587  23.391  1.00  0.00     0.210 HD
ENDBRANCH  39  40
BRANCH  39  42
HETATM   42  C10 UNL     1      -5.383  31.554  25.514  1.00  0.00     0.198 C 
BRANCH  42  43
HETATM   43  O8  UNL     1      -4.862  30.526  26.260  1.00  0.00    -0.398 OA
ATOM     44  H8  UNL     1      -4.261  29.984  25.762  1.00  0.00     0.209 HD
ENDBRANCH  42  43
ENDBRANCH  39  42
ENDBRANCH  36  39
ENDBRANCH   4  36
TORSDOF 17
ENDMDL
MODEL 5
REMARK VINA RESULT: -7.443366255      1.524      3.529
REMARK  17 active torsions:
REMARK  status: ('A' for Active; 'I' for Inactive)
REMARK    1  A    between atoms: O1_2  and  C2_3 
REMARK    2  A    between atoms: C3_4  and  C4_5 
REMARK    3  A    between atoms: C4_5  and  O2_6 
REMARK    4  A    between atoms: C4_5  and  O3_8 
REMARK    5  A    between atoms: O3_8  and  C5_9 
REMARK    6  A    between atoms: C6_10  and  O4_11 
REMARK    7  A    between atoms: C7_14  and  C8_15 
REMARK    8  A    between atoms: C8_15  and  O6_16 
REMARK    9  A    between atoms: C8_15  and  C9_18 
REMARK   10  A    between atoms: C9_18  and  O7_19 
REMARK   11  A    between atoms: C9_18  and  C10_21 
REMARK   12  A    between atoms: C10_21  and  O8_22 
REMARK   13  A    between atoms: C11_24  and  C12_25 
REMARK   14  A    between atoms: C12_25  and  O9_27 
REMARK   15  A    between atoms: C12_25  and  C14_29 
REMARK   16  A    between atoms: C20_37  and  O12_38 
REMARK   17  A    between atoms: C21_40  and  O13_41 
ROOT
HETATM    1  C5  UNL     1      -7.036  28.498  24.684  1.00  0.00     0.189 C 
HETATM    2  C6  UNL     1      -8.226  29.402  24.969  1.00  0.00     0.286 C 
HETATM    3  O5  UNL     1      -8.214  30.404  24.057  1.00  0.00    -0.350 OA
HETATM    4  C7  UNL     1      -6.885  30.630  23.645  1.00  0.00     0.166 C 
HETATM    5  C11 UNL     1      -6.383  29.229  23.538  1.00  0.00     0.096 C 
ENDROOT
BRANCH   1   6
HETATM    6  O3  UNL     1      -6.168  28.479  25.763  1.00  0.00    -0.350 OA
BRANCH   6   7
HETATM    7  C4  UNL     1      -6.375  27.488  26.685  1.00  0.00     0.264 C 
BRANCH   7   8
HETATM    8  C3  UNL     1      -5.128  26.728  27.088  1.00  0.00     0.070 C 
HETATM    9  C2  UNL     1      -4.131  27.503  27.846  1.00  0.00     0.134 C 
HETATM   10  C23 UNL     1      -3.525  26.878  29.028  1.00  0.00     0.026 C 
HETATM   11  C17 UNL     1      -3.400  25.397  29.077  1.00  0.00    -0.035 C 
HETATM   12  C22 UNL     1      -2.193  27.574  29.270  1.00  0.00     0.042 C 
HETATM   13  C16 UNL     1      -4.330  24.693  28.120  1.00  0.00     0.010 C 
HETATM   14  C18 UNL     1      -3.726  24.852  30.447  1.00  0.00     0.016 C 
HETATM   15  C19 UNL     1      -1.990  25.002  28.754  1.00  0.00     0.044 C 
HETATM   16  C15 UNL     1      -5.575  25.542  27.900  1.00  0.00     0.013 C 
HETATM   17  C20 UNL     1      -1.015  25.464  29.812  1.00  0.00     0.147 C 
HETATM   18  C21 UNL     1      -1.352  26.837  30.289  1.00  0.00     0.147 C 
BRANCH   9  19
HETATM   19  O1  UNL     1      -3.095  27.975  26.992  1.00  0.00    -0.390 OA
HETATM   20  C1  UNL     1      -3.056  27.293  25.787  1.00  0.00     0.202 C 
ENDBRANCH   9  19
BRANCH  17  21
HETATM   21  O12 UNL     1       0.245  25.496  29.186  1.00  0.00    -0.393 OA
ATOM     22  H12 UNL     1       0.417  26.410  28.994  1.00  0.00     0.210 HD
ENDBRANCH  17  21
BRANCH  18  23
HETATM   23  O13 UNL     1      -0.156  27.599  30.418  1.00  0.00    -0.393 OA
ATOM     24  H13 UNL     1      -0.354  28.519  30.293  1.00  0.00     0.210 HD
ENDBRANCH  18  23
ENDBRANCH   7   8
BRANCH   7  25
HETATM   25  O2  UNL     1      -6.713  28.202  27.890  1.00  0.00    -0.371 OA
ATOM     26  H2  UNL     1      -7.050  27.515  28.451  1.00  0.00     0.212 HD
ENDBRANCH   7  25
ENDBRANCH   6   7
ENDBRANCH   1   6
BRANCH   2  27
HETATM   27  O4  UNL     1      -9.433  28.709  24.930  1.00  0.00    -0.369 OA
ATOM     28  H4  UNL     1     -10.182  29.293  24.933  1.00  0.00     0.212 HD
ENDBRANCH   2  27
BRANCH   5  29
HETATM   29  C12 UNL     1      -6.626  28.567  22.197  1.00  0.00     0.150 C 
HETATM   30  C13 UNL     1      -7.771  27.592  22.307  1.00  0.00     0.058 C 
BRANCH  29  31
HETATM   31  O9  UNL     1      -7.105  29.609  21.348  1.00  0.00    -0.379 OA
ATOM     32  H9  UNL     1      -6.325  30.017  20.992  1.00  0.00     0.211 HD
ENDBRANCH  29  31
BRANCH  29  33
HETATM   33  C14 UNL     1      -5.447  27.964  21.571  1.00  0.00     0.209 C 
HETATM   34  O10 UNL     1      -5.233  28.097  20.350  1.00  0.00    -0.646 OA
HETATM   35  O11 UNL     1      -4.542  27.230  22.320  1.00  0.00    -0.646 OA
ENDBRANCH  29  33
ENDBRANCH   5  29
BRANCH   4  36
HETATM   36  C8  UNL     1      -6.161  31.436  24.695  1.00  0.00     0.178 C 
BRANCH  36  37
HETATM   37  O6  UNL     1      -7.117  32.139  25.487  1.00  0.00    -0.390 OA
ATOM     38  H6  UNL     1      -7.985  31.804  25.299  1.00  0.00     0.210 HD
ENDBRANCH  36  37
BRANCH  36  39
HETATM   39  C9  UNL     1      -5.288  32.543  24.159  1.00  0.00     0.172 C 
BRANCH  39  40
HETATM   40  O7  UNL     1      -4.167  32.850  24.856  1.00  0.00    -0.391 OA
ATOM     41  H7  UNL     1      -3.340  32.520  24.524  1.00  0.00     0.210 HD
ENDBRANCH  39  40
BRANCH  39  42
HETATM   42  C10 UNL     1      -5.082  32.442  22.651  1.00  0.00     0.198 C 
BRANCH  42  43
HETATM   43  O8  UNL     1      -3.836  32.863  22.262  1.00  0.00    -0.398 OA
ATOM     44  H8  UNL     1      -3.523  32.409  21.488  1.00  0.00     0.209 HD
ENDBRANCH  42  43
ENDBRANCH  39  42
ENDBRANCH  36  39
ENDBRANCH   4  36
TORSDOF 17
ENDMDL
