MODEL 1
REMARK VINA RESULT: -8.316840859      0.000      0.000
REMARK  9 active torsions:
REMARK  status: ('A' for Active; 'I' for Inactive)
REMARK    1  A    between atoms: N1_1  and  N2_4 
REMARK    2  A    between atoms: C1_5  and  N3_6 
REMARK       I    between atoms: N3_6  and  C2_8 
REMARK    3  A    between atoms: C2_8  and  C3_10 
REMARK    4  A    between atoms: C3_10  and  O2_11 
REMARK    5  A    between atoms: C3_10  and  C4_13 
REMARK    6  A    between atoms: C4_13  and  O3_14 
REMARK    7  A    between atoms: C5_16  and  O4_17 
REMARK    8  A    between atoms: C5_16  and  O5_19 
REMARK    9  A    between atoms: C6_21  and  N4_22 
ROOT
HETATM    1  N2  UNL     1       6.587   8.056  53.357  1.00  0.00    -0.179 NA
HETATM    2  C1  UNL     1       6.386   9.117  54.321  1.00  0.00     0.247 A 
HETATM    3  C5  UNL     1       7.129  10.061  53.447  1.00  0.00     0.232 A 
HETATM    4  C6  UNL     1       7.219   8.939  52.417  1.00  0.00     0.254 A 
ENDROOT
BRANCH   4   5
HETATM    5  N4  UNL     1       6.460   9.182  51.208  1.00  0.00    -0.302 N 
HETATM    6  C7  UNL     1       6.939   9.739  50.085  1.00  0.00     0.187 A 
HETATM    7  N5  UNL     1       5.942   9.804  49.171  1.00  0.00    -0.345 N 
HETATM    8  C8  UNL     1       4.842   9.286  49.728  1.00  0.00     0.146 A 
ATOM      9  H5  UNL     1       6.017  10.180  48.226  1.00  0.00     0.167 HD
HETATM   10  C9  UNL     1       3.542   9.100  49.253  1.00  0.00     0.277 A 
HETATM   11  C11 UNL     1       5.162   8.888  51.023  1.00  0.00     0.143 A 
HETATM   12  O6  UNL     1       3.236   9.456  48.079  1.00  0.00    -0.266 OA
HETATM   13  N6  UNL     1       2.604   8.546  50.027  1.00  0.00    -0.318 N 
HETATM   14  C10 UNL     1       2.933   8.167  51.282  1.00  0.00     0.185 A 
ATOM     15  H6  UNL     1       1.656   8.412  49.676  1.00  0.00     0.169 HD
HETATM   16  N7  UNL     1       4.180   8.337  51.758  1.00  0.00    -0.336 N 
ATOM     17  H7  UNL     1       4.389   8.037  52.711  1.00  0.00     0.168 HD
ENDBRANCH   4   5
BRANCH   1  18
HETATM   18  N1  UNL     1       7.378   7.050  53.888  1.00  0.00    -0.359 NA
ATOM     19  H12 UNL     1       7.941   6.517  53.226  1.00  0.00     0.171 HD
ATOM     20  H11 UNL     1       8.200   7.438  54.349  1.00  0.00     0.171 HD
ENDBRANCH   1  18
BRANCH   3  21
HETATM   21  O4  UNL     1       6.420  11.182  53.001  1.00  0.00    -0.360 OA
ATOM     22  H4  UNL     1       6.929  11.969  52.851  1.00  0.00     0.213 HD
ENDBRANCH   3  21
BRANCH   3  23
HETATM   23  O5  UNL     1       8.387  10.456  53.877  1.00  0.00    -0.360 OA
ATOM     24  H5  UNL     1       8.858  11.068  53.323  1.00  0.00     0.213 HD
ENDBRANCH   3  23
BRANCH   2  25
HETATM   25  N3  UNL     1       6.919   8.873  55.629  1.00  0.00    -0.335 N 
HETATM   26  C2  UNL     1       6.272   8.009  56.564  1.00  0.00     0.250 C 
HETATM   27  O1  UNL     1       5.202   7.464  56.187  1.00  0.00    -0.271 OA
ATOM     28  H3  UNL     1       7.788   9.331  55.901  1.00  0.00     0.164 HD
BRANCH  26  29
HETATM   29  C3  UNL     1       6.799   7.746  57.905  1.00  0.00     0.233 C 
BRANCH  29  30
HETATM   30  O2  UNL     1       7.142   6.405  58.007  1.00  0.00    -0.384 OA
ATOM     31  H2  UNL     1       6.974   6.106  58.892  1.00  0.00     0.210 HD
ENDBRANCH  29  30
BRANCH  29  32
HETATM   32  C4  UNL     1       8.036   8.573  58.161  1.00  0.00     0.205 C 
BRANCH  32  33
HETATM   33  O3  UNL     1       9.196   7.863  57.914  1.00  0.00    -0.398 OA
ATOM     34  H3  UNL     1       9.563   8.064  57.061  1.00  0.00     0.209 HD
ENDBRANCH  32  33
ENDBRANCH  29  32
ENDBRANCH  26  29
ENDBRANCH   2  25
TORSDOF 9
ENDMDL
MODEL 2
REMARK VINA RESULT: -8.298546923      2.052      2.815
REMARK  9 active torsions:
REMARK  status: ('A' for Active; 'I' for Inactive)
REMARK    1  A    between atoms: N1_1  and  N2_4 
REMARK    2  A    between atoms: C1_5  and  N3_6 
REMARK       I    between atoms: N3_6  and  C2_8 
REMARK    3  A    between atoms: C2_8  and  C3_10 
REMARK    4  A    between atoms: C3_10  and  O2_11 
REMARK    5  A    between atoms: C3_10  and  C4_13 
REMARK    6  A    between atoms: C4_13  and  O3_14 
REMARK    7  A    between atoms: C5_16  and  O4_17 
REMARK    8  A    between atoms: C5_16  and  O5_19 
REMARK    9  A    between atoms: C6_21  and  N4_22 
ROOT
HETATM    1  N2  UNL     1       6.522   8.224  53.570  1.00  0.00    -0.179 NA
HETATM    2  C1  UNL     1       7.234   9.401  54.023  1.00  0.00     0.247 A 
HETATM    3  C5  UNL     1       7.086  10.016  52.679  1.00  0.00     0.232 A 
HETATM    4  C6  UNL     1       6.249   8.803  52.284  1.00  0.00     0.254 A 
ENDROOT
BRANCH   4   5
HETATM    5  N4  UNL     1       4.853   9.100  52.037  1.00  0.00    -0.302 N 
HETATM    6  C7  UNL     1       3.824   8.696  52.798  1.00  0.00     0.187 A 
HETATM    7  N5  UNL     1       2.674   9.164  52.258  1.00  0.00    -0.345 N 
HETATM    8  C8  UNL     1       2.989   9.859  51.159  1.00  0.00     0.146 A 
ATOM      9  H5  UNL     1       1.733   9.013  52.624  1.00  0.00     0.167 HD
HETATM   10  C9  UNL     1       2.216  10.551  50.225  1.00  0.00     0.277 A 
HETATM   11  C11 UNL     1       4.374   9.824  51.011  1.00  0.00     0.143 A 
HETATM   12  O6  UNL     1       0.958  10.592  50.347  1.00  0.00    -0.266 OA
HETATM   13  N6  UNL     1       2.788  11.176  49.193  1.00  0.00    -0.318 N 
HETATM   14  C10 UNL     1       4.133  11.130  49.065  1.00  0.00     0.185 A 
ATOM     15  H6  UNL     1       2.219  11.681  48.513  1.00  0.00     0.169 HD
HETATM   16  N7  UNL     1       4.896  10.470  49.955  1.00  0.00    -0.336 N 
ATOM     17  H7  UNL     1       5.908  10.459  49.823  1.00  0.00     0.168 HD
ENDBRANCH   4   5
BRANCH   1  18
HETATM   18  N1  UNL     1       7.346   7.111  53.585  1.00  0.00    -0.359 NA
ATOM     19  H12 UNL     1       6.941   6.240  53.244  1.00  0.00     0.171 HD
ATOM     20  H11 UNL     1       8.025   7.150  52.824  1.00  0.00     0.171 HD
ENDBRANCH   1  18
BRANCH   3  21
HETATM   21  O4  UNL     1       6.387  11.227  52.624  1.00  0.00    -0.360 OA
ATOM     22  H4  UNL     1       5.575  11.222  52.133  1.00  0.00     0.213 HD
ENDBRANCH   3  21
BRANCH   3  23
HETATM   23  O5  UNL     1       8.232  10.113  51.904  1.00  0.00    -0.360 OA
ATOM     24  H5  UNL     1       8.393   9.412  51.284  1.00  0.00     0.213 HD
ENDBRANCH   3  23
BRANCH   2  25
HETATM   25  N3  UNL     1       8.566   9.171  54.500  1.00  0.00    -0.335 N 
HETATM   26  C2  UNL     1       8.962   9.492  55.833  1.00  0.00     0.250 C 
HETATM   27  O1  UNL     1       8.082   9.991  56.583  1.00  0.00    -0.271 OA
ATOM     28  H3  UNL     1       9.253   8.765  53.865  1.00  0.00     0.164 HD
BRANCH  26  29
HETATM   29  C3  UNL     1      10.317   9.266  56.340  1.00  0.00     0.233 C 
BRANCH  29  30
HETATM   30  O2  UNL     1      11.074  10.414  56.148  1.00  0.00    -0.384 OA
ATOM     31  H2  UNL     1      11.769  10.441  56.795  1.00  0.00     0.210 HD
ENDBRANCH  29  30
BRANCH  29  32
HETATM   32  C4  UNL     1      10.287   8.959  57.819  1.00  0.00     0.205 C 
BRANCH  32  33
HETATM   33  O3  UNL     1       9.569   7.812  58.096  1.00  0.00    -0.398 OA
ATOM     34  H3  UNL     1       9.875   7.381  58.886  1.00  0.00     0.209 HD
ENDBRANCH  32  33
ENDBRANCH  29  32
ENDBRANCH  26  29
ENDBRANCH   2  25
TORSDOF 9
ENDMDL
MODEL 3
REMARK VINA RESULT: -8.066075237      2.025      6.888
REMARK  9 active torsions:
REMARK  status: ('A' for Active; 'I' for Inactive)
REMARK    1  A    between atoms: N1_1  and  N2_4 
REMARK    2  A    between atoms: C1_5  and  N3_6 
REMARK       I    between atoms: N3_6  and  C2_8 
REMARK    3  A    between atoms: C2_8  and  C3_10 
REMARK    4  A    between atoms: C3_10  and  O2_11 
REMARK    5  A    between atoms: C3_10  and  C4_13 
REMARK    6  A    between atoms: C4_13  and  O3_14 
REMARK    7  A    between atoms: C5_16  and  O4_17 
REMARK    8  A    between atoms: C5_16  and  O5_19 
REMARK    9  A    between atoms: C6_21  and  N4_22 
ROOT
HETATM    1  N2  UNL     1       6.194   9.942  53.379  1.00  0.00    -0.179 NA
HETATM    2  C1  UNL     1       6.357   8.761  52.557  1.00  0.00     0.247 A 
HETATM    3  C5  UNL     1       7.829   8.820  52.753  1.00  0.00     0.232 A 
HETATM    4  C6  UNL     1       7.594   9.994  53.698  1.00  0.00     0.254 A 
ENDROOT
BRANCH   4   5
HETATM    5  N4  UNL     1       7.910   9.714  55.083  1.00  0.00    -0.302 N 
HETATM    6  C7  UNL     1       8.938  10.238  55.769  1.00  0.00     0.187 A 
HETATM    7  N5  UNL     1       8.915   9.746  57.031  1.00  0.00    -0.345 N 
HETATM    8  C8  UNL     1       7.872   8.915  57.128  1.00  0.00     0.146 A 
ATOM      9  H5  UNL     1       9.576   9.970  57.775  1.00  0.00     0.167 HD
HETATM   10  C9  UNL     1       7.375   8.141  58.179  1.00  0.00     0.277 A 
HETATM   11  C11 UNL     1       7.227   8.888  55.894  1.00  0.00     0.143 A 
HETATM   12  O6  UNL     1       7.950   8.156  59.306  1.00  0.00    -0.266 OA
HETATM   13  N6  UNL     1       6.292   7.378  58.014  1.00  0.00    -0.318 N 
HETATM   14  C10 UNL     1       5.680   7.364  56.809  1.00  0.00     0.185 A 
ATOM     15  H6  UNL     1       5.932   6.815  58.785  1.00  0.00     0.169 HD
HETATM   16  N7  UNL     1       6.142   8.103  55.783  1.00  0.00    -0.336 N 
ATOM     17  H7  UNL     1       5.651   8.065  54.889  1.00  0.00     0.168 HD
ENDBRANCH   4   5
BRANCH   1  18
HETATM   18  N1  UNL     1       5.690  10.996  52.635  1.00  0.00    -0.359 NA
ATOM     19  H12 UNL     1       6.360  11.706  52.339  1.00  0.00     0.171 HD
ATOM     20  H11 UNL     1       5.501  10.706  51.675  1.00  0.00     0.171 HD
ENDBRANCH   1  18
BRANCH   3  21
HETATM   21  O4  UNL     1       8.417   7.708  53.368  1.00  0.00    -0.360 OA
ATOM     22  H4  UNL     1       8.230   7.591  54.292  1.00  0.00     0.213 HD
ENDBRANCH   3  21
BRANCH   3  23
HETATM   23  O5  UNL     1       8.593   9.195  51.659  1.00  0.00    -0.360 OA
ATOM     24  H5  UNL     1       9.536   9.206  51.777  1.00  0.00     0.213 HD
ENDBRANCH   3  23
BRANCH   2  25
HETATM   25  N3  UNL     1       5.867   8.870  51.215  1.00  0.00    -0.335 N 
HETATM   26  C2  UNL     1       4.491   8.674  50.890  1.00  0.00     0.250 C 
HETATM   27  O1  UNL     1       3.716   8.398  51.842  1.00  0.00    -0.271 OA
ATOM     28  H3  UNL     1       6.523   9.095  50.467  1.00  0.00     0.164 HD
BRANCH  26  29
HETATM   29  C3  UNL     1       3.969   8.781  49.525  1.00  0.00     0.233 C 
BRANCH  29  30
HETATM   30  O2  UNL     1       4.691   7.936  48.693  1.00  0.00    -0.384 OA
ATOM     31  H2  UNL     1       5.156   8.456  48.048  1.00  0.00     0.210 HD
ENDBRANCH  29  30
BRANCH  29  32
HETATM   32  C4  UNL     1       2.517   8.367  49.478  1.00  0.00     0.205 C 
BRANCH  32  33
HETATM   33  O3  UNL     1       1.669   9.415  49.777  1.00  0.00    -0.398 OA
ATOM     34  H3  UNL     1       1.140   9.238  50.546  1.00  0.00     0.209 HD
ENDBRANCH  32  33
ENDBRANCH  29  32
ENDBRANCH  26  29
ENDBRANCH   2  25
TORSDOF 9
ENDMDL
MODEL 4
REMARK VINA RESULT: -8.027085057      2.260      7.388
REMARK  9 active torsions:
REMARK  status: ('A' for Active; 'I' for Inactive)
REMARK    1  A    between atoms: N1_1  and  N2_4 
REMARK    2  A    between atoms: C1_5  and  N3_6 
REMARK       I    between atoms: N3_6  and  C2_8 
REMARK    3  A    between atoms: C2_8  and  C3_10 
REMARK    4  A    between atoms: C3_10  and  O2_11 
REMARK    5  A    between atoms: C3_10  and  C4_13 
REMARK    6  A    between atoms: C4_13  and  O3_14 
REMARK    7  A    between atoms: C5_16  and  O4_17 
REMARK    8  A    between atoms: C5_16  and  O5_19 
REMARK    9  A    between atoms: C6_21  and  N4_22 
ROOT
HETATM    1  N2  UNL     1       7.541   9.928  50.835  1.00  0.00    -0.179 NA
HETATM    2  C1  UNL     1       6.204  10.413  50.564  1.00  0.00     0.247 A 
HETATM    3  C5  UNL     1       5.655   9.493  51.593  1.00  0.00     0.232 A 
HETATM    4  C6  UNL     1       7.092   9.096  51.916  1.00  0.00     0.254 A 
ENDROOT
BRANCH   4   5
HETATM    5  N4  UNL     1       7.541   9.511  53.228  1.00  0.00    -0.302 N 
HETATM    6  C7  UNL     1       8.460  10.459  53.473  1.00  0.00     0.187 A 
HETATM    7  N5  UNL     1       8.621  10.573  54.813  1.00  0.00    -0.345 N 
HETATM    8  C8  UNL     1       7.802   9.694  55.401  1.00  0.00     0.146 A 
ATOM      9  H5  UNL     1       9.255  11.215  55.290  1.00  0.00     0.167 HD
HETATM   10  C9  UNL     1       7.555   9.383  56.739  1.00  0.00     0.277 A 
HETATM   11  C11 UNL     1       7.111   9.015  54.400  1.00  0.00     0.143 A 
HETATM   12  O6  UNL     1       8.174   9.992  57.659  1.00  0.00    -0.266 OA
HETATM   13  N6  UNL     1       6.667   8.442  57.070  1.00  0.00    -0.318 N 
HETATM   14  C10 UNL     1       6.007   7.792  56.085  1.00  0.00     0.185 A 
ATOM     15  H6  UNL     1       6.488   8.218  58.049  1.00  0.00     0.169 HD
HETATM   16  N7  UNL     1       6.229   8.078  54.789  1.00  0.00    -0.336 N 
ATOM     17  H7  UNL     1       5.710   7.565  54.075  1.00  0.00     0.168 HD
ENDBRANCH   4   5
BRANCH   1  18
HETATM   18  N1  UNL     1       8.065   9.278  49.730  1.00  0.00    -0.359 NA
ATOM     19  H12 UNL     1       9.043   9.466  49.513  1.00  0.00     0.171 HD
ATOM     20  H11 UNL     1       8.250   8.297  49.939  1.00  0.00     0.171 HD
ENDBRANCH   1  18
BRANCH   3  21
HETATM   21  O4  UNL     1       4.979  10.091  52.663  1.00  0.00    -0.360 OA
ATOM     22  H4  UNL     1       5.149   9.727  53.523  1.00  0.00     0.213 HD
ENDBRANCH   3  21
BRANCH   3  23
HETATM   23  O5  UNL     1       4.920   8.408  51.137  1.00  0.00    -0.360 OA
ATOM     24  H5  UNL     1       4.532   7.845  51.795  1.00  0.00     0.213 HD
ENDBRANCH   3  23
BRANCH   2  25
HETATM   25  N3  UNL     1       5.747  10.242  49.216  1.00  0.00    -0.335 N 
HETATM   26  C2  UNL     1       4.961  11.230  48.549  1.00  0.00     0.250 C 
HETATM   27  O1  UNL     1       4.684  12.271  49.201  1.00  0.00    -0.271 OA
ATOM     28  H3  UNL     1       5.990   9.387  48.718  1.00  0.00     0.164 HD
BRANCH  26  29
HETATM   29  C3  UNL     1       4.483  11.076  47.174  1.00  0.00     0.233 C 
BRANCH  29  30
HETATM   30  O2  UNL     1       3.741   9.907  47.076  1.00  0.00    -0.384 OA
ATOM     31  H2  UNL     1       3.123   9.869  47.796  1.00  0.00     0.210 HD
ENDBRANCH  29  30
BRANCH  29  32
HETATM   32  C4  UNL     1       3.596  12.235  46.786  1.00  0.00     0.205 C 
BRANCH  32  33
HETATM   33  O3  UNL     1       4.298  13.422  46.706  1.00  0.00    -0.398 OA
ATOM     34  H3  UNL     1       4.485  13.668  45.807  1.00  0.00     0.209 HD
ENDBRANCH  32  33
ENDBRANCH  29  32
ENDBRANCH  26  29
ENDBRANCH   2  25
TORSDOF 9
ENDMDL
MODEL 5
REMARK VINA RESULT: -8.010188202      2.327      7.409
REMARK  9 active torsions:
REMARK  status: ('A' for Active; 'I' for Inactive)
REMARK    1  A    between atoms: N1_1  and  N2_4 
REMARK    2  A    between atoms: C1_5  and  N3_6 
REMARK       I    between atoms: N3_6  and  C2_8 
REMARK    3  A    between atoms: C2_8  and  C3_10 
REMARK    4  A    between atoms: C3_10  and  O2_11 
REMARK    5  A    between atoms: C3_10  and  C4_13 
REMARK    6  A    between atoms: C4_13  and  O3_14 
REMARK    7  A    between atoms: C5_16  and  O4_17 
REMARK    8  A    between atoms: C5_16  and  O5_19 
REMARK    9  A    between atoms: C6_21  and  N4_22 
ROOT
HETATM    1  N2  UNL     1       7.504  10.069  50.716  1.00  0.00    -0.179 NA
HETATM    2  C1  UNL     1       6.331  10.896  50.528  1.00  0.00     0.247 A 
HETATM    3  C5  UNL     1       5.608  10.117  51.566  1.00  0.00     0.232 A 
HETATM    4  C6  UNL     1       6.903   9.346  51.802  1.00  0.00     0.254 A 
ENDROOT
BRANCH   4   5
HETATM    5  N4  UNL     1       7.507   9.584  53.097  1.00  0.00    -0.302 N 
HETATM    6  C7  UNL     1       8.585  10.351  53.324  1.00  0.00     0.187 A 
HETATM    7  N5  UNL     1       8.858  10.337  54.650  1.00  0.00    -0.345 N 
HETATM    8  C8  UNL     1       7.947   9.559  55.248  1.00  0.00     0.146 A 
ATOM      9  H5  UNL     1       9.621  10.831  55.112  1.00  0.00     0.167 HD
HETATM   10  C9  UNL     1       7.748   9.192  56.580  1.00  0.00     0.277 A 
HETATM   11  C11 UNL     1       7.084   9.077  54.267  1.00  0.00     0.143 A 
HETATM   12  O6  UNL     1       8.523   9.622  57.481  1.00  0.00    -0.266 OA
HETATM   13  N6  UNL     1       6.741   8.384  56.922  1.00  0.00    -0.318 N 
HETATM   14  C10 UNL     1       5.915   7.924  55.956  1.00  0.00     0.185 A 
ATOM     15  H6  UNL     1       6.598   8.118  57.897  1.00  0.00     0.169 HD
HETATM   16  N7  UNL     1       6.089   8.267  54.667  1.00  0.00    -0.336 N 
ATOM     17  H7  UNL     1       5.443   7.899  53.968  1.00  0.00     0.168 HD
ENDBRANCH   4   5
BRANCH   1  18
HETATM   18  N1  UNL     1       7.786   9.342  49.571  1.00  0.00    -0.359 NA
ATOM     19  H12 UNL     1       8.142   8.397  49.708  1.00  0.00     0.171 HD
ATOM     20  H11 UNL     1       6.928   9.007  49.132  1.00  0.00     0.171 HD
ENDBRANCH   1  18
BRANCH   3  21
HETATM   21  O4  UNL     1       5.165  10.834  52.683  1.00  0.00    -0.360 OA
ATOM     22  H4  UNL     1       4.414  11.400  52.549  1.00  0.00     0.213 HD
ENDBRANCH   3  21
BRANCH   3  23
HETATM   23  O5  UNL     1       4.593   9.279  51.128  1.00  0.00    -0.360 OA
ATOM     24  H5  UNL     1       4.803   8.685  50.418  1.00  0.00     0.213 HD
ENDBRANCH   3  23
BRANCH   2  25
HETATM   25  N3  UNL     1       5.782  10.897  49.204  1.00  0.00    -0.335 N 
HETATM   26  C2  UNL     1       5.724  12.080  48.406  1.00  0.00     0.250 C 
HETATM   27  O1  UNL     1       6.181  13.134  48.920  1.00  0.00    -0.271 OA
ATOM     28  H3  UNL     1       5.421  10.024  48.819  1.00  0.00     0.164 HD
BRANCH  26  29
HETATM   29  C3  UNL     1       5.167  12.103  47.052  1.00  0.00     0.233 C 
BRANCH  29  30
HETATM   30  O2  UNL     1       6.009  11.403  46.199  1.00  0.00    -0.384 OA
ATOM     31  H2  UNL     1       5.700  11.499  45.306  1.00  0.00     0.210 HD
ENDBRANCH  29  30
BRANCH  29  32
HETATM   32  C4  UNL     1       3.809  11.443  47.025  1.00  0.00     0.205 C 
BRANCH  32  33
HETATM   33  O3  UNL     1       3.901  10.070  46.906  1.00  0.00    -0.398 OA
ATOM     34  H3  UNL     1       4.430   9.686  47.596  1.00  0.00     0.209 HD
ENDBRANCH  32  33
ENDBRANCH  29  32
ENDBRANCH  26  29
ENDBRANCH   2  25
TORSDOF 9
ENDMDL
