MODEL 1
REMARK VINA RESULT: -8.022767315      0.000      0.000
REMARK  9 active torsions:
REMARK  status: ('A' for Active; 'I' for Inactive)
REMARK    1  A    between atoms: N1_1  and  C1_5 
REMARK    2  A    between atoms: C1_5  and  O1_6 
REMARK    3  A    between atoms: C1_5  and  C2_8 
REMARK    4  A    between atoms: C2_8  and  O2_9 
REMARK    5  A    between atoms: C3_11  and  N2_12 
REMARK    6  A    between atoms: C8_22  and  C9_23 
REMARK    7  A    between atoms: C9_23  and  O6_24 
REMARK    8  A    between atoms: C10_26  and  O7_27 
REMARK    9  A    between atoms: C10_26  and  C11_29 
ROOT
HETATM    1  C2  UNL     1       3.503  10.372  50.560  1.00  0.00     0.197 C 
HETATM    2  C3  UNL     1       4.582   9.368  50.469  1.00  0.00     0.275 C 
HETATM    3  O5  UNL     1       5.538   9.945  49.589  1.00  0.00    -0.352 OA
HETATM    4  C8  UNL     1       5.453  11.312  49.827  1.00  0.00     0.196 C 
HETATM    5  C10 UNL     1       3.989  11.532  49.687  1.00  0.00     0.213 C 
ENDROOT
BRANCH   1   6
HETATM    6  C1  UNL     1       2.121   9.954  50.227  1.00  0.00     0.359 C 
BRANCH   6   7
HETATM    7  N1  UNL     1       2.117   8.748  49.416  1.00  0.00    -0.050 N 
ATOM      8  H13 UNL     1       1.261   8.204  49.536  1.00  0.00     0.277 HD
ATOM      9  H12 UNL     1       2.020   8.950  48.422  1.00  0.00     0.277 HD
ATOM     10  H11 UNL     1       2.954   8.203  49.622  1.00  0.00     0.277 HD
ENDBRANCH   6   7
BRANCH   6  11
HETATM   11  O1  UNL     1       1.215   9.821  51.229  1.00  0.00    -0.367 OA
ATOM     12  H1  UNL     1       1.674   9.700  52.051  1.00  0.00     0.212 HD
ENDBRANCH   6  11
ENDBRANCH   1   6
BRANCH   1  13
HETATM   13  O2  UNL     1       3.482  10.860  51.882  1.00  0.00    -0.378 OA
ATOM     14  H2  UNL     1       3.023  11.691  51.866  1.00  0.00     0.211 HD
ENDBRANCH   1  13
BRANCH   2  15
HETATM   15  N2  UNL     1       5.333   9.048  51.655  1.00  0.00    -0.279 N 
HETATM   16  C4  UNL     1       6.685   9.202  51.743  1.00  0.00     0.104 A 
HETATM   17  C5  UNL     1       7.429   8.907  52.843  1.00  0.00     0.092 A 
HETATM   18  C6  UNL     1       6.803   8.419  53.954  1.00  0.00     0.250 A 
HETATM   19  O3  UNL     1       7.474   8.138  54.989  1.00  0.00    -0.268 OA
HETATM   20  N3  UNL     1       5.480   8.262  53.882  1.00  0.00    -0.275 N 
HETATM   21  C7  UNL     1       4.755   8.565  52.767  1.00  0.00     0.331 A 
ATOM     22  H3  UNL     1       4.987   7.898  54.699  1.00  0.00     0.173 HD
HETATM   23  O4  UNL     1       3.522   8.352  52.879  1.00  0.00    -0.246 OA
ENDBRANCH   2  15
BRANCH   5  24
HETATM   24  O7  UNL     1       3.647  12.707  50.357  1.00  0.00    -0.374 OA
ATOM     25  H7  UNL     1       4.005  13.424  49.848  1.00  0.00     0.211 HD
ENDBRANCH   5  24
BRANCH   5  26
HETATM   26  C11 UNL     1       3.505  11.527  48.315  1.00  0.00     0.215 C 
HETATM   27  O8  UNL     1       3.618  10.574  47.506  1.00  0.00    -0.646 OA
HETATM   28  O9  UNL     1       2.856  12.668  47.830  1.00  0.00    -0.646 OA
ENDBRANCH   5  26
BRANCH   4  29
HETATM   29  C9  UNL     1       6.311  12.078  48.882  1.00  0.00     0.199 C 
BRANCH  29  30
HETATM   30  O6  UNL     1       6.559  13.347  49.394  1.00  0.00    -0.398 OA
ATOM     31  H6  UNL     1       6.563  13.983  48.689  1.00  0.00     0.209 HD
ENDBRANCH  29  30
ENDBRANCH   4  29
TORSDOF 9
ENDMDL
MODEL 2
REMARK VINA RESULT: -7.791575130      1.791      3.603
REMARK  9 active torsions:
REMARK  status: ('A' for Active; 'I' for Inactive)
REMARK    1  A    between atoms: N1_1  and  C1_5 
REMARK    2  A    between atoms: C1_5  and  O1_6 
REMARK    3  A    between atoms: C1_5  and  C2_8 
REMARK    4  A    between atoms: C2_8  and  O2_9 
REMARK    5  A    between atoms: C3_11  and  N2_12 
REMARK    6  A    between atoms: C8_22  and  C9_23 
REMARK    7  A    between atoms: C9_23  and  O6_24 
REMARK    8  A    between atoms: C10_26  and  O7_27 
REMARK    9  A    between atoms: C10_26  and  C11_29 
ROOT
HETATM    1  C2  UNL     1       5.447  11.174  49.490  1.00  0.00     0.197 C 
HETATM    2  C3  UNL     1       5.098  11.336  50.916  1.00  0.00     0.275 C 
HETATM    3  O5  UNL     1       3.735  10.941  51.000  1.00  0.00    -0.352 OA
HETATM    4  C8  UNL     1       3.597   9.947  50.037  1.00  0.00     0.196 C 
HETATM    5  C10 UNL     1       4.170  10.629  48.845  1.00  0.00     0.213 C 
ENDROOT
BRANCH   1   6
HETATM    6  C1  UNL     1       5.995  12.342  48.762  1.00  0.00     0.359 C 
BRANCH   6   7
HETATM    7  N1  UNL     1       7.005  13.029  49.550  1.00  0.00    -0.050 N 
ATOM      8  H13 UNL     1       7.912  12.563  49.508  1.00  0.00     0.277 HD
ATOM      9  H12 UNL     1       7.281  13.919  49.136  1.00  0.00     0.277 HD
ATOM     10  H11 UNL     1       6.668  13.134  50.508  1.00  0.00     0.277 HD
ENDBRANCH   6   7
BRANCH   6  11
HETATM   11  O1  UNL     1       6.458  12.171  47.497  1.00  0.00    -0.367 OA
ATOM     12  H1  UNL     1       6.270  12.950  46.988  1.00  0.00     0.212 HD
ENDBRANCH   6  11
ENDBRANCH   1   6
BRANCH   1  13
HETATM   13  O2  UNL     1       6.402  10.142  49.398  1.00  0.00    -0.378 OA
ATOM     14  H2  UNL     1       7.044  10.293  50.082  1.00  0.00     0.211 HD
ENDBRANCH   1  13
BRANCH   2  15
HETATM   15  N2  UNL     1       5.770  10.517  51.892  1.00  0.00    -0.279 N 
HETATM   16  C4  UNL     1       5.271   9.329  52.336  1.00  0.00     0.104 A 
HETATM   17  C5  UNL     1       5.872   8.531  53.258  1.00  0.00     0.092 A 
HETATM   18  C6  UNL     1       7.065   8.924  53.797  1.00  0.00     0.250 A 
HETATM   19  O3  UNL     1       7.643   8.199  54.656  1.00  0.00    -0.268 OA
HETATM   20  N3  UNL     1       7.565  10.086  53.372  1.00  0.00    -0.275 N 
HETATM   21  C7  UNL     1       6.942  10.869  52.444  1.00  0.00     0.331 A 
ATOM     22  H3  UNL     1       8.455  10.404  53.758  1.00  0.00     0.173 HD
HETATM   23  O4  UNL     1       7.558  11.928  52.167  1.00  0.00    -0.246 OA
ENDBRANCH   2  15
BRANCH   5  24
HETATM   24  O7  UNL     1       4.569   9.661  47.925  1.00  0.00    -0.374 OA
ATOM     25  H7  UNL     1       3.775   9.268  47.582  1.00  0.00     0.211 HD
ENDBRANCH   5  24
BRANCH   5  26
HETATM   26  C11 UNL     1       3.299  11.628  48.244  1.00  0.00     0.215 C 
HETATM   27  O8  UNL     1       2.507  12.375  48.868  1.00  0.00    -0.646 OA
HETATM   28  O9  UNL     1       3.325  11.788  46.854  1.00  0.00    -0.646 OA
ENDBRANCH   5  26
BRANCH   4  29
HETATM   29  C9  UNL     1       2.180   9.513  49.910  1.00  0.00     0.199 C 
BRANCH  29  30
HETATM   30  O6  UNL     1       2.074   8.534  48.928  1.00  0.00    -0.398 OA
ATOM     31  H6  UNL     1       1.211   8.566  48.533  1.00  0.00     0.209 HD
ENDBRANCH  29  30
ENDBRANCH   4  29
TORSDOF 9
ENDMDL
MODEL 3
REMARK VINA RESULT: -7.687114620      1.884      2.821
REMARK  9 active torsions:
REMARK  status: ('A' for Active; 'I' for Inactive)
REMARK    1  A    between atoms: N1_1  and  C1_5 
REMARK    2  A    between atoms: C1_5  and  O1_6 
REMARK    3  A    between atoms: C1_5  and  C2_8 
REMARK    4  A    between atoms: C2_8  and  O2_9 
REMARK    5  A    between atoms: C3_11  and  N2_12 
REMARK    6  A    between atoms: C8_22  and  C9_23 
REMARK    7  A    between atoms: C9_23  and  O6_24 
REMARK    8  A    between atoms: C10_26  and  O7_27 
REMARK    9  A    between atoms: C10_26  and  C11_29 
ROOT
HETATM    1  C2  UNL     1       3.894   9.449  50.783  1.00  0.00     0.197 C 
HETATM    2  C3  UNL     1       5.131  10.243  50.923  1.00  0.00     0.275 C 
HETATM    3  O5  UNL     1       4.693  11.517  51.377  1.00  0.00    -0.352 OA
HETATM    4  C8  UNL     1       3.578  11.245  52.162  1.00  0.00     0.196 C 
HETATM    5  C10 UNL     1       2.780  10.399  51.234  1.00  0.00     0.213 C 
ENDROOT
BRANCH   1   6
HETATM    6  C1  UNL     1       3.604   8.821  49.472  1.00  0.00     0.359 C 
BRANCH   6   7
HETATM    7  N1  UNL     1       4.751   8.074  48.981  1.00  0.00    -0.050 N 
ATOM      8  H13 UNL     1       4.662   7.072  49.151  1.00  0.00     0.277 HD
ATOM      9  H12 UNL     1       4.787   8.045  47.963  1.00  0.00     0.277 HD
ATOM     10  H11 UNL     1       5.602   8.463  49.389  1.00  0.00     0.277 HD
ENDBRANCH   6   7
BRANCH   6  11
HETATM   11  O1  UNL     1       2.488   8.060  49.340  1.00  0.00    -0.367 OA
ATOM     12  H1  UNL     1       1.948   8.417  48.644  1.00  0.00     0.212 HD
ENDBRANCH   6  11
ENDBRANCH   1   6
BRANCH   1  13
HETATM   13  O2  UNL     1       3.937   8.416  51.739  1.00  0.00    -0.378 OA
ATOM     14  H2  UNL     1       4.450   8.734  52.472  1.00  0.00     0.211 HD
ENDBRANCH   1  13
BRANCH   2  15
HETATM   15  N2  UNL     1       6.111   9.833  51.895  1.00  0.00    -0.279 N 
HETATM   16  C4  UNL     1       5.987  10.086  53.229  1.00  0.00     0.104 A 
HETATM   17  C5  UNL     1       6.892   9.720  54.176  1.00  0.00     0.092 A 
HETATM   18  C6  UNL     1       8.017   9.048  53.791  1.00  0.00     0.250 A 
HETATM   19  O3  UNL     1       8.873   8.696  54.653  1.00  0.00    -0.268 OA
HETATM   20  N3  UNL     1       8.153   8.793  52.488  1.00  0.00    -0.275 N 
HETATM   21  C7  UNL     1       7.230   9.171  51.557  1.00  0.00     0.331 A 
ATOM     22  H3  UNL     1       8.984   8.293  52.173  1.00  0.00     0.173 HD
HETATM   23  O4  UNL     1       7.524   8.850  50.379  1.00  0.00    -0.246 OA
ENDBRANCH   2  15
BRANCH   5  24
HETATM   24  O7  UNL     1       1.884   9.637  51.982  1.00  0.00    -0.374 OA
ATOM     25  H7  UNL     1       2.214   9.626  52.873  1.00  0.00     0.211 HD
ENDBRANCH   5  24
BRANCH   5  26
HETATM   26  C11 UNL     1       2.115  11.132  50.168  1.00  0.00     0.215 C 
HETATM   27  O8  UNL     1       2.690  11.779  49.258  1.00  0.00    -0.646 OA
HETATM   28  O9  UNL     1       0.716  11.136  50.131  1.00  0.00    -0.646 OA
ENDBRANCH   5  26
BRANCH   4  29
HETATM   29  C9  UNL     1       2.918  12.500  52.614  1.00  0.00     0.199 C 
BRANCH  29  30
HETATM   30  O6  UNL     1       3.868  13.505  52.758  1.00  0.00    -0.398 OA
ATOM     31  H6  UNL     1       3.439  14.326  52.970  1.00  0.00     0.209 HD
ENDBRANCH  29  30
ENDBRANCH   4  29
TORSDOF 9
ENDMDL
MODEL 4
REMARK VINA RESULT: -7.628795074      1.211      1.231
REMARK  9 active torsions:
REMARK  status: ('A' for Active; 'I' for Inactive)
REMARK    1  A    between atoms: N1_1  and  C1_5 
REMARK    2  A    between atoms: C1_5  and  O1_6 
REMARK    3  A    between atoms: C1_5  and  C2_8 
REMARK    4  A    between atoms: C2_8  and  O2_9 
REMARK    5  A    between atoms: C3_11  and  N2_12 
REMARK    6  A    between atoms: C8_22  and  C9_23 
REMARK    7  A    between atoms: C9_23  and  O6_24 
REMARK    8  A    between atoms: C10_26  and  O7_27 
REMARK    9  A    between atoms: C10_26  and  C11_29 
ROOT
HETATM    1  C2  UNL     1       3.587  10.544  49.718  1.00  0.00     0.197 C 
HETATM    2  C3  UNL     1       4.874   9.843  49.898  1.00  0.00     0.275 C 
HETATM    3  O5  UNL     1       5.768  10.495  49.004  1.00  0.00    -0.352 OA
HETATM    4  C8  UNL     1       5.337  11.816  48.978  1.00  0.00     0.196 C 
HETATM    5  C10 UNL     1       3.889  11.635  48.687  1.00  0.00     0.213 C 
ENDROOT
BRANCH   1   6
HETATM    6  C1  UNL     1       2.393   9.744  49.362  1.00  0.00     0.359 C 
BRANCH   6   7
HETATM    7  N1  UNL     1       2.711   8.327  49.287  1.00  0.00    -0.050 N 
ATOM      8  H13 UNL     1       3.424   8.054  49.964  1.00  0.00     0.277 HD
ATOM      9  H12 UNL     1       1.952   7.741  49.634  1.00  0.00     0.277 HD
ATOM     10  H11 UNL     1       2.975   8.093  48.329  1.00  0.00     0.277 HD
ENDBRANCH   6   7
BRANCH   6  11
HETATM   11  O1  UNL     1       1.253   9.907  50.080  1.00  0.00    -0.367 OA
ATOM     12  H1  UNL     1       1.164   9.187  50.693  1.00  0.00     0.212 HD
ENDBRANCH   6  11
ENDBRANCH   1   6
BRANCH   1  13
HETATM   13  O2  UNL     1       3.293  11.215  50.922  1.00  0.00    -0.378 OA
ATOM     14  H2  UNL     1       3.875  10.865  51.586  1.00  0.00     0.211 HD
ENDBRANCH   1  13
BRANCH   2  15
HETATM   15  N2  UNL     1       5.531   9.917  51.178  1.00  0.00    -0.279 N 
HETATM   16  C4  UNL     1       6.648  10.665  51.398  1.00  0.00     0.104 A 
HETATM   17  C5  UNL     1       7.298  10.756  52.590  1.00  0.00     0.092 A 
HETATM   18  C6  UNL     1       6.820  10.057  53.661  1.00  0.00     0.250 A 
HETATM   19  O3  UNL     1       7.407  10.125  54.778  1.00  0.00    -0.268 OA
HETATM   20  N3  UNL     1       5.726   9.318  53.459  1.00  0.00    -0.275 N 
HETATM   21  C7  UNL     1       5.091   9.243  52.254  1.00  0.00     0.331 A 
ATOM     22  H3  UNL     1       5.347   8.785  54.242  1.00  0.00     0.173 HD
HETATM   23  O4  UNL     1       4.080   8.498  52.249  1.00  0.00    -0.246 OA
ENDBRANCH   2  15
BRANCH   5  24
HETATM   24  O7  UNL     1       3.204  12.777  49.100  1.00  0.00    -0.374 OA
ATOM     25  H7  UNL     1       3.861  13.437  49.285  1.00  0.00     0.211 HD
ENDBRANCH   5  24
BRANCH   5  26
HETATM   26  C11 UNL     1       3.590  11.289  47.306  1.00  0.00     0.215 C 
HETATM   27  O8  UNL     1       3.668  10.138  46.809  1.00  0.00    -0.646 OA
HETATM   28  O9  UNL     1       3.180  12.305  46.435  1.00  0.00    -0.646 OA
ENDBRANCH   5  26
BRANCH   4  29
HETATM   29  C9  UNL     1       6.099  12.613  47.979  1.00  0.00     0.199 C 
BRANCH  29  30
HETATM   30  O6  UNL     1       5.551  13.887  47.875  1.00  0.00    -0.398 OA
ATOM     31  H6  UNL     1       5.338  14.072  46.968  1.00  0.00     0.209 HD
ENDBRANCH  29  30
ENDBRANCH   4  29
TORSDOF 9
ENDMDL
MODEL 5
REMARK VINA RESULT: -7.504787591      1.885      3.635
REMARK  9 active torsions:
REMARK  status: ('A' for Active; 'I' for Inactive)
REMARK    1  A    between atoms: N1_1  and  C1_5 
REMARK    2  A    between atoms: C1_5  and  O1_6 
REMARK    3  A    between atoms: C1_5  and  C2_8 
REMARK    4  A    between atoms: C2_8  and  O2_9 
REMARK    5  A    between atoms: C3_11  and  N2_12 
REMARK    6  A    between atoms: C8_22  and  C9_23 
REMARK    7  A    between atoms: C9_23  and  O6_24 
REMARK    8  A    between atoms: C10_26  and  O7_27 
REMARK    9  A    between atoms: C10_26  and  C11_29 
ROOT
HETATM    1  C2  UNL     1       5.410  10.453  50.272  1.00  0.00     0.197 C 
HETATM    2  C3  UNL     1       4.906  10.700  51.638  1.00  0.00     0.275 C 
HETATM    3  O5  UNL     1       3.673   9.994  51.701  1.00  0.00    -0.352 OA
HETATM    4  C8  UNL     1       3.861   8.886  50.882  1.00  0.00     0.196 C 
HETATM    5  C10 UNL     1       4.360   9.535  49.640  1.00  0.00     0.213 C 
ENDROOT
BRANCH   1   6
HETATM    6  C1  UNL     1       5.728  11.621  49.417  1.00  0.00     0.359 C 
BRANCH   6   7
HETATM    7  N1  UNL     1       6.698  12.494  50.058  1.00  0.00    -0.050 N 
ATOM      8  H13 UNL     1       7.637  12.096  50.056  1.00  0.00     0.277 HD
ATOM      9  H12 UNL     1       6.894  13.327  49.503  1.00  0.00     0.277 HD
ATOM     10  H11 UNL     1       6.374  12.722  50.998  1.00  0.00     0.277 HD
ENDBRANCH   6   7
BRANCH   6  11
HETATM   11  O1  UNL     1       6.099  11.411  48.129  1.00  0.00    -0.367 OA
ATOM     12  H1  UNL     1       6.807  12.004  47.908  1.00  0.00     0.212 HD
ENDBRANCH   6  11
ENDBRANCH   1   6
BRANCH   1  13
HETATM   13  O2  UNL     1       6.586   9.686  50.381  1.00  0.00    -0.378 OA
ATOM     14  H2  UNL     1       6.322   8.800  50.600  1.00  0.00     0.211 HD
ENDBRANCH   1  13
BRANCH   2  15
HETATM   15  N2  UNL     1       5.662  10.199  52.757  1.00  0.00    -0.279 N 
HETATM   16  C4  UNL     1       5.451   8.971  53.307  1.00  0.00     0.104 A 
HETATM   17  C5  UNL     1       6.141   8.466  54.365  1.00  0.00     0.092 A 
HETATM   18  C6  UNL     1       7.122   9.224  54.939  1.00  0.00     0.250 A 
HETATM   19  O3  UNL     1       7.777   8.776  55.923  1.00  0.00    -0.268 OA
HETATM   20  N3  UNL     1       7.340  10.430  54.410  1.00  0.00    -0.275 N 
HETATM   21  C7  UNL     1       6.634  10.914  53.348  1.00  0.00     0.331 A 
ATOM     22  H3  UNL     1       8.067  11.017  54.820  1.00  0.00     0.173 HD
HETATM   23  O4  UNL     1       6.973  12.068  52.987  1.00  0.00    -0.246 OA
ENDBRANCH   2  15
BRANCH   5  24
HETATM   24  O7  UNL     1       5.058   8.588  48.890  1.00  0.00    -0.374 OA
ATOM     25  H7  UNL     1       4.429   8.193  48.299  1.00  0.00     0.211 HD
ENDBRANCH   5  24
BRANCH   5  26
HETATM   26  C11 UNL     1       3.335  10.205  48.855  1.00  0.00     0.215 C 
HETATM   27  O8  UNL     1       2.450  10.970  49.311  1.00  0.00    -0.646 OA
HETATM   28  O9  UNL     1       3.309   9.996  47.472  1.00  0.00    -0.646 OA
ENDBRANCH   5  26
BRANCH   4  29
HETATM   29  C9  UNL     1       2.604   8.102  50.738  1.00  0.00     0.199 C 
BRANCH  29  30
HETATM   30  O6  UNL     1       1.518   8.880  51.124  1.00  0.00    -0.398 OA
ATOM     31  H6  UNL     1       1.613   9.760  50.777  1.00  0.00     0.209 HD
ENDBRANCH  29  30
ENDBRANCH   4  29
TORSDOF 9
ENDMDL
