MODEL 1
REMARK VINA RESULT: -7.176573784      0.000      0.000
REMARK  5 active torsions:
REMARK  status: ('A' for Active; 'I' for Inactive)
REMARK    1  A    between atoms: C2_2  and  C3_3 
REMARK    2  A    between atoms: C3_3  and  C4_4 
REMARK    3  A    between atoms: C4_4  and  S1_5 
REMARK    4  A    between atoms: S1_5  and  C5_6 
REMARK    5  A    between atoms: C9_12  and  C10_13 
ROOT
HETATM    1  C5  UNL     1       6.203  -0.755  57.834  1.00  0.00     0.001 A 
HETATM    2  C6  UNL     1       6.200  -1.944  57.142  1.00  0.00     0.021 A 
HETATM    3  C7  UNL     1       7.373  -2.571  56.786  1.00  0.00     0.031 A 
HETATM    4  C8  UNL     1       8.610  -2.006  57.123  1.00  0.00     0.043 A 
HETATM    5  N1  UNL     1       9.888  -2.364  56.924  1.00  0.00    -0.355 N 
ATOM      6  H1  UNL     1      10.183  -3.209  56.434  1.00  0.00     0.166 HD
HETATM    7  C9  UNL     1      10.727  -1.460  57.455  1.00  0.00     0.043 A 
HETATM    8  C16 UNL     1       9.946  -0.480  58.021  1.00  0.00     0.044 A 
HETATM    9  C17 UNL     1       8.609  -0.816  57.816  1.00  0.00    -0.006 A 
HETATM   10  C18 UNL     1       7.411  -0.194  58.170  1.00  0.00     0.032 A 
ENDROOT
BRANCH   7  11
HETATM   11  C10 UNL     1      12.201  -1.490  57.448  1.00  0.00    -0.009 A 
HETATM   12  C11 UNL     1      12.905  -1.527  56.263  1.00  0.00     0.013 A 
HETATM   13  C12 UNL     1      14.287  -1.554  56.240  1.00  0.00     0.001 A 
HETATM   14  C13 UNL     1      15.013  -1.547  57.415  1.00  0.00     0.000 A 
HETATM   15  C14 UNL     1      14.294  -1.509  58.592  1.00  0.00     0.001 A 
HETATM   16  C15 UNL     1      12.906  -1.482  58.627  1.00  0.00     0.013 A 
ENDBRANCH   7  11
BRANCH   1  17
HETATM   17  S1  UNL     1       4.710   0.093  58.316  1.00  0.00    -0.130 SA
BRANCH  17  18
HETATM   18  C4  UNL     1       4.314   1.433  57.153  1.00  0.00     0.079 C 
BRANCH  18  19
HETATM   19  C3  UNL     1       5.049   2.709  57.534  1.00  0.00     0.010 C 
BRANCH  19  20
HETATM   20  C2  UNL     1       4.734   3.000  58.997  1.00  0.00    -0.004 C 
HETATM   21  C1  UNL     1       3.343   3.615  59.106  1.00  0.00     0.005 C 
ENDBRANCH  19  20
ENDBRANCH  18  19
ENDBRANCH  17  18
ENDBRANCH   1  17
TORSDOF 5
ENDMDL
MODEL 2
REMARK VINA RESULT: -7.146234842      2.779      7.395
REMARK  5 active torsions:
REMARK  status: ('A' for Active; 'I' for Inactive)
REMARK    1  A    between atoms: C2_2  and  C3_3 
REMARK    2  A    between atoms: C3_3  and  C4_4 
REMARK    3  A    between atoms: C4_4  and  S1_5 
REMARK    4  A    between atoms: S1_5  and  C5_6 
REMARK    5  A    between atoms: C9_12  and  C10_13 
ROOT
HETATM    1  C5  UNL     1      12.854  -1.960  56.531  1.00  0.00     0.001 A 
HETATM    2  C6  UNL     1      12.460  -3.064  55.811  1.00  0.00     0.021 A 
HETATM    3  C7  UNL     1      11.132  -3.410  55.694  1.00  0.00     0.031 A 
HETATM    4  C8  UNL     1      10.141  -2.637  56.313  1.00  0.00     0.043 A 
HETATM    5  N1  UNL     1       8.803  -2.713  56.383  1.00  0.00    -0.355 N 
ATOM      6  H1  UNL     1       8.240  -3.438  55.938  1.00  0.00     0.166 HD
HETATM    7  C9  UNL     1       8.304  -1.706  57.119  1.00  0.00     0.043 A 
HETATM    8  C16 UNL     1       9.376  -0.953  57.537  1.00  0.00     0.044 A 
HETATM    9  C17 UNL     1      10.538  -1.532  57.034  1.00  0.00    -0.006 A 
HETATM   10  C18 UNL     1      11.888  -1.196  57.141  1.00  0.00     0.032 A 
ENDROOT
BRANCH   7  11
HETATM   11  C10 UNL     1       6.889  -1.438  57.431  1.00  0.00    -0.009 A 
HETATM   12  C11 UNL     1       5.912  -2.375  57.164  1.00  0.00     0.013 A 
HETATM   13  C12 UNL     1       4.581  -2.139  57.452  1.00  0.00     0.001 A 
HETATM   14  C13 UNL     1       4.183  -0.944  58.021  1.00  0.00     0.000 A 
HETATM   15  C14 UNL     1       5.171  -0.018  58.282  1.00  0.00     0.001 A 
HETATM   16  C15 UNL     1       6.511  -0.245  57.996  1.00  0.00     0.013 A 
ENDBRANCH   7  11
BRANCH   1  17
HETATM   17  S1  UNL     1      14.560  -1.473  56.710  1.00  0.00    -0.130 SA
BRANCH  17  18
HETATM   18  C4  UNL     1      15.003  -1.274  58.462  1.00  0.00     0.079 C 
BRANCH  18  19
HETATM   19  C3  UNL     1      13.983  -1.963  59.356  1.00  0.00     0.010 C 
BRANCH  19  20
HETATM   20  C2  UNL     1      13.484  -0.932  60.362  1.00  0.00    -0.004 C 
HETATM   21  C1  UNL     1      12.093  -1.326  60.847  1.00  0.00     0.005 C 
ENDBRANCH  19  20
ENDBRANCH  18  19
ENDBRANCH  17  18
ENDBRANCH   1  17
TORSDOF 5
ENDMDL
MODEL 3
REMARK VINA RESULT: -7.144011315      0.673      1.292
REMARK  5 active torsions:
REMARK  status: ('A' for Active; 'I' for Inactive)
REMARK    1  A    between atoms: C2_2  and  C3_3 
REMARK    2  A    between atoms: C3_3  and  C4_4 
REMARK    3  A    between atoms: C4_4  and  S1_5 
REMARK    4  A    between atoms: S1_5  and  C5_6 
REMARK    5  A    between atoms: C9_12  and  C10_13 
ROOT
HETATM    1  C5  UNL     1       6.207  -0.683  57.938  1.00  0.00     0.001 A 
HETATM    2  C6  UNL     1       6.191  -1.827  57.173  1.00  0.00     0.021 A 
HETATM    3  C7  UNL     1       7.357  -2.445  56.780  1.00  0.00     0.031 A 
HETATM    4  C8  UNL     1       8.600  -1.915  57.153  1.00  0.00     0.043 A 
HETATM    5  N1  UNL     1       9.874  -2.276  56.933  1.00  0.00    -0.355 N 
ATOM      6  H1  UNL     1      10.160  -3.092  56.393  1.00  0.00     0.166 HD
HETATM    7  C9  UNL     1      10.723  -1.416  57.520  1.00  0.00     0.043 A 
HETATM    8  C16 UNL     1       9.953  -0.463  58.144  1.00  0.00     0.044 A 
HETATM    9  C17 UNL     1       8.612  -0.770  57.918  1.00  0.00    -0.006 A 
HETATM   10  C18 UNL     1       7.421  -0.158  58.309  1.00  0.00     0.032 A 
ENDROOT
BRANCH   7  11
HETATM   11  C10 UNL     1      12.196  -1.463  57.513  1.00  0.00    -0.009 A 
HETATM   12  C11 UNL     1      12.901  -1.479  56.327  1.00  0.00     0.013 A 
HETATM   13  C12 UNL     1      14.282  -1.522  56.304  1.00  0.00     0.001 A 
HETATM   14  C13 UNL     1      15.007  -1.551  57.479  1.00  0.00     0.000 A 
HETATM   15  C14 UNL     1      14.289  -1.534  58.656  1.00  0.00     0.001 A 
HETATM   16  C15 UNL     1      12.901  -1.491  58.691  1.00  0.00     0.013 A 
ENDBRANCH   7  11
BRANCH   1  17
HETATM   17  S1  UNL     1       4.722   0.151  58.469  1.00  0.00    -0.130 SA
BRANCH  17  18
HETATM   18  C4  UNL     1       4.318   1.535  57.363  1.00  0.00     0.079 C 
BRANCH  18  19
HETATM   19  C3  UNL     1       5.222   2.727  57.640  1.00  0.00     0.010 C 
BRANCH  19  20
HETATM   20  C2  UNL     1       5.727   3.242  56.297  1.00  0.00    -0.004 C 
HETATM   21  C1  UNL     1       7.056   2.573  55.963  1.00  0.00     0.005 C 
ENDBRANCH  19  20
ENDBRANCH  18  19
ENDBRANCH  17  18
ENDBRANCH   1  17
TORSDOF 5
ENDMDL
MODEL 4
REMARK VINA RESULT: -7.137411128      0.686      1.677
REMARK  5 active torsions:
REMARK  status: ('A' for Active; 'I' for Inactive)
REMARK    1  A    between atoms: C2_2  and  C3_3 
REMARK    2  A    between atoms: C3_3  and  C4_4 
REMARK    3  A    between atoms: C4_4  and  S1_5 
REMARK    4  A    between atoms: S1_5  and  C5_6 
REMARK    5  A    between atoms: C9_12  and  C10_13 
ROOT
HETATM    1  C5  UNL     1       6.221  -0.673  57.924  1.00  0.00     0.001 A 
HETATM    2  C6  UNL     1       6.204  -1.821  57.166  1.00  0.00     0.021 A 
HETATM    3  C7  UNL     1       7.370  -2.443  56.776  1.00  0.00     0.031 A 
HETATM    4  C8  UNL     1       8.613  -1.914  57.147  1.00  0.00     0.043 A 
HETATM    5  N1  UNL     1       9.887  -2.277  56.930  1.00  0.00    -0.355 N 
ATOM      6  H1  UNL     1      10.171  -3.097  56.394  1.00  0.00     0.166 HD
HETATM    7  C9  UNL     1      10.736  -1.416  57.513  1.00  0.00     0.043 A 
HETATM    8  C16 UNL     1       9.967  -0.459  58.132  1.00  0.00     0.044 A 
HETATM    9  C17 UNL     1       8.627  -0.765  57.907  1.00  0.00    -0.006 A 
HETATM   10  C18 UNL     1       7.436  -0.149  58.293  1.00  0.00     0.032 A 
ENDROOT
BRANCH   7  11
HETATM   11  C10 UNL     1      12.209  -1.466  57.507  1.00  0.00    -0.009 A 
HETATM   12  C11 UNL     1      12.925  -1.477  58.686  1.00  0.00     0.013 A 
HETATM   13  C12 UNL     1      14.307  -1.524  58.696  1.00  0.00     0.001 A 
HETATM   14  C13 UNL     1      15.021  -1.561  57.514  1.00  0.00     0.000 A 
HETATM   15  C14 UNL     1      14.290  -1.550  56.344  1.00  0.00     0.001 A 
HETATM   16  C15 UNL     1      12.903  -1.502  56.322  1.00  0.00     0.013 A 
ENDBRANCH   7  11
BRANCH   1  17
HETATM   17  S1  UNL     1       4.738   0.166  58.451  1.00  0.00    -0.130 SA
BRANCH  17  18
HETATM   18  C4  UNL     1       4.327   1.534  57.326  1.00  0.00     0.079 C 
BRANCH  18  19
HETATM   19  C3  UNL     1       5.228   2.732  57.586  1.00  0.00     0.010 C 
BRANCH  19  20
HETATM   20  C2  UNL     1       5.731   3.228  56.235  1.00  0.00    -0.004 C 
HETATM   21  C1  UNL     1       7.106   2.632  55.954  1.00  0.00     0.005 C 
ENDBRANCH  19  20
ENDBRANCH  18  19
ENDBRANCH  17  18
ENDBRANCH   1  17
TORSDOF 5
ENDMDL
MODEL 5
REMARK VINA RESULT: -7.082582255      2.644      8.115
REMARK  5 active torsions:
REMARK  status: ('A' for Active; 'I' for Inactive)
REMARK    1  A    between atoms: C2_2  and  C3_3 
REMARK    2  A    between atoms: C3_3  and  C4_4 
REMARK    3  A    between atoms: C4_4  and  S1_5 
REMARK    4  A    between atoms: S1_5  and  C5_6 
REMARK    5  A    between atoms: C9_12  and  C10_13 
ROOT
HETATM    1  C5  UNL     1      10.824  -2.064  57.223  1.00  0.00     0.001 A 
HETATM    2  C6  UNL     1      10.872  -1.030  58.130  1.00  0.00     0.021 A 
HETATM    3  C7  UNL     1       9.726  -0.398  58.561  1.00  0.00     0.031 A 
HETATM    4  C8  UNL     1       8.472  -0.797  58.079  1.00  0.00     0.043 A 
HETATM    5  N1  UNL     1       7.213  -0.390  58.300  1.00  0.00    -0.355 N 
ATOM      6  H1  UNL     1       6.951   0.367  58.932  1.00  0.00     0.166 HD
HETATM    7  C9  UNL     1       6.342  -1.113  57.576  1.00  0.00     0.043 A 
HETATM    8  C16 UNL     1       7.083  -2.023  56.860  1.00  0.00     0.044 A 
HETATM    9  C17 UNL     1       8.428  -1.832  57.171  1.00  0.00    -0.006 A 
HETATM   10  C18 UNL     1       9.598  -2.462  56.746  1.00  0.00     0.032 A 
ENDROOT
BRANCH   7  11
HETATM   11  C10 UNL     1       4.875  -0.976  57.539  1.00  0.00    -0.009 A 
HETATM   12  C11 UNL     1       4.155  -1.353  56.425  1.00  0.00     0.013 A 
HETATM   13  C12 UNL     1       2.779  -1.232  56.375  1.00  0.00     0.001 A 
HETATM   14  C13 UNL     1       2.075  -0.725  57.451  1.00  0.00     0.000 A 
HETATM   15  C14 UNL     1       2.810  -0.354  58.557  1.00  0.00     0.001 A 
HETATM   16  C15 UNL     1       4.192  -0.470  58.618  1.00  0.00     0.013 A 
ENDBRANCH   7  11
BRANCH   1  17
HETATM   17  S1  UNL     1      12.279  -2.911  56.637  1.00  0.00    -0.130 SA
BRANCH  17  18
HETATM   18  C4  UNL     1      13.442  -1.751  55.858  1.00  0.00     0.079 C 
BRANCH  18  19
HETATM   19  C3  UNL     1      14.650  -1.519  56.753  1.00  0.00     0.010 C 
BRANCH  19  20
HETATM   20  C2  UNL     1      14.350  -2.160  58.103  1.00  0.00    -0.004 C 
HETATM   21  C1  UNL     1      14.993  -1.335  59.213  1.00  0.00     0.005 C 
ENDBRANCH  19  20
ENDBRANCH  18  19
ENDBRANCH  17  18
ENDBRANCH   1  17
TORSDOF 5
ENDMDL
