MODEL 1
REMARK VINA RESULT: -8.316802069      0.000      0.000
REMARK  5 active torsions:
REMARK  status: ('A' for Active; 'I' for Inactive)
REMARK    1  A    between atoms: C2_2  and  C3_3 
REMARK    2  A    between atoms: C2_2  and  C9_9 
REMARK    3  A    between atoms: C14_14  and  N1_15 
REMARK    4  A    between atoms: N1_15  and  C15_17 
REMARK    5  A    between atoms: C15_17  and  C16_18 
ROOT
HETATM    1  C9  UNL     1       9.740  -1.509  56.274  1.00  0.00     0.001 A 
HETATM    2  C10 UNL     1       9.614  -0.712  55.121  1.00  0.00     0.014 A 
HETATM    3  C11 UNL     1      10.285  -1.044  53.965  1.00  0.00     0.001 A 
HETATM    4  C12 UNL     1      11.084  -2.165  53.944  1.00  0.00     0.002 A 
HETATM    5  C13 UNL     1      11.215  -2.951  55.066  1.00  0.00     0.030 A 
HETATM    6  C14 UNL     1      10.531  -2.614  56.249  1.00  0.00     0.039 A 
ENDROOT
BRANCH   6   7
HETATM    7  N1  UNL     1      10.710  -3.411  57.403  1.00  0.00    -0.385 N 
ATOM      8  H1  UNL     1       9.920  -3.695  57.982  1.00  0.00     0.160 HD
BRANCH   7   9
HETATM    9  C15 UNL     1      12.073  -3.806  57.725  1.00  0.00     0.158 C 
BRANCH   9  10
HETATM   10  C16 UNL     1      12.876  -2.779  58.382  1.00  0.00    -0.041 A 
HETATM   11  C17 UNL     1      12.571  -2.133  59.548  1.00  0.00     0.009 A 
HETATM   12  C18 UNL     1      13.424  -1.168  60.086  1.00  0.00     0.001 A 
HETATM   13  C19 UNL     1      14.592  -0.866  59.429  1.00  0.00     0.000 A 
HETATM   14  C20 UNL     1      14.939  -1.495  58.251  1.00  0.00     0.001 A 
HETATM   15  C21 UNL     1      14.079  -2.439  57.747  1.00  0.00     0.009 A 
ENDBRANCH   9  10
ENDBRANCH   7   9
ENDBRANCH   6   7
BRANCH   1  16
HETATM   16  C2  UNL     1       9.015  -1.122  57.472  1.00  0.00    -0.023 C 
HETATM   17  C1  UNL     1       9.683  -0.598  58.452  1.00  0.00     0.025 C 
BRANCH  16  18
HETATM   18  C3  UNL     1       7.579  -1.340  57.522  1.00  0.00    -0.026 A 
HETATM   19  C4  UNL     1       6.737  -0.373  58.002  1.00  0.00     0.012 A 
HETATM   20  C5  UNL     1       5.355  -0.578  58.038  1.00  0.00     0.001 A 
HETATM   21  C6  UNL     1       4.804  -1.757  57.592  1.00  0.00     0.000 A 
HETATM   22  C7  UNL     1       5.643  -2.727  57.110  1.00  0.00     0.001 A 
HETATM   23  C8  UNL     1       7.000  -2.512  57.080  1.00  0.00     0.012 A 
ENDBRANCH  16  18
ENDBRANCH   1  16
TORSDOF 5
ENDMDL
MODEL 2
REMARK VINA RESULT: -8.294118381      0.017      1.002
REMARK  5 active torsions:
REMARK  status: ('A' for Active; 'I' for Inactive)
REMARK    1  A    between atoms: C2_2  and  C3_3 
REMARK    2  A    between atoms: C2_2  and  C9_9 
REMARK    3  A    between atoms: C14_14  and  N1_15 
REMARK    4  A    between atoms: N1_15  and  C15_17 
REMARK    5  A    between atoms: C15_17  and  C16_18 
ROOT
HETATM    1  C9  UNL     1       9.735  -1.506  56.272  1.00  0.00     0.001 A 
HETATM    2  C10 UNL     1       9.613  -0.707  55.120  1.00  0.00     0.014 A 
HETATM    3  C11 UNL     1      10.289  -1.037  53.966  1.00  0.00     0.001 A 
HETATM    4  C12 UNL     1      11.088  -2.158  53.946  1.00  0.00     0.002 A 
HETATM    5  C13 UNL     1      11.215  -2.945  55.067  1.00  0.00     0.030 A 
HETATM    6  C14 UNL     1      10.526  -2.610  56.248  1.00  0.00     0.039 A 
ENDROOT
BRANCH   6   7
HETATM    7  N1  UNL     1      10.701  -3.409  57.401  1.00  0.00    -0.385 N 
ATOM      8  H1  UNL     1       9.910  -3.690  57.980  1.00  0.00     0.160 HD
BRANCH   7   9
HETATM    9  C15 UNL     1      12.062  -3.812  57.724  1.00  0.00     0.158 C 
BRANCH   9  10
HETATM   10  C16 UNL     1      12.872  -2.789  58.377  1.00  0.00    -0.041 A 
HETATM   11  C17 UNL     1      12.574  -2.140  59.543  1.00  0.00     0.009 A 
HETATM   12  C18 UNL     1      13.433  -1.179  60.078  1.00  0.00     0.001 A 
HETATM   13  C19 UNL     1      14.600  -0.882  59.417  1.00  0.00     0.000 A 
HETATM   14  C20 UNL     1      14.940  -1.513  58.238  1.00  0.00     0.001 A 
HETATM   15  C21 UNL     1      14.074  -2.454  57.737  1.00  0.00     0.009 A 
ENDBRANCH   9  10
ENDBRANCH   7   9
ENDBRANCH   6   7
BRANCH   1  16
HETATM   16  C2  UNL     1       9.005  -1.121  57.468  1.00  0.00    -0.023 C 
HETATM   17  C1  UNL     1       9.670  -0.606  58.455  1.00  0.00     0.025 C 
BRANCH  16  18
HETATM   18  C3  UNL     1       7.568  -1.331  57.508  1.00  0.00    -0.026 A 
HETATM   19  C4  UNL     1       7.017  -2.507  57.075  1.00  0.00     0.012 A 
HETATM   20  C5  UNL     1       5.635  -2.714  57.125  1.00  0.00     0.001 A 
HETATM   21  C6  UNL     1       4.793  -1.742  57.611  1.00  0.00     0.000 A 
HETATM   22  C7  UNL     1       5.340  -0.564  58.046  1.00  0.00     0.001 A 
HETATM   23  C8  UNL     1       6.699  -0.374  57.991  1.00  0.00     0.012 A 
ENDBRANCH  16  18
ENDBRANCH   1  16
TORSDOF 5
ENDMDL
MODEL 3
REMARK VINA RESULT: -8.059473825      1.881      4.702
REMARK  5 active torsions:
REMARK  status: ('A' for Active; 'I' for Inactive)
REMARK    1  A    between atoms: C2_2  and  C3_3 
REMARK    2  A    between atoms: C2_2  and  C9_9 
REMARK    3  A    between atoms: C14_14  and  N1_15 
REMARK    4  A    between atoms: N1_15  and  C15_17 
REMARK    5  A    between atoms: C15_17  and  C16_18 
ROOT
HETATM    1  C9  UNL     1       9.556  -1.211  55.426  1.00  0.00     0.001 A 
HETATM    2  C10 UNL     1       9.378  -0.449  54.257  1.00  0.00     0.014 A 
HETATM    3  C11 UNL     1       8.516   0.626  54.248  1.00  0.00     0.001 A 
HETATM    4  C12 UNL     1       7.829   0.952  55.394  1.00  0.00     0.002 A 
HETATM    5  C13 UNL     1       7.995   0.213  56.543  1.00  0.00     0.030 A 
HETATM    6  C14 UNL     1       8.873  -0.887  56.555  1.00  0.00     0.039 A 
ENDROOT
BRANCH   6   7
HETATM    7  N1  UNL     1       9.000  -1.658  57.733  1.00  0.00    -0.385 N 
ATOM      8  H1  UNL     1       9.047  -2.676  57.702  1.00  0.00     0.160 HD
BRANCH   7   9
HETATM    9  C15 UNL     1       9.060  -0.931  58.992  1.00  0.00     0.158 C 
BRANCH   9  10
HETATM   10  C16 UNL     1      10.405  -0.671  59.495  1.00  0.00    -0.041 A 
HETATM   11  C17 UNL     1      11.200   0.394  59.170  1.00  0.00     0.009 A 
HETATM   12  C18 UNL     1      12.474   0.542  59.721  1.00  0.00     0.001 A 
HETATM   13  C19 UNL     1      12.933  -0.403  60.607  1.00  0.00     0.000 A 
HETATM   14  C20 UNL     1      12.165  -1.491  60.962  1.00  0.00     0.001 A 
HETATM   15  C21 UNL     1      10.916  -1.609  60.402  1.00  0.00     0.009 A 
ENDBRANCH   9  10
ENDBRANCH   7   9
ENDBRANCH   6   7
BRANCH   1  16
HETATM   16  C2  UNL     1      10.473  -2.338  55.391  1.00  0.00    -0.023 C 
HETATM   17  C1  UNL     1      10.168  -3.356  54.650  1.00  0.00     0.025 C 
BRANCH  16  18
HETATM   18  C3  UNL     1      11.687  -2.276  56.188  1.00  0.00    -0.026 A 
HETATM   19  C4  UNL     1      11.951  -3.222  57.142  1.00  0.00     0.012 A 
HETATM   20  C5  UNL     1      13.125  -3.169  57.899  1.00  0.00     0.001 A 
HETATM   21  C6  UNL     1      14.045  -2.165  57.706  1.00  0.00     0.000 A 
HETATM   22  C7  UNL     1      13.785  -1.217  56.753  1.00  0.00     0.001 A 
HETATM   23  C8  UNL     1      12.627  -1.281  56.015  1.00  0.00     0.012 A 
ENDBRANCH  16  18
ENDBRANCH   1  16
TORSDOF 5
ENDMDL
MODEL 4
REMARK VINA RESULT: -8.056037515      1.505      3.452
REMARK  5 active torsions:
REMARK  status: ('A' for Active; 'I' for Inactive)
REMARK    1  A    between atoms: C2_2  and  C3_3 
REMARK    2  A    between atoms: C2_2  and  C9_9 
REMARK    3  A    between atoms: C14_14  and  N1_15 
REMARK    4  A    between atoms: N1_15  and  C15_17 
REMARK    5  A    between atoms: C15_17  and  C16_18 
ROOT
HETATM    1  C9  UNL     1       9.806  -1.441  56.468  1.00  0.00     0.001 A 
HETATM    2  C10 UNL     1       9.588  -0.522  55.425  1.00  0.00     0.014 A 
HETATM    3  C11 UNL     1       9.950  -0.833  54.132  1.00  0.00     0.001 A 
HETATM    4  C12 UNL     1      10.528  -2.053  53.866  1.00  0.00     0.002 A 
HETATM    5  C13 UNL     1      10.747  -2.959  54.878  1.00  0.00     0.030 A 
HETATM    6  C14 UNL     1      10.379  -2.644  56.200  1.00  0.00     0.039 A 
ENDROOT
BRANCH   6   7
HETATM    7  N1  UNL     1      10.648  -3.572  57.232  1.00  0.00    -0.385 N 
ATOM      8  H1  UNL     1       9.936  -3.834  57.913  1.00  0.00     0.160 HD
BRANCH   7   9
HETATM    9  C15 UNL     1      11.990  -4.133  57.280  1.00  0.00     0.158 C 
BRANCH   9  10
HETATM   10  C16 UNL     1      13.068  -3.156  57.395  1.00  0.00    -0.041 A 
HETATM   11  C17 UNL     1      13.511  -2.318  56.409  1.00  0.00     0.009 A 
HETATM   12  C18 UNL     1      14.551  -1.416  56.638  1.00  0.00     0.001 A 
HETATM   13  C19 UNL     1      15.137  -1.372  57.880  1.00  0.00     0.000 A 
HETATM   14  C20 UNL     1      14.720  -2.198  58.903  1.00  0.00     0.001 A 
HETATM   15  C21 UNL     1      13.695  -3.076  58.646  1.00  0.00     0.009 A 
ENDBRANCH   9  10
ENDBRANCH   7   9
ENDBRANCH   6   7
BRANCH   1  16
HETATM   16  C2  UNL     1       9.411  -1.073  57.817  1.00  0.00    -0.023 C 
HETATM   17  C1  UNL     1       8.146  -0.999  58.088  1.00  0.00     0.025 C 
BRANCH  16  18
HETATM   18  C3  UNL     1      10.447  -0.803  58.799  1.00  0.00    -0.026 A 
HETATM   19  C4  UNL     1      11.341   0.218  58.616  1.00  0.00     0.012 A 
HETATM   20  C5  UNL     1      12.330   0.486  59.567  1.00  0.00     0.001 A 
HETATM   21  C6  UNL     1      12.430  -0.269  60.713  1.00  0.00     0.000 A 
HETATM   22  C7  UNL     1      11.538  -1.291  60.900  1.00  0.00     0.001 A 
HETATM   23  C8  UNL     1      10.571  -1.543  59.957  1.00  0.00     0.012 A 
ENDBRANCH  16  18
ENDBRANCH   1  16
TORSDOF 5
ENDMDL
MODEL 5
REMARK VINA RESULT: -7.927035178      0.730      6.379
REMARK  5 active torsions:
REMARK  status: ('A' for Active; 'I' for Inactive)
REMARK    1  A    between atoms: C2_2  and  C3_3 
REMARK    2  A    between atoms: C2_2  and  C9_9 
REMARK    3  A    between atoms: C14_14  and  N1_15 
REMARK    4  A    between atoms: N1_15  and  C15_17 
REMARK    5  A    between atoms: C15_17  and  C16_18 
ROOT
HETATM    1  C9  UNL     1      11.286  -2.455  56.188  1.00  0.00     0.001 A 
HETATM    2  C10 UNL     1      11.870  -2.598  54.915  1.00  0.00     0.014 A 
HETATM    3  C11 UNL     1      11.319  -1.971  53.819  1.00  0.00     0.001 A 
HETATM    4  C12 UNL     1      10.189  -1.201  53.976  1.00  0.00     0.002 A 
HETATM    5  C13 UNL     1       9.610  -1.055  55.216  1.00  0.00     0.030 A 
HETATM    6  C14 UNL     1      10.170  -1.695  56.337  1.00  0.00     0.039 A 
ENDROOT
BRANCH   6   7
HETATM    7  N1  UNL     1       9.537  -1.565  57.595  1.00  0.00    -0.385 N 
ATOM      8  H1  UNL     1       9.793  -2.158  58.384  1.00  0.00     0.160 HD
BRANCH   7   9
HETATM    9  C15 UNL     1       8.503  -0.548  57.710  1.00  0.00     0.158 C 
BRANCH   9  10
HETATM   10  C16 UNL     1       7.133  -1.051  57.686  1.00  0.00    -0.041 A 
HETATM   11  C17 UNL     1       6.719  -2.251  57.178  1.00  0.00     0.009 A 
HETATM   12  C18 UNL     1       5.376  -2.629  57.215  1.00  0.00     0.001 A 
HETATM   13  C19 UNL     1       4.456  -1.777  57.775  1.00  0.00     0.000 A 
HETATM   14  C20 UNL     1       4.831  -0.557  58.299  1.00  0.00     0.001 A 
HETATM   15  C21 UNL     1       6.159  -0.213  58.247  1.00  0.00     0.009 A 
ENDBRANCH   9  10
ENDBRANCH   7   9
ENDBRANCH   6   7
BRANCH   1  16
HETATM   16  C2  UNL     1      11.898  -3.134  57.317  1.00  0.00    -0.023 C 
HETATM   17  C1  UNL     1      11.561  -4.363  57.552  1.00  0.00     0.025 C 
BRANCH  16  18
HETATM   18  C3  UNL     1      12.858  -2.408  58.132  1.00  0.00    -0.026 A 
HETATM   19  C4  UNL     1      12.505  -1.910  59.358  1.00  0.00     0.012 A 
HETATM   20  C5  UNL     1      13.431  -1.223  60.147  1.00  0.00     0.001 A 
HETATM   21  C6  UNL     1      14.722  -1.029  59.714  1.00  0.00     0.000 A 
HETATM   22  C7  UNL     1      15.080  -1.526  58.489  1.00  0.00     0.001 A 
HETATM   23  C8  UNL     1      14.159  -2.199  57.723  1.00  0.00     0.012 A 
ENDBRANCH  16  18
ENDBRANCH   1  16
TORSDOF 5
ENDMDL
