MODEL 1
REMARK VINA RESULT: -7.996351822      0.000      0.000
REMARK  6 active torsions:
REMARK  status: ('A' for Active; 'I' for Inactive)
REMARK    1  A    between atoms: C2_2  and  C3_3 
REMARK    2  A    between atoms: C3_3  and  C4_4 
REMARK    3  A    between atoms: C4_4  and  C5_5 
REMARK    4  A    between atoms: C5_5  and  C6_6 
REMARK    5  A    between atoms: C9_9  and  N1_10 
REMARK    6  A    between atoms: N1_10  and  C10_12 
ROOT
HETATM    1  N1  UNL     1       7.410  -0.805  57.129  1.00  0.00    -0.343 N 
ATOM      2  H1  UNL     1       6.801  -1.615  57.020  1.00  0.00     0.167 HD
ENDROOT
BRANCH   1   3
HETATM    3  C9  UNL     1       8.721  -1.024  57.591  1.00  0.00     0.033 A 
HETATM    4  C8  UNL     1       9.146  -0.414  58.746  1.00  0.00     0.030 A 
HETATM    5  C7  UNL     1      10.443  -0.609  59.235  1.00  0.00     0.009 A 
HETATM    6  C6  UNL     1      11.315  -1.426  58.553  1.00  0.00    -0.058 A 
HETATM    7  C20 UNL     1      10.873  -2.040  57.382  1.00  0.00     0.009 A 
HETATM    8  C19 UNL     1       9.585  -1.841  56.905  1.00  0.00     0.030 A 
BRANCH   6   9
HETATM    9  C5  UNL     1      12.703  -1.675  59.018  1.00  0.00     0.038 C 
BRANCH   9  10
HETATM   10  C4  UNL     1      13.513  -2.463  58.056  1.00  0.00     0.005 C 
BRANCH  10  11
HETATM   11  C3  UNL     1      14.710  -1.684  57.615  1.00  0.00    -0.000 C 
BRANCH  11  12
HETATM   12  C2  UNL     1      14.543  -1.246  56.155  1.00  0.00    -0.005 C 
HETATM   13  C1  UNL     1      13.643  -2.310  55.517  1.00  0.00     0.005 C 
ENDBRANCH  11  12
ENDBRANCH  10  11
ENDBRANCH   9  10
ENDBRANCH   6   9
ENDBRANCH   1   3
BRANCH   1  14
HETATM   14  C10 UNL     1       6.931   0.352  56.836  1.00  0.00     0.106 A 
HETATM   15  C11 UNL     1       5.921   0.922  57.585  1.00  0.00     0.049 A 
HETATM   16  C12 UNL     1       5.438   2.182  57.223  1.00  0.00     0.017 A 
HETATM   17  C13 UNL     1       5.994   2.807  56.124  1.00  0.00    -0.009 A 
HETATM   18  C14 UNL     1       5.540   4.051  55.741  1.00  0.00     0.013 A 
HETATM   19  C18 UNL     1       6.999   2.193  55.413  1.00  0.00     0.043 A 
HETATM   20  C15 UNL     1       6.103   4.684  54.628  1.00  0.00     0.001 A 
HETATM   21  C16 UNL     1       7.116   4.075  53.905  1.00  0.00     0.002 A 
HETATM   22  C17 UNL     1       7.554   2.833  54.306  1.00  0.00     0.030 A 
HETATM   23  N2  UNL     1       7.465   0.981  55.762  1.00  0.00    -0.342 N 
ATOM     24  H2  UNL     1       8.211   0.540  55.224  1.00  0.00     0.167 HD
ENDBRANCH   1  14
TORSDOF 6
ENDMDL
MODEL 2
REMARK VINA RESULT: -7.842218197      0.781      1.681
REMARK  6 active torsions:
REMARK  status: ('A' for Active; 'I' for Inactive)
REMARK    1  A    between atoms: C2_2  and  C3_3 
REMARK    2  A    between atoms: C3_3  and  C4_4 
REMARK    3  A    between atoms: C4_4  and  C5_5 
REMARK    4  A    between atoms: C5_5  and  C6_6 
REMARK    5  A    between atoms: C9_9  and  N1_10 
REMARK    6  A    between atoms: N1_10  and  C10_12 
ROOT
HETATM    1  N1  UNL     1       7.163  -0.504  57.811  1.00  0.00    -0.343 N 
ATOM      2  H1  UNL     1       6.534  -1.040  58.409  1.00  0.00     0.167 HD
ENDROOT
BRANCH   1   3
HETATM    3  C9  UNL     1       8.453  -1.017  57.583  1.00  0.00     0.033 A 
HETATM    4  C8  UNL     1       8.634  -2.015  56.658  1.00  0.00     0.030 A 
HETATM    5  C7  UNL     1       9.903  -2.549  56.406  1.00  0.00     0.009 A 
HETATM    6  C6  UNL     1      10.995  -2.072  57.094  1.00  0.00    -0.058 A 
HETATM    7  C20 UNL     1      10.799  -1.059  58.031  1.00  0.00     0.009 A 
HETATM    8  C19 UNL     1       9.537  -0.535  58.274  1.00  0.00     0.030 A 
BRANCH   6   9
HETATM    9  C5  UNL     1      12.367  -2.595  56.874  1.00  0.00     0.038 C 
BRANCH   9  10
HETATM   10  C4  UNL     1      13.274  -1.614  56.226  1.00  0.00     0.005 C 
BRANCH  10  11
HETATM   11  C3  UNL     1      14.573  -1.536  56.959  1.00  0.00    -0.000 C 
BRANCH  11  12
HETATM   12  C2  UNL     1      14.448  -2.224  58.324  1.00  0.00    -0.005 C 
HETATM   13  C1  UNL     1      14.892  -1.173  59.347  1.00  0.00     0.005 C 
ENDBRANCH  11  12
ENDBRANCH  10  11
ENDBRANCH   9  10
ENDBRANCH   6   9
ENDBRANCH   1   3
BRANCH   1  14
HETATM   14  C10 UNL     1       6.724   0.598  57.313  1.00  0.00     0.106 A 
HETATM   15  C11 UNL     1       5.646   1.258  57.868  1.00  0.00     0.049 A 
HETATM   16  C12 UNL     1       5.213   2.453  57.288  1.00  0.00     0.017 A 
HETATM   17  C13 UNL     1       5.884   2.924  56.177  1.00  0.00    -0.009 A 
HETATM   18  C14 UNL     1       5.481   4.101  55.581  1.00  0.00     0.013 A 
HETATM   19  C18 UNL     1       6.953   2.226  55.666  1.00  0.00     0.043 A 
HETATM   20  C15 UNL     1       6.161   4.579  54.456  1.00  0.00     0.001 A 
HETATM   21  C16 UNL     1       7.239   3.883  53.933  1.00  0.00     0.002 A 
HETATM   22  C17 UNL     1       7.624   2.711  54.544  1.00  0.00     0.030 A 
HETATM   23  N2  UNL     1       7.371   1.077  56.224  1.00  0.00    -0.342 N 
ATOM     24  H2  UNL     1       8.166   0.571  55.832  1.00  0.00     0.167 HD
ENDBRANCH   1  14
TORSDOF 6
ENDMDL
MODEL 3
REMARK VINA RESULT: -7.808740313      0.744      1.331
REMARK  6 active torsions:
REMARK  status: ('A' for Active; 'I' for Inactive)
REMARK    1  A    between atoms: C2_2  and  C3_3 
REMARK    2  A    between atoms: C3_3  and  C4_4 
REMARK    3  A    between atoms: C4_4  and  C5_5 
REMARK    4  A    between atoms: C5_5  and  C6_6 
REMARK    5  A    between atoms: C9_9  and  N1_10 
REMARK    6  A    between atoms: N1_10  and  C10_12 
ROOT
HETATM    1  N1  UNL     1       7.110  -0.645  57.490  1.00  0.00    -0.343 N 
ATOM      2  H1  UNL     1       6.403  -1.269  57.878  1.00  0.00     0.167 HD
ENDROOT
BRANCH   1   3
HETATM    3  C9  UNL     1       8.439  -1.105  57.441  1.00  0.00     0.033 A 
HETATM    4  C8  UNL     1       9.380  -0.554  58.276  1.00  0.00     0.030 A 
HETATM    5  C7  UNL     1      10.711  -0.987  58.255  1.00  0.00     0.009 A 
HETATM    6  C6  UNL     1      11.093  -1.982  57.385  1.00  0.00    -0.058 A 
HETATM    7  C20 UNL     1      10.129  -2.534  56.542  1.00  0.00     0.009 A 
HETATM    8  C19 UNL     1       8.811  -2.099  56.570  1.00  0.00     0.030 A 
BRANCH   6   9
HETATM    9  C5  UNL     1      12.487  -2.486  57.313  1.00  0.00     0.038 C 
BRANCH   9  10
HETATM   10  C4  UNL     1      13.385  -1.620  56.507  1.00  0.00     0.005 C 
BRANCH  10  11
HETATM   11  C3  UNL     1      14.745  -1.555  57.124  1.00  0.00    -0.000 C 
BRANCH  11  12
HETATM   12  C2  UNL     1      14.716  -2.177  58.525  1.00  0.00    -0.005 C 
HETATM   13  C1  UNL     1      14.846  -0.995  59.492  1.00  0.00     0.005 C 
ENDBRANCH  11  12
ENDBRANCH  10  11
ENDBRANCH   9  10
ENDBRANCH   6   9
ENDBRANCH   1   3
BRANCH   1  14
HETATM   14  C10 UNL     1       6.729   0.512  57.077  1.00  0.00     0.106 A 
HETATM   15  C11 UNL     1       5.769   1.236  57.754  1.00  0.00     0.049 A 
HETATM   16  C12 UNL     1       5.393   2.488  57.262  1.00  0.00     0.017 A 
HETATM   17  C13 UNL     1       6.002   2.951  56.112  1.00  0.00    -0.009 A 
HETATM   18  C14 UNL     1       5.654   4.183  55.600  1.00  0.00     0.013 A 
HETATM   19  C18 UNL     1       6.954   2.187  55.477  1.00  0.00     0.043 A 
HETATM   20  C15 UNL     1       6.271   4.652  54.436  1.00  0.00     0.001 A 
HETATM   21  C16 UNL     1       7.231   3.891  53.788  1.00  0.00     0.002 A 
HETATM   22  C17 UNL     1       7.564   2.664  54.317  1.00  0.00     0.030 A 
HETATM   23  N2  UNL     1       7.316   0.982  55.951  1.00  0.00    -0.342 N 
ATOM     24  H2  UNL     1       8.024   0.429  55.468  1.00  0.00     0.167 HD
ENDBRANCH   1  14
TORSDOF 6
ENDMDL
MODEL 4
REMARK VINA RESULT: -7.801070948      0.805      1.637
REMARK  6 active torsions:
REMARK  status: ('A' for Active; 'I' for Inactive)
REMARK    1  A    between atoms: C2_2  and  C3_3 
REMARK    2  A    between atoms: C3_3  and  C4_4 
REMARK    3  A    between atoms: C4_4  and  C5_5 
REMARK    4  A    between atoms: C5_5  and  C6_6 
REMARK    5  A    between atoms: C9_9  and  N1_10 
REMARK    6  A    between atoms: N1_10  and  C10_12 
ROOT
HETATM    1  N1  UNL     1       7.394  -0.445  56.703  1.00  0.00    -0.343 N 
ATOM      2  H1  UNL     1       6.622  -1.108  56.773  1.00  0.00     0.167 HD
ENDROOT
BRANCH   1   3
HETATM    3  C9  UNL     1       8.639  -0.826  57.238  1.00  0.00     0.033 A 
HETATM    4  C8  UNL     1       9.108  -0.210  58.371  1.00  0.00     0.030 A 
HETATM    5  C7  UNL     1      10.342  -0.562  58.931  1.00  0.00     0.009 A 
HETATM    6  C6  UNL     1      11.106  -1.543  58.341  1.00  0.00    -0.058 A 
HETATM    7  C20 UNL     1      10.619  -2.161  57.190  1.00  0.00     0.009 A 
HETATM    8  C19 UNL     1       9.395  -1.805  56.642  1.00  0.00     0.030 A 
BRANCH   6   9
HETATM    9  C5  UNL     1      12.422  -1.963  58.884  1.00  0.00     0.038 C 
BRANCH   9  10
HETATM   10  C4  UNL     1      13.293  -2.618  57.876  1.00  0.00     0.005 C 
BRANCH  10  11
HETATM   11  C3  UNL     1      14.519  -1.800  57.630  1.00  0.00    -0.000 C 
BRANCH  11  12
HETATM   12  C2  UNL     1      14.531  -1.295  56.182  1.00  0.00    -0.005 C 
HETATM   13  C1  UNL     1      13.603  -2.245  55.417  1.00  0.00     0.005 C 
ENDBRANCH  11  12
ENDBRANCH  10  11
ENDBRANCH   9  10
ENDBRANCH   6   9
ENDBRANCH   1   3
BRANCH   1  14
HETATM   14  C10 UNL     1       7.167   0.684  56.131  1.00  0.00     0.106 A 
HETATM   15  C11 UNL     1       7.819   1.045  54.969  1.00  0.00     0.049 A 
HETATM   16  C12 UNL     1       7.534   2.283  54.389  1.00  0.00     0.017 A 
HETATM   17  C13 UNL     1       6.607   3.099  55.007  1.00  0.00    -0.009 A 
HETATM   18  C14 UNL     1       6.302   4.328  54.460  1.00  0.00     0.013 A 
HETATM   19  C18 UNL     1       5.986   2.689  56.165  1.00  0.00     0.043 A 
HETATM   20  C15 UNL     1       5.363   5.154  55.087  1.00  0.00     0.001 A 
HETATM   21  C16 UNL     1       4.732   4.751  56.253  1.00  0.00     0.002 A 
HETATM   22  C17 UNL     1       5.051   3.520  56.780  1.00  0.00     0.030 A 
HETATM   23  N2  UNL     1       6.260   1.497  56.723  1.00  0.00    -0.342 N 
ATOM     24  H2  UNL     1       5.791   1.208  57.581  1.00  0.00     0.167 HD
ENDBRANCH   1  14
TORSDOF 6
ENDMDL
MODEL 5
REMARK VINA RESULT: -7.777326900      1.428      2.634
REMARK  6 active torsions:
REMARK  status: ('A' for Active; 'I' for Inactive)
REMARK    1  A    between atoms: C2_2  and  C3_3 
REMARK    2  A    between atoms: C3_3  and  C4_4 
REMARK    3  A    between atoms: C4_4  and  C5_5 
REMARK    4  A    between atoms: C5_5  and  C6_6 
REMARK    5  A    between atoms: C9_9  and  N1_10 
REMARK    6  A    between atoms: N1_10  and  C10_12 
ROOT
HETATM    1  N1  UNL     1       7.297  -0.842  57.471  1.00  0.00    -0.343 N 
ATOM      2  H1  UNL     1       6.815  -1.684  57.158  1.00  0.00     0.167 HD
ENDROOT
BRANCH   1   3
HETATM    3  C9  UNL     1       8.649  -0.959  57.846  1.00  0.00     0.033 A 
HETATM    4  C8  UNL     1       9.053  -0.513  59.080  1.00  0.00     0.030 A 
HETATM    5  C7  UNL     1      10.388  -0.613  59.486  1.00  0.00     0.009 A 
HETATM    6  C6  UNL     1      11.321  -1.167  58.640  1.00  0.00    -0.058 A 
HETATM    7  C20 UNL     1      10.899  -1.616  57.389  1.00  0.00     0.009 A 
HETATM    8  C19 UNL     1       9.573  -1.513  56.995  1.00  0.00     0.030 A 
BRANCH   6   9
HETATM    9  C5  UNL     1      12.752  -1.302  59.010  1.00  0.00     0.038 C 
BRANCH   9  10
HETATM   10  C4  UNL     1      13.488  -2.280  58.168  1.00  0.00     0.005 C 
BRANCH  10  11
HETATM   11  C3  UNL     1      14.748  -1.675  57.641  1.00  0.00    -0.000 C 
BRANCH  11  12
HETATM   12  C2  UNL     1      14.560  -1.262  56.176  1.00  0.00    -0.005 C 
HETATM   13  C1  UNL     1      13.612  -2.310  55.582  1.00  0.00     0.005 C 
ENDBRANCH  11  12
ENDBRANCH  10  11
ENDBRANCH   9  10
ENDBRANCH   6   9
ENDBRANCH   1   3
BRANCH   1  14
HETATM   14  C10 UNL     1       6.632   0.258  57.498  1.00  0.00     0.106 A 
HETATM   15  C11 UNL     1       6.988   1.333  56.708  1.00  0.00     0.049 A 
HETATM   16  C12 UNL     1       6.230   2.504  56.775  1.00  0.00     0.017 A 
HETATM   17  C13 UNL     1       5.150   2.537  57.635  1.00  0.00    -0.009 A 
HETATM   18  C14 UNL     1       4.380   3.678  57.726  1.00  0.00     0.013 A 
HETATM   19  C18 UNL     1       4.839   1.437  58.400  1.00  0.00     0.043 A 
HETATM   20  C15 UNL     1       3.286   3.711  58.597  1.00  0.00     0.001 A 
HETATM   21  C16 UNL     1       2.964   2.609  59.371  1.00  0.00     0.002 A 
HETATM   22  C17 UNL     1       3.746   1.480  59.265  1.00  0.00     0.030 A 
HETATM   23  N2  UNL     1       5.569   0.309  58.335  1.00  0.00    -0.342 N 
ATOM     24  H2  UNL     1       5.324  -0.498  58.909  1.00  0.00     0.167 HD
ENDBRANCH   1  14
TORSDOF 6
ENDMDL
