MODEL 1
REMARK VINA RESULT: -7.118859466      0.000      0.000
REMARK  9 active torsions:
REMARK  status: ('A' for Active; 'I' for Inactive)
REMARK    1  A    between atoms: N1_1  and  C1_4 
REMARK    2  A    between atoms: N4_13  and  C5_14 
REMARK    3  A    between atoms: C6_16  and  O3_17 
REMARK    4  A    between atoms: N5_19  and  N6_20 
REMARK    5  A    between atoms: C7_23  and  O4_24 
REMARK    6  A    between atoms: N7_28  and  C9_29 
REMARK    7  A    between atoms: C9_29  and  C10_30 
REMARK    8  A    between atoms: C10_30  and  O6_31 
REMARK    9  A    between atoms: C10_30  and  O7_33 
ROOT
HETATM    1  C1  UNL     1      19.511  24.760  99.272  1.00  0.00     0.680 A 
HETATM    2  N2  UNL     1      18.266  24.287  99.187  1.00  0.00    -0.154 N 
ATOM      3  H2  UNL     1      17.991  23.699  98.401  1.00  0.00     0.187 HD
HETATM    4  C2  UNL     1      17.381  24.594 100.146  1.00  0.00     0.290 A 
HETATM    5  O1  UNL     1      16.227  24.124 100.014  1.00  0.00    -0.265 OA
HETATM    6  C3  UNL     1      17.677  25.382 101.238  1.00  0.00     0.153 A 
HETATM    7  C4  UNL     1      18.998  25.846 101.267  1.00  0.00     0.162 A 
HETATM    8  N3  UNL     1      19.866  25.530 100.301  1.00  0.00    -0.174 N 
ATOM      9  H3  UNL     1      20.820  25.886 100.352  1.00  0.00     0.186 HD
HETATM   10  N4  UNL     1      19.063  26.596 102.398  1.00  0.00    -0.251 N 
HETATM   11  C8  UNL     1      17.884  26.607 103.036  1.00  0.00     0.333 A 
HETATM   12  O5  UNL     1      17.664  27.224 104.110  1.00  0.00    -0.246 OA
HETATM   13  N7  UNL     1      17.024  25.846 102.307  1.00  0.00    -0.286 N 
ENDROOT
BRANCH  10  14
HETATM   14  C5  UNL     1      20.256  27.282 102.837  1.00  0.00     0.283 C 
HETATM   15  O2  UNL     1      21.425  26.703 102.348  1.00  0.00    -0.318 OA
HETATM   16  C6  UNL     1      22.348  27.735 102.510  1.00  0.00     0.364 C 
HETATM   17  N5  UNL     1      21.687  28.863 101.884  1.00  0.00    -0.152 NA
HETATM   18  C7  UNL     1      20.325  28.706 102.355  1.00  0.00     0.266 C 
BRANCH  16  19
HETATM   19  O3  UNL     1      23.561  27.437 101.891  1.00  0.00    -0.357 OA
ATOM     20  H3  UNL     1      24.298  27.631 102.458  1.00  0.00     0.214 HD
ENDBRANCH  16  19
BRANCH  17  21
HETATM   21  N6  UNL     1      22.264  30.027 102.399  1.00  0.00    -0.357 NA
ATOM     22  H62 UNL     1      22.165  30.803 101.745  1.00  0.00     0.171 HD
ATOM     23  H61 UNL     1      21.685  30.338 103.179  1.00  0.00     0.171 HD
ENDBRANCH  17  21
BRANCH  18  24
HETATM   24  O4  UNL     1      20.154  29.555 103.470  1.00  0.00    -0.375 OA
ATOM     25  H4  UNL     1      20.481  29.103 104.239  1.00  0.00     0.211 HD
ENDBRANCH  18  24
ENDBRANCH  10  14
BRANCH  13  26
HETATM   26  C9  UNL     1      15.671  25.571 102.664  1.00  0.00     0.194 C 
BRANCH  26  27
HETATM   27  C10 UNL     1      15.464  24.432 103.610  1.00  0.00     0.272 C 
BRANCH  27  28
HETATM   28  O6  UNL     1      15.505  23.257 102.820  1.00  0.00    -0.370 OA
ATOM     29  H6  UNL     1      16.156  22.693 103.222  1.00  0.00     0.212 HD
ENDBRANCH  27  28
BRANCH  27  30
HETATM   30  O7  UNL     1      16.430  24.334 104.568  1.00  0.00    -0.370 OA
ATOM     31  H7  UNL     1      16.142  24.613 105.429  1.00  0.00     0.212 HD
ENDBRANCH  27  30
ENDBRANCH  26  27
ENDBRANCH  13  26
BRANCH   1  32
HETATM   32  N1  UNL     1      20.370  24.454  98.328  1.00  0.00    -0.234 N 
ATOM     33  H12 UNL     1      20.816  23.536  98.299  1.00  0.00     0.174 HD
ATOM     34  H11 UNL     1      20.587  25.151  97.616  1.00  0.00     0.174 HD
ENDBRANCH   1  32
TORSDOF 9
ENDMDL
MODEL 2
REMARK VINA RESULT: -6.806083914      1.053      1.296
REMARK  9 active torsions:
REMARK  status: ('A' for Active; 'I' for Inactive)
REMARK    1  A    between atoms: N1_1  and  C1_4 
REMARK    2  A    between atoms: N4_13  and  C5_14 
REMARK    3  A    between atoms: C6_16  and  O3_17 
REMARK    4  A    between atoms: N5_19  and  N6_20 
REMARK    5  A    between atoms: C7_23  and  O4_24 
REMARK    6  A    between atoms: N7_28  and  C9_29 
REMARK    7  A    between atoms: C9_29  and  C10_30 
REMARK    8  A    between atoms: C10_30  and  O6_31 
REMARK    9  A    between atoms: C10_30  and  O7_33 
ROOT
HETATM    1  C1  UNL     1      19.537  24.919  99.395  1.00  0.00     0.680 A 
HETATM    2  N2  UNL     1      18.293  24.442  99.319  1.00  0.00    -0.154 N 
ATOM      3  H2  UNL     1      18.017  23.843  98.541  1.00  0.00     0.187 HD
HETATM    4  C2  UNL     1      17.409  24.761 100.276  1.00  0.00     0.290 A 
HETATM    5  O1  UNL     1      16.256  24.287 100.151  1.00  0.00    -0.265 OA
HETATM    6  C3  UNL     1      17.706  25.564 101.356  1.00  0.00     0.153 A 
HETATM    7  C4  UNL     1      19.026  26.030 101.376  1.00  0.00     0.162 A 
HETATM    8  N3  UNL     1      19.893  25.703 100.413  1.00  0.00    -0.174 N 
ATOM      9  H3  UNL     1      20.847  26.060 100.457  1.00  0.00     0.186 HD
HETATM   10  N4  UNL     1      19.093  26.795 102.497  1.00  0.00    -0.251 N 
HETATM   11  C8  UNL     1      17.915  26.813 103.137  1.00  0.00     0.333 A 
HETATM   12  O5  UNL     1      17.696  27.444 104.203  1.00  0.00    -0.246 OA
HETATM   13  N7  UNL     1      17.054  26.041 102.420  1.00  0.00    -0.286 N 
ENDROOT
BRANCH  10  14
HETATM   14  C5  UNL     1      20.286  27.488 102.924  1.00  0.00     0.283 C 
HETATM   15  O2  UNL     1      21.455  26.894 102.455  1.00  0.00    -0.318 OA
HETATM   16  C6  UNL     1      22.380  27.928 102.595  1.00  0.00     0.364 C 
HETATM   17  N5  UNL     1      21.725  29.042 101.940  1.00  0.00    -0.152 NA
HETATM   18  C7  UNL     1      20.361  28.900 102.408  1.00  0.00     0.266 C 
BRANCH  16  19
HETATM   19  O3  UNL     1      23.596  27.612 101.990  1.00  0.00    -0.357 OA
ATOM     20  H3  UNL     1      24.034  28.388 101.662  1.00  0.00     0.214 HD
ENDBRANCH  16  19
BRANCH  17  21
HETATM   21  N6  UNL     1      22.302  30.217 102.428  1.00  0.00    -0.357 NA
ATOM     22  H62 UNL     1      23.144  30.013 102.967  1.00  0.00     0.171 HD
ATOM     23  H61 UNL     1      22.683  30.727 101.631  1.00  0.00     0.171 HD
ENDBRANCH  17  21
BRANCH  18  24
HETATM   24  O4  UNL     1      20.187  29.777 103.500  1.00  0.00    -0.375 OA
ATOM     25  H4  UNL     1      20.432  29.314 104.293  1.00  0.00     0.211 HD
ENDBRANCH  18  24
ENDBRANCH  10  14
BRANCH  13  26
HETATM   26  C9  UNL     1      15.703  25.769 102.784  1.00  0.00     0.194 C 
BRANCH  26  27
HETATM   27  C10 UNL     1      14.696  26.792 102.369  1.00  0.00     0.272 C 
BRANCH  27  28
HETATM   28  O6  UNL     1      13.430  26.253 102.705  1.00  0.00    -0.370 OA
ATOM     29  H6  UNL     1      12.814  26.624 102.084  1.00  0.00     0.212 HD
ENDBRANCH  27  28
BRANCH  27  30
HETATM   30  O7  UNL     1      14.833  27.987 103.013  1.00  0.00    -0.370 OA
ATOM     31  H7  UNL     1      15.212  28.670 102.472  1.00  0.00     0.212 HD
ENDBRANCH  27  30
ENDBRANCH  26  27
ENDBRANCH  13  26
BRANCH   1  32
HETATM   32  N1  UNL     1      20.395  24.601  98.453  1.00  0.00    -0.234 N 
ATOM     33  H12 UNL     1      20.245  24.889  97.486  1.00  0.00     0.174 HD
ATOM     34  H11 UNL     1      21.220  24.056  98.703  1.00  0.00     0.174 HD
ENDBRANCH   1  32
TORSDOF 9
ENDMDL
MODEL 3
REMARK VINA RESULT: -6.755037028      2.088      6.007
REMARK  9 active torsions:
REMARK  status: ('A' for Active; 'I' for Inactive)
REMARK    1  A    between atoms: N1_1  and  C1_4 
REMARK    2  A    between atoms: N4_13  and  C5_14 
REMARK    3  A    between atoms: C6_16  and  O3_17 
REMARK    4  A    between atoms: N5_19  and  N6_20 
REMARK    5  A    between atoms: C7_23  and  O4_24 
REMARK    6  A    between atoms: N7_28  and  C9_29 
REMARK    7  A    between atoms: C9_29  and  C10_30 
REMARK    8  A    between atoms: C10_30  and  O6_31 
REMARK    9  A    between atoms: C10_30  and  O7_33 
ROOT
HETATM    1  C1  UNL     1      16.803  26.748 102.699  1.00  0.00     0.680 A 
HETATM    2  N2  UNL     1      17.159  27.841 103.376  1.00  0.00    -0.154 N 
ATOM      3  H2  UNL     1      16.459  28.391 103.872  1.00  0.00     0.187 HD
HETATM    4  C2  UNL     1      18.449  28.209 103.395  1.00  0.00     0.290 A 
HETATM    5  O1  UNL     1      18.724  29.245 104.044  1.00  0.00    -0.265 OA
HETATM    6  C3  UNL     1      19.452  27.519 102.750  1.00  0.00     0.153 A 
HETATM    7  C4  UNL     1      19.012  26.383 102.059  1.00  0.00     0.162 A 
HETATM    8  N3  UNL     1      17.722  26.032 102.050  1.00  0.00    -0.174 N 
ATOM      9  H3  UNL     1      17.435  25.200 101.536  1.00  0.00     0.186 HD
HETATM   10  N4  UNL     1      20.141  25.874 101.500  1.00  0.00    -0.251 N 
HETATM   11  C8  UNL     1      21.210  26.622 101.810  1.00  0.00     0.333 A 
HETATM   12  O5  UNL     1      22.382  26.380 101.424  1.00  0.00    -0.246 OA
HETATM   13  N7  UNL     1      20.773  27.646 102.591  1.00  0.00    -0.286 N 
ENDROOT
BRANCH  10  14
HETATM   14  C5  UNL     1      20.164  24.683 100.683  1.00  0.00     0.283 C 
HETATM   15  O2  UNL     1      19.393  23.650 101.210  1.00  0.00    -0.318 OA
HETATM   16  C6  UNL     1      19.208  22.831 100.097  1.00  0.00     0.364 C 
HETATM   17  N5  UNL     1      18.731  23.756  99.088  1.00  0.00    -0.152 NA
HETATM   18  C7  UNL     1      19.590  24.903  99.309  1.00  0.00     0.266 C 
BRANCH  16  19
HETATM   19  O3  UNL     1      18.281  21.821 100.353  1.00  0.00    -0.357 OA
ATOM     20  H3  UNL     1      17.691  22.061 101.058  1.00  0.00     0.214 HD
ENDBRANCH  16  19
BRANCH  17  21
HETATM   21  N6  UNL     1      18.976  23.181  97.839  1.00  0.00    -0.357 NA
ATOM     22  H62 UNL     1      18.110  22.851  97.413  1.00  0.00     0.171 HD
ATOM     23  H61 UNL     1      19.249  23.930  97.203  1.00  0.00     0.171 HD
ENDBRANCH  17  21
BRANCH  18  24
HETATM   24  O4  UNL     1      20.647  24.835  98.376  1.00  0.00    -0.375 OA
ATOM     25  H4  UNL     1      21.409  24.477  98.817  1.00  0.00     0.211 HD
ENDBRANCH  18  24
ENDBRANCH  10  14
BRANCH  13  26
HETATM   26  C9  UNL     1      21.606  28.649 103.166  1.00  0.00     0.194 C 
BRANCH  26  27
HETATM   27  C10 UNL     1      21.646  29.958 102.446  1.00  0.00     0.272 C 
BRANCH  27  28
HETATM   28  O6  UNL     1      21.059  30.904 103.322  1.00  0.00    -0.370 OA
ATOM     29  H6  UNL     1      21.061  31.731 102.853  1.00  0.00     0.212 HD
ENDBRANCH  27  28
BRANCH  27  30
HETATM   30  O7  UNL     1      22.907  30.381 102.147  1.00  0.00    -0.370 OA
ATOM     31  H7  UNL     1      23.266  30.990 102.782  1.00  0.00     0.212 HD
ENDBRANCH  27  30
ENDBRANCH  26  27
ENDBRANCH  13  26
BRANCH   1  32
HETATM   32  N1  UNL     1      15.538  26.396 102.686  1.00  0.00    -0.234 N 
ATOM     33  H12 UNL     1      15.059  26.124 103.544  1.00  0.00     0.174 HD
ATOM     34  H11 UNL     1      15.037  26.399 101.798  1.00  0.00     0.174 HD
ENDBRANCH   1  32
TORSDOF 9
ENDMDL
MODEL 4
REMARK VINA RESULT: -6.651657201      1.915      3.853
REMARK  9 active torsions:
REMARK  status: ('A' for Active; 'I' for Inactive)
REMARK    1  A    between atoms: N1_1  and  C1_4 
REMARK    2  A    between atoms: N4_13  and  C5_14 
REMARK    3  A    between atoms: C6_16  and  O3_17 
REMARK    4  A    between atoms: N5_19  and  N6_20 
REMARK    5  A    between atoms: C7_23  and  O4_24 
REMARK    6  A    between atoms: N7_28  and  C9_29 
REMARK    7  A    between atoms: C9_29  and  C10_30 
REMARK    8  A    between atoms: C10_30  and  O6_31 
REMARK    9  A    between atoms: C10_30  and  O7_33 
ROOT
HETATM    1  C1  UNL     1      17.798  27.541 103.397  1.00  0.00     0.680 A 
HETATM    2  N2  UNL     1      16.785  26.686 103.243  1.00  0.00    -0.154 N 
ATOM      3  H2  UNL     1      15.921  26.810 103.769  1.00  0.00     0.187 HD
HETATM    4  C2  UNL     1      16.916  25.661 102.388  1.00  0.00     0.290 A 
HETATM    5  O1  UNL     1      15.935  24.890 102.285  1.00  0.00    -0.265 OA
HETATM    6  C3  UNL     1      18.052  25.427 101.642  1.00  0.00     0.153 A 
HETATM    7  C4  UNL     1      19.076  26.359 101.850  1.00  0.00     0.162 A 
HETATM    8  N3  UNL     1      18.927  27.373 102.707  1.00  0.00    -0.174 N 
ATOM      9  H3  UNL     1      19.693  28.034 102.836  1.00  0.00     0.186 HD
HETATM   10  N4  UNL     1      20.081  25.936 101.040  1.00  0.00    -0.251 N 
HETATM   11  C8  UNL     1      19.727  24.830 100.371  1.00  0.00     0.333 A 
HETATM   12  O5  UNL     1      20.467  24.227  99.552  1.00  0.00    -0.246 OA
HETATM   13  N7  UNL     1      18.458  24.518 100.750  1.00  0.00    -0.286 N 
ENDROOT
BRANCH  10  14
HETATM   14  C5  UNL     1      21.356  26.607 100.929  1.00  0.00     0.283 C 
HETATM   15  O2  UNL     1      21.276  27.971 101.200  1.00  0.00    -0.318 OA
HETATM   16  C6  UNL     1      22.607  28.290 101.468  1.00  0.00     0.364 C 
HETATM   17  N5  UNL     1      22.988  27.296 102.451  1.00  0.00    -0.152 NA
HETATM   18  C7  UNL     1      22.374  26.097 101.913  1.00  0.00     0.266 C 
BRANCH  16  19
HETATM   19  O3  UNL     1      22.731  29.586 101.967  1.00  0.00    -0.357 OA
ATOM     20  H3  UNL     1      23.624  29.902 101.896  1.00  0.00     0.214 HD
ENDBRANCH  16  19
BRANCH  17  21
HETATM   21  N6  UNL     1      24.382  27.196 102.431  1.00  0.00    -0.357 NA
ATOM     22  H62 UNL     1      24.813  28.047 102.791  1.00  0.00     0.171 HD
ATOM     23  H61 UNL     1      24.651  26.511 103.136  1.00  0.00     0.171 HD
ENDBRANCH  17  21
BRANCH  18  24
HETATM   24  O4  UNL     1      23.363  25.391 101.196  1.00  0.00    -0.375 OA
ATOM     25  H4  UNL     1      23.399  24.504 101.536  1.00  0.00     0.211 HD
ENDBRANCH  18  24
ENDBRANCH  10  14
BRANCH  13  26
HETATM   26  C9  UNL     1      17.696  23.427 100.239  1.00  0.00     0.194 C 
BRANCH  26  27
HETATM   27  C10 UNL     1      16.811  23.737  99.075  1.00  0.00     0.272 C 
BRANCH  27  28
HETATM   28  O6  UNL     1      15.485  23.699  99.573  1.00  0.00    -0.370 OA
ATOM     29  H6  UNL     1      15.147  24.583  99.488  1.00  0.00     0.212 HD
ENDBRANCH  27  28
BRANCH  27  30
HETATM   30  O7  UNL     1      17.027  24.971  98.536  1.00  0.00    -0.370 OA
ATOM     31  H7  UNL     1      16.783  25.034  97.620  1.00  0.00     0.212 HD
ENDBRANCH  27  30
ENDBRANCH  26  27
ENDBRANCH  13  26
BRANCH   1  32
HETATM   32  N1  UNL     1      17.659  28.541 104.236  1.00  0.00    -0.234 N 
ATOM     33  H12 UNL     1      17.311  29.447 103.923  1.00  0.00     0.174 HD
ATOM     34  H11 UNL     1      17.907  28.398 105.215  1.00  0.00     0.174 HD
ENDBRANCH   1  32
TORSDOF 9
ENDMDL
MODEL 5
REMARK VINA RESULT: -6.601567817      2.124      5.382
REMARK  9 active torsions:
REMARK  status: ('A' for Active; 'I' for Inactive)
REMARK    1  A    between atoms: N1_1  and  C1_4 
REMARK    2  A    between atoms: N4_13  and  C5_14 
REMARK    3  A    between atoms: C6_16  and  O3_17 
REMARK    4  A    between atoms: N5_19  and  N6_20 
REMARK    5  A    between atoms: C7_23  and  O4_24 
REMARK    6  A    between atoms: N7_28  and  C9_29 
REMARK    7  A    between atoms: C9_29  and  C10_30 
REMARK    8  A    between atoms: C10_30  and  O6_31 
REMARK    9  A    between atoms: C10_30  and  O7_33 
ROOT
HETATM    1  C1  UNL     1      21.840  29.238 102.359  1.00  0.00     0.680 A 
HETATM    2  N2  UNL     1      22.652  28.525 101.575  1.00  0.00    -0.154 N 
ATOM      3  H2  UNL     1      23.558  28.901 101.294  1.00  0.00     0.187 HD
HETATM    4  C2  UNL     1      22.264  27.310 101.162  1.00  0.00     0.290 A 
HETATM    5  O1  UNL     1      23.065  26.688 100.427  1.00  0.00    -0.265 OA
HETATM    6  C3  UNL     1      21.057  26.736 101.499  1.00  0.00     0.153 A 
HETATM    7  C4  UNL     1      20.253  27.535 102.322  1.00  0.00     0.162 A 
HETATM    8  N3  UNL     1      20.657  28.744 102.723  1.00  0.00    -0.174 N 
ATOM      9  H3  UNL     1      20.046  29.301 103.321  1.00  0.00     0.186 HD
HETATM   10  N4  UNL     1      19.132  26.793 102.515  1.00  0.00    -0.251 N 
HETATM   11  C8  UNL     1      19.215  25.620 101.871  1.00  0.00     0.333 A 
HETATM   12  O5  UNL     1      18.316  24.740 101.879  1.00  0.00    -0.246 OA
HETATM   13  N7  UNL     1      20.420  25.590 101.240  1.00  0.00    -0.286 N 
ENDROOT
BRANCH  10  14
HETATM   14  C5  UNL     1      18.010  27.229 103.312  1.00  0.00     0.283 C 
HETATM   15  O2  UNL     1      18.290  28.367 104.065  1.00  0.00    -0.318 OA
HETATM   16  C6  UNL     1      17.012  28.835 104.369  1.00  0.00     0.364 C 
HETATM   17  N5  UNL     1      16.362  28.868 103.074  1.00  0.00    -0.152 NA
HETATM   18  C7  UNL     1      16.818  27.625 102.483  1.00  0.00     0.266 C 
BRANCH  16  19
HETATM   19  O3  UNL     1      17.057  30.097 104.959  1.00  0.00    -0.357 OA
ATOM     20  H3  UNL     1      17.950  30.369 105.132  1.00  0.00     0.214 HD
ENDBRANCH  16  19
BRANCH  17  21
HETATM   21  N6  UNL     1      14.983  28.840 103.295  1.00  0.00    -0.357 NA
ATOM     22  H62 UNL     1      14.706  27.981 103.770  1.00  0.00     0.171 HD
ATOM     23  H61 UNL     1      14.770  29.546 103.999  1.00  0.00     0.171 HD
ENDBRANCH  17  21
BRANCH  18  24
HETATM   24  O4  UNL     1      15.808  26.659 102.676  1.00  0.00    -0.375 OA
ATOM     25  H4  UNL     1      14.986  27.115 102.821  1.00  0.00     0.211 HD
ENDBRANCH  18  24
ENDBRANCH  10  14
BRANCH  13  26
HETATM   26  C9  UNL     1      20.915  24.495 100.473  1.00  0.00     0.194 C 
BRANCH  26  27
HETATM   27  C10 UNL     1      20.572  24.509  99.019  1.00  0.00     0.272 C 
BRANCH  27  28
HETATM   28  O6  UNL     1      19.177  24.271  98.944  1.00  0.00    -0.370 OA
ATOM     29  H6  UNL     1      18.966  24.242  98.018  1.00  0.00     0.212 HD
ENDBRANCH  27  28
BRANCH  27  30
HETATM   30  O7  UNL     1      20.833  25.699  98.406  1.00  0.00    -0.370 OA
ATOM     31  H7  UNL     1      20.066  26.104  98.017  1.00  0.00     0.212 HD
ENDBRANCH  27  30
ENDBRANCH  26  27
ENDBRANCH  13  26
BRANCH   1  32
HETATM   32  N1  UNL     1      22.230  30.427 102.758  1.00  0.00    -0.234 N 
ATOM     33  H12 UNL     1      21.906  31.273 102.288  1.00  0.00     0.174 HD
ATOM     34  H11 UNL     1      22.868  30.494 103.551  1.00  0.00     0.174 HD
ENDBRANCH   1  32
TORSDOF 9
ENDMDL
