MODEL 1
REMARK VINA RESULT: -6.764956431      0.000      0.000
REMARK  9 active torsions:
REMARK  status: ('A' for Active; 'I' for Inactive)
REMARK    1  A    between atoms: C2_3  and  O1_4 
REMARK    2  A    between atoms: C3_6  and  O2_7 
REMARK    3  A    between atoms: C4_9  and  N2_10 
REMARK    4  A    between atoms: C6_12  and  C7_13 
REMARK    5  A    between atoms: C8_16  and  N4_17 
REMARK    6  A    between atoms: C10_24  and  O5_25 
REMARK    7  A    between atoms: C11_27  and  O6_28 
REMARK    8  A    between atoms: C11_27  and  C12_30 
REMARK    9  A    between atoms: C12_30  and  O7_31 
ROOT
HETATM    1  N1  UNL     1      15.464  23.382  98.966  1.00  0.00    -0.194 NA
HETATM    2  C1  UNL     1      16.533  23.707  99.276  1.00  0.00     0.104 C 
HETATM    3  C2  UNL     1      17.873  24.117  99.659  1.00  0.00     0.210 C 
HETATM    4  C3  UNL     1      17.865  25.454 100.365  1.00  0.00     0.196 C 
HETATM    5  C4  UNL     1      18.701  25.247 101.639  1.00  0.00     0.159 C 
HETATM    6  C10 UNL     1      19.565  24.130 101.267  1.00  0.00     0.184 C 
HETATM    7  C11 UNL     1      18.512  23.174 100.657  1.00  0.00     0.153 C 
ENDROOT
BRANCH   3   8
HETATM    8  O1  UNL     1      18.649  24.144  98.502  1.00  0.00    -0.370 OA
ATOM      9  H1  UNL     1      19.018  25.017  98.427  1.00  0.00     0.212 HD
ENDBRANCH   3   8
BRANCH   4  10
HETATM   10  O2  UNL     1      18.398  26.466  99.577  1.00  0.00    -0.389 OA
ATOM     11  H2  UNL     1      17.795  27.194  99.473  1.00  0.00     0.210 HD
ENDBRANCH   4  10
BRANCH   7  12
HETATM   12  O6  UNL     1      17.611  22.756 101.634  1.00  0.00    -0.381 OA
ATOM     13  H6  UNL     1      17.828  23.102 102.492  1.00  0.00     0.211 HD
ENDBRANCH   7  12
BRANCH   7  14
HETATM   14  C12 UNL     1      19.208  22.015  99.995  1.00  0.00     0.209 C 
BRANCH  14  15
HETATM   15  O7  UNL     1      20.176  21.554 100.905  1.00  0.00    -0.398 OA
ATOM     16  H7  UNL     1      20.500  20.730 100.563  1.00  0.00     0.209 HD
ENDBRANCH  14  15
ENDBRANCH   7  14
BRANCH   5  17
HETATM   17  N2  UNL     1      19.242  26.452 102.132  1.00  0.00    -0.299 N 
HETATM   18  C5  UNL     1      20.534  26.707 101.752  1.00  0.00     0.117 A 
HETATM   19  C6  UNL     1      21.185  27.848 102.162  1.00  0.00     0.088 A 
HETATM   20  C8  UNL     1      20.464  28.706 102.968  1.00  0.00     0.119 A 
HETATM   21  N5  UNL     1      19.188  28.426 103.327  1.00  0.00    -0.294 N 
HETATM   22  C9  UNL     1      18.566  27.305 102.916  1.00  0.00     0.328 A 
ATOM     23  H5  UNL     1      18.685  29.082 103.925  1.00  0.00     0.172 HD
HETATM   24  O4  UNL     1      17.373  27.053 103.257  1.00  0.00    -0.246 OA
BRANCH  19  25
HETATM   25  C7  UNL     1      22.561  28.146 101.773  1.00  0.00     0.270 C 
HETATM   26  N3  UNL     1      23.574  27.173 101.996  1.00  0.00    -0.057 NA
HETATM   27  O3  UNL     1      22.875  29.242 101.245  1.00  0.00    -0.271 OA
ENDBRANCH  19  25
BRANCH  20  28
HETATM   28  N4  UNL     1      21.034  29.781 103.373  1.00  0.00    -0.385 N 
ATOM     29  H42 UNL     1      21.839  29.737 103.999  1.00  0.00     0.157 HD
ATOM     30  H41 UNL     1      20.662  30.675 103.052  1.00  0.00     0.157 HD
ENDBRANCH  20  28
ENDBRANCH   5  17
BRANCH   6  31
HETATM   31  O5  UNL     1      20.450  24.357 100.237  1.00  0.00    -0.390 OA
ATOM     32  H5  UNL     1      21.124  23.701 100.107  1.00  0.00     0.210 HD
ENDBRANCH   6  31
TORSDOF 9
ENDMDL
MODEL 2
REMARK VINA RESULT: -6.589488645      3.029      4.340
REMARK  9 active torsions:
REMARK  status: ('A' for Active; 'I' for Inactive)
REMARK    1  A    between atoms: C2_3  and  O1_4 
REMARK    2  A    between atoms: C3_6  and  O2_7 
REMARK    3  A    between atoms: C4_9  and  N2_10 
REMARK    4  A    between atoms: C6_12  and  C7_13 
REMARK    5  A    between atoms: C8_16  and  N4_17 
REMARK    6  A    between atoms: C10_24  and  O5_25 
REMARK    7  A    between atoms: C11_27  and  O6_28 
REMARK    8  A    between atoms: C11_27  and  C12_30 
REMARK    9  A    between atoms: C12_30  and  O7_31 
ROOT
HETATM    1  N1  UNL     1      20.569  21.008 100.008  1.00  0.00    -0.194 NA
HETATM    2  C1  UNL     1      21.327  21.881 100.102  1.00  0.00     0.104 C 
HETATM    3  C2  UNL     1      22.274  22.976 100.214  1.00  0.00     0.210 C 
HETATM    4  C3  UNL     1      21.610  24.238 100.714  1.00  0.00     0.196 C 
HETATM    5  C4  UNL     1      22.501  24.741 101.862  1.00  0.00     0.159 C 
HETATM    6  C10 UNL     1      23.798  24.161 101.526  1.00  0.00     0.184 C 
HETATM    7  C11 UNL     1      23.366  22.706 101.227  1.00  0.00     0.153 C 
ENDROOT
BRANCH   3   8
HETATM    8  O1  UNL     1      22.856  23.156  98.961  1.00  0.00    -0.370 OA
ATOM      9  H1  UNL     1      23.762  23.404  99.100  1.00  0.00     0.212 HD
ENDBRANCH   3   8
BRANCH   4  10
HETATM   10  O2  UNL     1      21.490  25.198  99.717  1.00  0.00    -0.389 OA
ATOM     11  H2  UNL     1      21.646  26.076 100.044  1.00  0.00     0.210 HD
ENDBRANCH   4  10
BRANCH   7  12
HETATM   12  O6  UNL     1      22.873  22.099 102.380  1.00  0.00    -0.381 OA
ATOM     13  H6  UNL     1      22.789  21.158 102.282  1.00  0.00     0.211 HD
ENDBRANCH   7  12
BRANCH   7  14
HETATM   14  C12 UNL     1      24.527  21.948 100.640  1.00  0.00     0.209 C 
BRANCH  14  15
HETATM   15  O7  UNL     1      25.626  22.175 101.487  1.00  0.00    -0.398 OA
ATOM     16  H7  UNL     1      25.956  23.041 101.278  1.00  0.00     0.209 HD
ENDBRANCH  14  15
ENDBRANCH   7  14
BRANCH   5  17
HETATM   17  N2  UNL     1      22.359  26.125 102.089  1.00  0.00    -0.299 N 
HETATM   18  C5  UNL     1      21.066  26.579 102.120  1.00  0.00     0.117 A 
HETATM   19  C6  UNL     1      20.782  27.909 102.333  1.00  0.00     0.088 A 
HETATM   20  C8  UNL     1      21.868  28.743 102.511  1.00  0.00     0.119 A 
HETATM   21  N5  UNL     1      23.134  28.264 102.474  1.00  0.00    -0.294 N 
HETATM   22  C9  UNL     1      23.394  26.960 102.266  1.00  0.00     0.328 A 
ATOM     23  H5  UNL     1      23.913  28.910 102.609  1.00  0.00     0.172 HD
HETATM   24  O4  UNL     1      24.582  26.523 102.234  1.00  0.00    -0.246 OA
BRANCH  19  25
HETATM   25  C7  UNL     1      19.415  28.421 102.370  1.00  0.00     0.270 C 
HETATM   26  N3  UNL     1      18.738  28.688 101.149  1.00  0.00    -0.057 NA
HETATM   27  O3  UNL     1      18.819  28.632 103.457  1.00  0.00    -0.271 OA
ENDBRANCH  19  25
BRANCH  20  28
HETATM   28  N4  UNL     1      21.648  29.991 102.711  1.00  0.00    -0.385 N 
ATOM     29  H42 UNL     1      20.704  30.326 102.903  1.00  0.00     0.157 HD
ATOM     30  H41 UNL     1      22.440  30.632 102.674  1.00  0.00     0.157 HD
ENDBRANCH  20  28
ENDBRANCH   5  17
BRANCH   6  31
HETATM   31  O5  UNL     1      24.375  24.589 100.352  1.00  0.00    -0.390 OA
ATOM     32  H5  UNL     1      25.324  24.617 100.333  1.00  0.00     0.210 HD
ENDBRANCH   6  31
TORSDOF 9
ENDMDL
MODEL 3
REMARK VINA RESULT: -6.488474014      2.207      3.961
REMARK  9 active torsions:
REMARK  status: ('A' for Active; 'I' for Inactive)
REMARK    1  A    between atoms: C2_3  and  O1_4 
REMARK    2  A    between atoms: C3_6  and  O2_7 
REMARK    3  A    between atoms: C4_9  and  N2_10 
REMARK    4  A    between atoms: C6_12  and  C7_13 
REMARK    5  A    between atoms: C8_16  and  N4_17 
REMARK    6  A    between atoms: C10_24  and  O5_25 
REMARK    7  A    between atoms: C11_27  and  O6_28 
REMARK    8  A    between atoms: C11_27  and  C12_30 
REMARK    9  A    between atoms: C12_30  and  O7_31 
ROOT
HETATM    1  N1  UNL     1      22.946  21.745  98.736  1.00  0.00    -0.194 NA
HETATM    2  C1  UNL     1      22.136  22.400  99.247  1.00  0.00     0.104 C 
HETATM    3  C2  UNL     1      21.124  23.218  99.892  1.00  0.00     0.210 C 
HETATM    4  C3  UNL     1      21.735  24.403 100.604  1.00  0.00     0.196 C 
HETATM    5  C4  UNL     1      20.920  25.622 100.141  1.00  0.00     0.159 C 
HETATM    6  C10 UNL     1      19.645  25.019  99.764  1.00  0.00     0.184 C 
HETATM    7  C11 UNL     1      20.155  23.837  98.906  1.00  0.00     0.153 C 
ENDROOT
BRANCH   3   8
HETATM    8  O1  UNL     1      20.415  22.395 100.765  1.00  0.00    -0.370 OA
ATOM      9  H1  UNL     1      19.498  22.444 100.522  1.00  0.00     0.212 HD
ENDBRANCH   3   8
BRANCH   4  10
HETATM   10  O2  UNL     1      21.688  24.265 101.985  1.00  0.00    -0.389 OA
ATOM     11  H2  UNL     1      21.149  24.933 102.393  1.00  0.00     0.210 HD
ENDBRANCH   4  10
BRANCH   7  12
HETATM   12  O6  UNL     1      20.799  24.308  97.764  1.00  0.00    -0.381 OA
ATOM     13  H6  UNL     1      20.384  24.002  96.967  1.00  0.00     0.211 HD
ENDBRANCH   7  12
BRANCH   7  14
HETATM   14  C12 UNL     1      19.005  22.924  98.573  1.00  0.00     0.209 C 
BRANCH  14  15
HETATM   15  O7  UNL     1      17.915  23.752  98.252  1.00  0.00    -0.398 OA
ATOM     16  H7  UNL     1      17.588  23.457  97.410  1.00  0.00     0.209 HD
ENDBRANCH  14  15
ENDBRANCH   7  14
BRANCH   5  17
HETATM   17  N2  UNL     1      20.977  26.690 101.059  1.00  0.00    -0.299 N 
HETATM   18  C5  UNL     1      19.838  26.882 101.797  1.00  0.00     0.117 A 
HETATM   19  C6  UNL     1      19.756  27.890 102.731  1.00  0.00     0.088 A 
HETATM   20  C8  UNL     1      20.878  28.682 102.874  1.00  0.00     0.119 A 
HETATM   21  N5  UNL     1      21.989  28.467 102.128  1.00  0.00    -0.294 N 
HETATM   22  C9  UNL     1      22.053  27.476 101.220  1.00  0.00     0.328 A 
ATOM     23  H5  UNL     1      22.799  29.073 102.260  1.00  0.00     0.172 HD
HETATM   24  O4  UNL     1      23.096  27.284 100.529  1.00  0.00    -0.246 OA
BRANCH  19  25
HETATM   25  C7  UNL     1      18.557  28.119 103.531  1.00  0.00     0.270 C 
HETATM   26  N3  UNL     1      17.706  27.023 103.841  1.00  0.00    -0.057 NA
HETATM   27  O3  UNL     1      18.255  29.264 103.956  1.00  0.00    -0.271 OA
ENDBRANCH  19  25
BRANCH  20  28
HETATM   28  N4  UNL     1      20.843  29.634 103.732  1.00  0.00    -0.385 N 
ATOM     29  H42 UNL     1      20.924  29.436 104.730  1.00  0.00     0.157 HD
ATOM     30  H41 UNL     1      20.734  30.589 103.390  1.00  0.00     0.157 HD
ENDBRANCH  20  28
ENDBRANCH   5  17
BRANCH   6  31
HETATM   31  O5  UNL     1      18.930  24.417 100.775  1.00  0.00    -0.390 OA
ATOM     32  H5  UNL     1      18.981  24.827 101.630  1.00  0.00     0.210 HD
ENDBRANCH   6  31
TORSDOF 9
ENDMDL
MODEL 4
REMARK VINA RESULT: -6.473758766      2.512      5.123
REMARK  9 active torsions:
REMARK  status: ('A' for Active; 'I' for Inactive)
REMARK    1  A    between atoms: C2_3  and  O1_4 
REMARK    2  A    between atoms: C3_6  and  O2_7 
REMARK    3  A    between atoms: C4_9  and  N2_10 
REMARK    4  A    between atoms: C6_12  and  C7_13 
REMARK    5  A    between atoms: C8_16  and  N4_17 
REMARK    6  A    between atoms: C10_24  and  O5_25 
REMARK    7  A    between atoms: C11_27  and  O6_28 
REMARK    8  A    between atoms: C11_27  and  C12_30 
REMARK    9  A    between atoms: C12_30  and  O7_31 
ROOT
HETATM    1  N1  UNL     1      23.843  26.367 100.617  1.00  0.00    -0.194 NA
HETATM    2  C1  UNL     1      22.798  25.904 100.817  1.00  0.00     0.104 C 
HETATM    3  C2  UNL     1      21.491  25.325 101.073  1.00  0.00     0.210 C 
HETATM    4  C3  UNL     1      20.498  26.370 101.528  1.00  0.00     0.196 C 
HETATM    5  C4  UNL     1      19.254  26.160 100.649  1.00  0.00     0.159 C 
HETATM    6  C10 UNL     1      19.376  24.756 100.266  1.00  0.00     0.184 C 
HETATM    7  C11 UNL     1      20.860  24.730  99.832  1.00  0.00     0.153 C 
ENDROOT
BRANCH   3   8
HETATM    8  O1  UNL     1      21.658  24.318 102.021  1.00  0.00    -0.370 OA
ATOM      9  H1  UNL     1      22.536  24.401 102.373  1.00  0.00     0.212 HD
ENDBRANCH   3   8
BRANCH   4  10
HETATM   10  O2  UNL     1      20.186  26.244 102.876  1.00  0.00    -0.389 OA
ATOM     11  H2  UNL     1      19.557  25.550 103.034  1.00  0.00     0.210 HD
ENDBRANCH   4  10
BRANCH   7  12
HETATM   12  O6  UNL     1      21.052  25.533  98.709  1.00  0.00    -0.381 OA
ATOM     13  H6  UNL     1      20.921  26.453  98.902  1.00  0.00     0.211 HD
ENDBRANCH   7  12
BRANCH   7  14
HETATM   14  C12 UNL     1      21.288  23.307  99.590  1.00  0.00     0.209 C 
BRANCH  14  15
HETATM   15  O7  UNL     1      20.311  22.729  98.760  1.00  0.00    -0.398 OA
ATOM     16  H7  UNL     1      20.732  22.010  98.304  1.00  0.00     0.209 HD
ENDBRANCH  14  15
ENDBRANCH   7  14
BRANCH   5  17
HETATM   17  N2  UNL     1      18.078  26.651 101.253  1.00  0.00    -0.299 N 
HETATM   18  C5  UNL     1      17.246  25.690 101.767  1.00  0.00     0.117 A 
HETATM   19  C6  UNL     1      16.062  26.029 102.383  1.00  0.00     0.088 A 
HETATM   20  C8  UNL     1      15.774  27.378 102.450  1.00  0.00     0.119 A 
HETATM   21  N5  UNL     1      16.617  28.302 101.933  1.00  0.00    -0.294 N 
HETATM   22  C9  UNL     1      17.771  27.954 101.333  1.00  0.00     0.328 A 
ATOM     23  H5  UNL     1      16.371  29.291 101.999  1.00  0.00     0.172 HD
HETATM   24  O4  UNL     1      18.552  28.827 100.853  1.00  0.00    -0.246 OA
BRANCH  19  25
HETATM   25  C7  UNL     1      15.156  25.028 102.939  1.00  0.00     0.270 C 
HETATM   26  N3  UNL     1      14.065  24.564 102.154  1.00  0.00    -0.057 NA
HETATM   27  O3  UNL     1      15.314  24.565 104.097  1.00  0.00    -0.271 OA
ENDBRANCH  19  25
BRANCH  20  28
HETATM   28  N4  UNL     1      14.680  27.736 103.017  1.00  0.00    -0.385 N 
ATOM     29  H42 UNL     1      14.091  27.050 103.488  1.00  0.00     0.157 HD
ATOM     30  H41 UNL     1      14.420  28.722 102.983  1.00  0.00     0.157 HD
ENDBRANCH  20  28
ENDBRANCH   5  17
BRANCH   6  31
HETATM   31  O5  UNL     1      19.308  23.835 101.288  1.00  0.00    -0.390 OA
ATOM     32  H5  UNL     1      18.699  23.116 101.167  1.00  0.00     0.210 HD
ENDBRANCH   6  31
TORSDOF 9
ENDMDL
MODEL 5
REMARK VINA RESULT: -6.473085639      2.184      2.434
REMARK  9 active torsions:
REMARK  status: ('A' for Active; 'I' for Inactive)
REMARK    1  A    between atoms: C2_3  and  O1_4 
REMARK    2  A    between atoms: C3_6  and  O2_7 
REMARK    3  A    between atoms: C4_9  and  N2_10 
REMARK    4  A    between atoms: C6_12  and  C7_13 
REMARK    5  A    between atoms: C8_16  and  N4_17 
REMARK    6  A    between atoms: C10_24  and  O5_25 
REMARK    7  A    between atoms: C11_27  and  O6_28 
REMARK    8  A    between atoms: C11_27  and  C12_30 
REMARK    9  A    between atoms: C12_30  and  O7_31 
ROOT
HETATM    1  N1  UNL     1      13.957  25.624 102.765  1.00  0.00    -0.194 NA
HETATM    2  C1  UNL     1      15.075  25.525 102.470  1.00  0.00     0.104 C 
HETATM    3  C2  UNL     1      16.473  25.404 102.095  1.00  0.00     0.210 C 
HETATM    4  C3  UNL     1      17.220  26.701 102.305  1.00  0.00     0.196 C 
HETATM    5  C4  UNL     1      18.486  26.320 103.089  1.00  0.00     0.159 C 
HETATM    6  C10 UNL     1      18.665  24.916 102.729  1.00  0.00     0.184 C 
HETATM    7  C11 UNL     1      17.223  24.402 102.948  1.00  0.00     0.153 C 
ENDROOT
BRANCH   3   8
HETATM    8  O1  UNL     1      16.515  24.987 100.766  1.00  0.00    -0.370 OA
ATOM      9  H1  UNL     1      16.833  25.718 100.249  1.00  0.00     0.212 HD
ENDBRANCH   3   8
BRANCH   4  10
HETATM   10  O2  UNL     1      17.543  27.319 101.104  1.00  0.00    -0.389 OA
ATOM     11  H2  UNL     1      17.633  28.260 101.198  1.00  0.00     0.210 HD
ENDBRANCH   4  10
BRANCH   7  12
HETATM   12  O6  UNL     1      16.874  24.493 104.293  1.00  0.00    -0.381 OA
ATOM     13  H6  UNL     1      15.955  24.304 104.438  1.00  0.00     0.211 HD
ENDBRANCH   7  12
BRANCH   7  14
HETATM   14  C12 UNL     1      17.107  22.995 102.425  1.00  0.00     0.209 C 
BRANCH  14  15
HETATM   15  O7  UNL     1      18.196  22.279 102.952  1.00  0.00    -0.398 OA
ATOM     16  H7  UNL     1      18.970  22.588 102.496  1.00  0.00     0.209 HD
ENDBRANCH  14  15
ENDBRANCH   7  14
BRANCH   5  17
HETATM   17  N2  UNL     1      19.528  27.254 102.919  1.00  0.00    -0.299 N 
HETATM   18  C5  UNL     1      20.660  26.758 102.324  1.00  0.00     0.117 A 
HETATM   19  C6  UNL     1      21.755  27.561 102.097  1.00  0.00     0.088 A 
HETATM   20  C8  UNL     1      21.641  28.877 102.500  1.00  0.00     0.119 A 
HETATM   21  N5  UNL     1      20.509  29.336 103.085  1.00  0.00    -0.294 N 
HETATM   22  C9  UNL     1      19.447  28.538 103.299  1.00  0.00     0.328 A 
ATOM     23  H5  UNL     1      20.460  30.315 103.371  1.00  0.00     0.172 HD
HETATM   24  O4  UNL     1      18.394  28.978 103.847  1.00  0.00    -0.246 OA
BRANCH  19  25
HETATM   25  C7  UNL     1      22.974  27.061 101.467  1.00  0.00     0.270 C 
HETATM   26  N3  UNL     1      24.048  26.615 102.285  1.00  0.00    -0.057 NA
HETATM   27  O3  UNL     1      23.099  27.014 100.217  1.00  0.00    -0.271 OA
ENDBRANCH  19  25
BRANCH  20  28
HETATM   28  N4  UNL     1      22.639  29.659 102.308  1.00  0.00    -0.385 N 
ATOM     29  H42 UNL     1      22.735  30.521 102.845  1.00  0.00     0.157 HD
ATOM     30  H41 UNL     1      23.331  29.394 101.606  1.00  0.00     0.157 HD
ENDBRANCH  20  28
ENDBRANCH   5  17
BRANCH   6  31
HETATM   31  O5  UNL     1      18.919  24.652 101.402  1.00  0.00    -0.390 OA
ATOM     32  H5  UNL     1      18.739  23.769 101.105  1.00  0.00     0.210 HD
ENDBRANCH   6  31
TORSDOF 9
ENDMDL
