MODEL 1
REMARK VINA RESULT: -6.897786956      0.000      0.000
REMARK  8 active torsions:
REMARK  status: ('A' for Active; 'I' for Inactive)
REMARK    1  A    between atoms: N2_9  and  C5_10 
REMARK    2  A    between atoms: C6_12  and  O4_13 
REMARK    3  A    between atoms: C6_12  and  C7_15 
REMARK    4  A    between atoms: C7_15  and  O5_16 
REMARK    5  A    between atoms: C8_18  and  O6_19 
REMARK    6  A    between atoms: C9_21  and  O7_22 
REMARK    7  A    between atoms: C9_21  and  C10_24 
REMARK    8  A    between atoms: C10_24  and  O8_25 
ROOT
HETATM    1  C5  UNL     1      21.163  25.757 102.391  1.00  0.00     0.279 C 
HETATM    2  O3  UNL     1      22.173  26.677 102.188  1.00  0.00    -0.322 OA
HETATM    3  C6  UNL     1      23.247  26.049 101.631  1.00  0.00     0.215 C 
HETATM    4  C8  UNL     1      22.884  24.659 101.262  1.00  0.00     0.223 C 
HETATM    5  C9  UNL     1      21.374  24.651 101.412  1.00  0.00     0.154 C 
ENDROOT
BRANCH   1   6
HETATM    6  N2  UNL     1      19.891  26.452 102.236  1.00  0.00    -0.234 N 
HETATM    7  C1  UNL     1      19.815  27.704 101.753  1.00  0.00     0.333 A 
HETATM    8  O1  UNL     1      20.869  28.320 101.414  1.00  0.00    -0.246 OA
HETATM    9  N1  UNL     1      18.664  28.377 101.596  1.00  0.00    -0.293 N 
HETATM   10  C2  UNL     1      17.471  27.829 101.922  1.00  0.00     0.134 A 
ATOM     11  H1  UNL     1      18.689  29.325 101.222  1.00  0.00     0.172 HD
HETATM   12  C3  UNL     1      17.512  26.536 102.423  1.00  0.00     0.071 A 
HETATM   13  N4  UNL     1      16.123  28.278 101.872  1.00  0.00    -0.288 N 
HETATM   14  C4  UNL     1      18.724  25.874 102.570  1.00  0.00     0.265 A 
HETATM   15  C11 UNL     1      16.097  26.163 102.699  1.00  0.00     0.183 C 
HETATM   16  O2  UNL     1      18.678  24.705 103.032  1.00  0.00    -0.267 OA
HETATM   17  N3  UNL     1      15.396  27.415 102.694  1.00  0.00    -0.135 NA
ATOM     18  H4  UNL     1      15.759  29.071 101.343  1.00  0.00     0.184 HD
ENDBRANCH   1   6
BRANCH   5  19
HETATM   19  O7  UNL     1      21.036  23.401 101.895  1.00  0.00    -0.380 OA
ATOM     20  H7  UNL     1      20.164  23.355 102.268  1.00  0.00     0.211 HD
ENDBRANCH   5  19
BRANCH   5  21
HETATM   21  C10 UNL     1      20.686  24.965 100.102  1.00  0.00     0.209 C 
BRANCH  21  22
HETATM   22  O8  UNL     1      21.349  25.975  99.404  1.00  0.00    -0.398 OA
ATOM     23  H8  UNL     1      21.193  25.913  98.469  1.00  0.00     0.209 HD
ENDBRANCH  21  22
ENDBRANCH   5  21
BRANCH   3  24
HETATM   24  O4  UNL     1      23.720  26.696 100.475  1.00  0.00    -0.362 OA
ATOM     25  H4  UNL     1      23.945  27.606 100.628  1.00  0.00     0.213 HD
ENDBRANCH   3  24
BRANCH   3  26
HETATM   26  C7  UNL     1      24.429  26.050 102.608  1.00  0.00     0.235 C 
BRANCH  26  27
HETATM   27  O5  UNL     1      25.017  27.312 102.515  1.00  0.00    -0.395 OA
ATOM     28  H5  UNL     1      24.650  27.832 103.221  1.00  0.00     0.209 HD
ENDBRANCH  26  27
ENDBRANCH   3  26
BRANCH   4  29
HETATM   29  O6  UNL     1      23.319  24.238 100.039  1.00  0.00    -0.387 OA
ATOM     30  H6  UNL     1      22.877  23.475  99.684  1.00  0.00     0.210 HD
ENDBRANCH   4  29
TORSDOF 8
ENDMDL
MODEL 2
REMARK VINA RESULT: -6.880726590      2.501      3.326
REMARK  8 active torsions:
REMARK  status: ('A' for Active; 'I' for Inactive)
REMARK    1  A    between atoms: N2_9  and  C5_10 
REMARK    2  A    between atoms: C6_12  and  O4_13 
REMARK    3  A    between atoms: C6_12  and  C7_15 
REMARK    4  A    between atoms: C7_15  and  O5_16 
REMARK    5  A    between atoms: C8_18  and  O6_19 
REMARK    6  A    between atoms: C9_21  and  O7_22 
REMARK    7  A    between atoms: C9_21  and  C10_24 
REMARK    8  A    between atoms: C10_24  and  O8_25 
ROOT
HETATM    1  C5  UNL     1      21.954  24.759 101.810  1.00  0.00     0.279 C 
HETATM    2  O3  UNL     1      23.300  24.455 101.745  1.00  0.00    -0.322 OA
HETATM    3  C6  UNL     1      23.492  23.466 100.826  1.00  0.00     0.215 C 
HETATM    4  C8  UNL     1      22.232  23.209 100.088  1.00  0.00     0.223 C 
HETATM    5  C9  UNL     1      21.355  24.378 100.498  1.00  0.00     0.154 C 
ENDROOT
BRANCH   1   6
HETATM    6  N2  UNL     1      21.835  26.176 102.128  1.00  0.00    -0.234 N 
HETATM    7  C1  UNL     1      22.869  27.027 102.004  1.00  0.00     0.333 A 
HETATM    8  O1  UNL     1      23.993  26.606 101.600  1.00  0.00    -0.246 OA
HETATM    9  N1  UNL     1      22.798  28.338 102.287  1.00  0.00    -0.293 N 
HETATM   10  C2  UNL     1      21.653  28.908 102.727  1.00  0.00     0.134 A 
ATOM     11  H1  UNL     1      23.628  28.917 102.166  1.00  0.00     0.172 HD
HETATM   12  C3  UNL     1      20.565  28.059 102.866  1.00  0.00     0.071 A 
HETATM   13  N4  UNL     1      21.278  30.228 103.100  1.00  0.00    -0.288 N 
HETATM   14  C4  UNL     1      20.679  26.708 102.563  1.00  0.00     0.265 A 
HETATM   15  C11 UNL     1      19.446  28.912 103.354  1.00  0.00     0.183 C 
HETATM   16  O2  UNL     1      19.648  26.005 102.715  1.00  0.00    -0.267 OA
HETATM   17  N3  UNL     1      20.091  30.104 103.823  1.00  0.00    -0.135 NA
ATOM     18  H4  UNL     1      21.777  31.091 102.883  1.00  0.00     0.184 HD
ENDBRANCH   1   6
BRANCH   5  19
HETATM   19  O7  UNL     1      20.067  23.885 100.591  1.00  0.00    -0.380 OA
ATOM     20  H7  UNL     1      19.396  24.557 100.592  1.00  0.00     0.211 HD
ENDBRANCH   5  19
BRANCH   5  21
HETATM   21  C10 UNL     1      21.463  25.522  99.514  1.00  0.00     0.209 C 
BRANCH  21  22
HETATM   22  O8  UNL     1      20.461  25.461  98.545  1.00  0.00    -0.398 OA
ATOM     23  H8  UNL     1      19.689  25.947  98.810  1.00  0.00     0.209 HD
ENDBRANCH  21  22
ENDBRANCH   5  21
BRANCH   3  24
HETATM   24  O4  UNL     1      24.490  23.780  99.886  1.00  0.00    -0.362 OA
ATOM     25  H4  UNL     1      25.355  23.847 100.273  1.00  0.00     0.213 HD
ENDBRANCH   3  24
BRANCH   3  26
HETATM   26  C7  UNL     1      23.977  22.185 101.517  1.00  0.00     0.235 C 
BRANCH  26  27
HETATM   27  O5  UNL     1      22.991  21.838 102.441  1.00  0.00    -0.395 OA
ATOM     28  H5  UNL     1      23.435  21.389 103.152  1.00  0.00     0.209 HD
ENDBRANCH  26  27
ENDBRANCH   3  26
BRANCH   4  29
HETATM   29  O6  UNL     1      22.356  23.059  98.737  1.00  0.00    -0.387 OA
ATOM     30  H6  UNL     1      22.286  23.856  98.225  1.00  0.00     0.210 HD
ENDBRANCH   4  29
TORSDOF 8
ENDMDL
MODEL 3
REMARK VINA RESULT: -6.658632797      2.623      3.877
REMARK  8 active torsions:
REMARK  status: ('A' for Active; 'I' for Inactive)
REMARK    1  A    between atoms: N2_9  and  C5_10 
REMARK    2  A    between atoms: C6_12  and  O4_13 
REMARK    3  A    between atoms: C6_12  and  C7_15 
REMARK    4  A    between atoms: C7_15  and  O5_16 
REMARK    5  A    between atoms: C8_18  and  O6_19 
REMARK    6  A    between atoms: C9_21  and  O7_22 
REMARK    7  A    between atoms: C9_21  and  C10_24 
REMARK    8  A    between atoms: C10_24  and  O8_25 
ROOT
HETATM    1  C5  UNL     1      18.291  26.366 103.126  1.00  0.00     0.279 C 
HETATM    2  O3  UNL     1      18.368  27.741 103.025  1.00  0.00    -0.322 OA
HETATM    3  C6  UNL     1      19.503  28.077 102.348  1.00  0.00     0.215 C 
HETATM    4  C8  UNL     1      20.141  26.858 101.795  1.00  0.00     0.223 C 
HETATM    5  C9  UNL     1      19.075  25.797 101.992  1.00  0.00     0.154 C 
ENDROOT
BRANCH   1   6
HETATM    6  N2  UNL     1      16.880  25.999 103.115  1.00  0.00    -0.234 N 
HETATM    7  C1  UNL     1      15.923  26.848 102.700  1.00  0.00     0.333 A 
HETATM    8  O1  UNL     1      16.234  28.009 102.302  1.00  0.00    -0.246 OA
HETATM    9  N1  UNL     1      14.615  26.547 102.675  1.00  0.00    -0.293 N 
HETATM   10  C2  UNL     1      14.157  25.340 103.076  1.00  0.00     0.134 A 
ATOM     11  H1  UNL     1      13.951  27.247 102.346  1.00  0.00     0.172 HD
HETATM   12  C3  UNL     1      15.117  24.438 103.511  1.00  0.00     0.071 A 
HETATM   13  N4  UNL     1      12.868  24.744 103.165  1.00  0.00    -0.288 N 
HETATM   14  C4  UNL     1      16.461  24.787 103.521  1.00  0.00     0.265 A 
HETATM   15  C11 UNL     1      14.372  23.205 103.889  1.00  0.00     0.183 C 
HETATM   16  O2  UNL     1      17.269  23.915 103.929  1.00  0.00    -0.267 OA
HETATM   17  N3  UNL     1      13.010  23.638 104.005  1.00  0.00    -0.135 NA
ATOM     18  H4  UNL     1      12.013  25.061 102.707  1.00  0.00     0.184 HD
ENDBRANCH   1   6
BRANCH   5  19
HETATM   19  O7  UNL     1      19.741  24.627 102.301  1.00  0.00    -0.380 OA
ATOM     20  H7  UNL     1      19.232  24.020 102.825  1.00  0.00     0.211 HD
ENDBRANCH   5  19
BRANCH   5  21
HETATM   21  C10 UNL     1      18.203  25.654 100.764  1.00  0.00     0.209 C 
BRANCH  21  22
HETATM   22  O8  UNL     1      18.028  26.876 100.114  1.00  0.00    -0.398 OA
ATOM     23  H8  UNL     1      18.156  26.795  99.177  1.00  0.00     0.209 HD
ENDBRANCH  21  22
ENDBRANCH   5  21
BRANCH   3  24
HETATM   24  O4  UNL     1      19.262  28.963 101.282  1.00  0.00    -0.362 OA
ATOM     25  H4  UNL     1      20.049  29.176 100.794  1.00  0.00     0.213 HD
ENDBRANCH   3  24
BRANCH   3  26
HETATM   26  C7  UNL     1      20.476  28.815 103.275  1.00  0.00     0.235 C 
BRANCH  26  27
HETATM   27  O5  UNL     1      20.835  29.991 102.616  1.00  0.00    -0.395 OA
ATOM     28  H5  UNL     1      21.764  29.921 102.426  1.00  0.00     0.209 HD
ENDBRANCH  26  27
ENDBRANCH   3  26
BRANCH   4  29
HETATM   29  O6  UNL     1      20.592  26.956 100.510  1.00  0.00    -0.387 OA
ATOM     30  H6  UNL     1      21.478  27.281 100.407  1.00  0.00     0.210 HD
ENDBRANCH   4  29
TORSDOF 8
ENDMDL
MODEL 4
REMARK VINA RESULT: -6.603999866      2.351      4.447
REMARK  8 active torsions:
REMARK  status: ('A' for Active; 'I' for Inactive)
REMARK    1  A    between atoms: N2_9  and  C5_10 
REMARK    2  A    between atoms: C6_12  and  O4_13 
REMARK    3  A    between atoms: C6_12  and  C7_15 
REMARK    4  A    between atoms: C7_15  and  O5_16 
REMARK    5  A    between atoms: C8_18  and  O6_19 
REMARK    6  A    between atoms: C9_21  and  O7_22 
REMARK    7  A    between atoms: C9_21  and  C10_24 
REMARK    8  A    between atoms: C10_24  and  O8_25 
ROOT
HETATM    1  C5  UNL     1      24.272  25.739 101.163  1.00  0.00     0.279 C 
HETATM    2  O3  UNL     1      24.284  24.388 100.876  1.00  0.00    -0.322 OA
HETATM    3  C6  UNL     1      25.533  23.892 101.108  1.00  0.00     0.215 C 
HETATM    4  C8  UNL     1      26.372  24.921 101.767  1.00  0.00     0.223 C 
HETATM    5  C9  UNL     1      25.363  25.988 102.151  1.00  0.00     0.154 C 
ENDROOT
BRANCH   1   6
HETATM    6  N2  UNL     1      22.941  26.077 101.652  1.00  0.00    -0.234 N 
HETATM    7  C1  UNL     1      22.022  25.137 101.933  1.00  0.00     0.333 A 
HETATM    8  O1  UNL     1      22.299  23.911 101.775  1.00  0.00    -0.246 OA
HETATM    9  N1  UNL     1      20.787  25.408 102.383  1.00  0.00    -0.293 N 
HETATM   10  C2  UNL     1      20.370  26.678 102.591  1.00  0.00     0.134 A 
ATOM     11  H1  UNL     1      20.147  24.637 102.573  1.00  0.00     0.172 HD
HETATM   12  C3  UNL     1      21.294  27.675 102.312  1.00  0.00     0.071 A 
HETATM   13  N4  UNL     1      19.158  27.266 103.047  1.00  0.00    -0.288 N 
HETATM   14  C4  UNL     1      22.562  27.353 101.847  1.00  0.00     0.265 A 
HETATM   15  C11 UNL     1      20.607  28.960 102.618  1.00  0.00     0.183 C 
HETATM   16  O2  UNL     1      23.342  28.312 101.617  1.00  0.00    -0.267 OA
HETATM   17  N3  UNL     1      19.217  28.611 102.680  1.00  0.00    -0.135 NA
ATOM     18  H4  UNL     1      18.399  26.798 103.542  1.00  0.00     0.184 HD
ENDBRANCH   1   6
BRANCH   5  19
HETATM   19  O7  UNL     1      25.999  27.203 101.991  1.00  0.00    -0.380 OA
ATOM     20  H7  UNL     1      26.925  27.185 102.201  1.00  0.00     0.211 HD
ENDBRANCH   5  19
BRANCH   5  21
HETATM   21  C10 UNL     1      24.855  25.786 103.562  1.00  0.00     0.209 C 
BRANCH  21  22
HETATM   22  O8  UNL     1      25.664  26.434 104.496  1.00  0.00    -0.398 OA
ATOM     23  H8  UNL     1      25.832  25.885 105.252  1.00  0.00     0.209 HD
ENDBRANCH  21  22
ENDBRANCH   5  21
BRANCH   3  24
HETATM   24  O4  UNL     1      25.523  22.749 101.928  1.00  0.00    -0.362 OA
ATOM     25  H4  UNL     1      25.491  21.939 101.432  1.00  0.00     0.213 HD
ENDBRANCH   3  24
BRANCH   3  26
HETATM   26  C7  UNL     1      26.178  23.440  99.792  1.00  0.00     0.235 C 
BRANCH  26  27
HETATM   27  O5  UNL     1      27.376  24.144  99.677  1.00  0.00    -0.395 OA
ATOM     28  H5  UNL     1      27.155  24.995  99.317  1.00  0.00     0.209 HD
ENDBRANCH  26  27
ENDBRANCH   3  26
BRANCH   4  29
HETATM   29  O6  UNL     1      27.137  24.485 102.810  1.00  0.00    -0.387 OA
ATOM     30  H6  UNL     1      26.661  24.214 103.586  1.00  0.00     0.210 HD
ENDBRANCH   4  29
TORSDOF 8
ENDMDL
MODEL 5
REMARK VINA RESULT: -6.572636788      2.461      4.712
REMARK  8 active torsions:
REMARK  status: ('A' for Active; 'I' for Inactive)
REMARK    1  A    between atoms: N2_9  and  C5_10 
REMARK    2  A    between atoms: C6_12  and  O4_13 
REMARK    3  A    between atoms: C6_12  and  C7_15 
REMARK    4  A    between atoms: C7_15  and  O5_16 
REMARK    5  A    between atoms: C8_18  and  O6_19 
REMARK    6  A    between atoms: C9_21  and  O7_22 
REMARK    7  A    between atoms: C9_21  and  C10_24 
REMARK    8  A    between atoms: C10_24  and  O8_25 
ROOT
HETATM    1  C5  UNL     1      18.826  25.457 102.480  1.00  0.00     0.279 C 
HETATM    2  O3  UNL     1      19.696  24.448 102.115  1.00  0.00    -0.322 OA
HETATM    3  C6  UNL     1      19.028  23.537 101.350  1.00  0.00     0.215 C 
HETATM    4  C8  UNL     1      17.676  24.047 101.020  1.00  0.00     0.223 C 
HETATM    5  C9  UNL     1      17.747  25.501 101.451  1.00  0.00     0.154 C 
ENDROOT
BRANCH   1   6
HETATM    6  N2  UNL     1      19.597  26.690 102.584  1.00  0.00    -0.234 N 
HETATM    7  C1  UNL     1      19.122  27.781 103.208  1.00  0.00     0.333 A 
HETATM    8  O1  UNL     1      17.968  27.762 103.730  1.00  0.00    -0.246 OA
HETATM    9  N1  UNL     1      19.801  28.934 103.324  1.00  0.00    -0.293 N 
HETATM   10  C2  UNL     1      21.042  29.081 102.807  1.00  0.00     0.134 A 
ATOM     11  H1  UNL     1      19.370  29.718 103.813  1.00  0.00     0.172 HD
HETATM   12  C3  UNL     1      21.566  27.973 102.156  1.00  0.00     0.071 A 
HETATM   13  N4  UNL     1      21.984  30.145 102.767  1.00  0.00    -0.288 N 
HETATM   14  C4  UNL     1      20.831  26.799 102.058  1.00  0.00     0.265 A 
HETATM   15  C11 UNL     1      22.919  28.381 101.687  1.00  0.00     0.183 C 
HETATM   16  O2  UNL     1      21.374  25.840 101.452  1.00  0.00    -0.267 OA
HETATM   17  N3  UNL     1      22.904  29.813 101.772  1.00  0.00    -0.135 NA
ATOM     18  H4  UNL     1      21.987  30.984 103.350  1.00  0.00     0.184 HD
ENDBRANCH   1   6
BRANCH   5  19
HETATM   19  O7  UNL     1      16.502  25.819 101.957  1.00  0.00    -0.380 OA
ATOM     20  H7  UNL     1      16.528  26.388 102.717  1.00  0.00     0.211 HD
ENDBRANCH   5  19
BRANCH   5  21
HETATM   21  C10 UNL     1      18.147  26.399 100.301  1.00  0.00     0.209 C 
BRANCH  21  22
HETATM   22  O8  UNL     1      19.105  25.794  99.486  1.00  0.00    -0.398 OA
ATOM     23  H8  UNL     1      18.960  25.995  98.570  1.00  0.00     0.209 HD
ENDBRANCH  21  22
ENDBRANCH   5  21
BRANCH   3  24
HETATM   24  O4  UNL     1      19.690  23.247 100.143  1.00  0.00    -0.362 OA
ATOM     25  H4  UNL     1      20.066  22.375 100.129  1.00  0.00     0.213 HD
ENDBRANCH   3  24
BRANCH   3  26
HETATM   26  C7  UNL     1      18.928  22.196 102.088  1.00  0.00     0.235 C 
BRANCH  26  27
HETATM   27  O5  UNL     1      19.984  22.166 102.998  1.00  0.00    -0.395 OA
ATOM     28  H5  UNL     1      20.722  21.777 102.542  1.00  0.00     0.209 HD
ENDBRANCH  26  27
ENDBRANCH   3  26
BRANCH   4  29
HETATM   29  O6  UNL     1      17.276  23.874  99.727  1.00  0.00    -0.387 OA
ATOM     30  H6  UNL     1      16.350  23.705  99.601  1.00  0.00     0.210 HD
ENDBRANCH   4  29
TORSDOF 8
ENDMDL
