MODEL 1
REMARK VINA RESULT: -6.579644879      0.000      0.000
REMARK  9 active torsions:
REMARK  status: ('A' for Active; 'I' for Inactive)
REMARK    1  A    between atoms: N1_1  and  N2_4 
REMARK    2  A    between atoms: N2_4  and  N3_6 
REMARK    3  A    between atoms: N3_6  and  C1_8 
REMARK    4  A    between atoms: C2_11  and  C3_12 
REMARK    5  A    between atoms: C3_12  and  N5_13 
REMARK    6  A    between atoms: C4_17  and  O1_18 
REMARK    7  A    between atoms: N6_20  and  N7_21 
REMARK    8  A    between atoms: C8_27  and  N9_28 
REMARK    9  A    between atoms: C9_34  and  N12_35 
ROOT
HETATM    1  C1  UNL     1      20.042  23.346 101.119  1.00  0.00     0.714 C 
HETATM    2  N4  UNL     1      19.638  22.559 100.162  1.00  0.00    -0.213 N 
ATOM      3  H4  UNL     1      19.270  21.618 100.300  1.00  0.00     0.178 HD
HETATM    4  C2  UNL     1      19.786  23.209  98.877  1.00  0.00     0.175 C 
HETATM    5  C4  UNL     1      19.965  24.641  99.231  1.00  0.00     0.284 C 
HETATM    6  N6  UNL     1      20.504  24.593 100.578  1.00  0.00    -0.083 N 
ENDROOT
BRANCH   6   7
HETATM    7  N7  UNL     1      21.294  25.520 101.266  1.00  0.00    -0.230 N 
HETATM    8  C5  UNL     1      22.542  25.300 101.730  1.00  0.00     0.209 A 
HETATM    9  N8  UNL     1      23.027  26.379 102.345  1.00  0.00    -0.335 N 
HETATM   10  C6  UNL     1      22.081  27.334 102.288  1.00  0.00     0.133 A 
ATOM     11  H8  UNL     1      23.946  26.465 102.778  1.00  0.00     0.168 HD
HETATM   12  C7  UNL     1      20.998  26.790 101.611  1.00  0.00     0.127 A 
HETATM   13  N13 UNL     1      22.191  28.637 102.839  1.00  0.00    -0.333 N 
HETATM   14  C8  UNL     1      19.723  27.450 101.273  1.00  0.00     0.347 C 
HETATM   15  N10 UNL     1      19.726  28.830 101.767  1.00  0.00    -0.105 NA
HETATM   16  N11 UNL     1      19.870  28.885 103.137  1.00  0.00    -0.092 NA
HETATM   17  C9  UNL     1      21.181  29.421 103.525  1.00  0.00     0.394 C 
ATOM     18  H13 UNL     1      23.103  29.082 102.741  1.00  0.00     0.164 HD
BRANCH  14  19
HETATM   19  N9  UNL     1      18.550  26.823 101.822  1.00  0.00    -0.054 N 
ATOM     20  H93 UNL     1      18.449  25.878 101.450  1.00  0.00     0.276 HD
ATOM     21  H92 UNL     1      18.693  26.611 102.810  1.00  0.00     0.276 HD
ATOM     22  H91 UNL     1      17.684  27.346 101.697  1.00  0.00     0.276 HD
ENDBRANCH  14  19
BRANCH  17  23
HETATM   23  N12 UNL     1      21.216  30.811 103.188  1.00  0.00    -0.043 N 
ATOM     24 3H12 UNL     1      20.623  31.036 102.389  1.00  0.00     0.278 HD
ATOM     25 2H12 UNL     1      20.744  31.394 103.880  1.00  0.00     0.278 HD
ATOM     26 1H12 UNL     1      22.189  31.082 103.044  1.00  0.00     0.278 HD
ENDBRANCH  17  23
ENDBRANCH   6   7
BRANCH   1  27
HETATM   27  N3  UNL     1      20.040  23.024 102.505  1.00  0.00    -0.117 N 
ATOM     28  H3  UNL     1      19.713  23.706 103.189  1.00  0.00     0.207 HD
BRANCH  27  29
HETATM   29  N2  UNL     1      20.489  21.769 102.926  1.00  0.00    -0.235 N 
ATOM     30  H2  UNL     1      21.281  21.316 102.471  1.00  0.00     0.208 HD
BRANCH  29  31
HETATM   31  N1  UNL     1      19.886  21.212 103.887  1.00  0.00    -0.330 N 
ATOM     32  H12 UNL     1      19.390  20.334 103.737  1.00  0.00     0.178 HD
ATOM     33  H11 UNL     1      19.913  21.665 104.800  1.00  0.00     0.178 HD
ENDBRANCH  29  31
ENDBRANCH  27  29
ENDBRANCH   1  27
BRANCH   5  34
HETATM   34  O1  UNL     1      20.705  25.394  98.359  1.00  0.00    -0.372 OA
ATOM     35  H1  UNL     1      20.713  26.332  98.514  1.00  0.00     0.212 HD
ENDBRANCH   5  34
BRANCH   4  36
HETATM   36  C3  UNL     1      20.874  22.597  98.053  1.00  0.00     0.259 C 
BRANCH  36  37
HETATM   37  N5  UNL     1      20.989  23.077  96.716  1.00  0.00    -0.077 N 
ATOM     38  H53 UNL     1      20.569  22.407  96.071  1.00  0.00     0.274 HD
ATOM     39  H52 UNL     1      20.369  23.875  96.580  1.00  0.00     0.274 HD
ATOM     40  H51 UNL     1      21.931  23.313  96.406  1.00  0.00     0.274 HD
ENDBRANCH  36  37
ENDBRANCH   4  36
TORSDOF 9
ENDMDL
MODEL 2
REMARK VINA RESULT: -6.554306300      2.194      4.190
REMARK  9 active torsions:
REMARK  status: ('A' for Active; 'I' for Inactive)
REMARK    1  A    between atoms: N1_1  and  N2_4 
REMARK    2  A    between atoms: N2_4  and  N3_6 
REMARK    3  A    between atoms: N3_6  and  C1_8 
REMARK    4  A    between atoms: C2_11  and  C3_12 
REMARK    5  A    between atoms: C3_12  and  N5_13 
REMARK    6  A    between atoms: C4_17  and  O1_18 
REMARK    7  A    between atoms: N6_20  and  N7_21 
REMARK    8  A    between atoms: C8_27  and  N9_28 
REMARK    9  A    between atoms: C9_34  and  N12_35 
ROOT
HETATM    1  C1  UNL     1      22.753  24.109 101.710  1.00  0.00     0.714 C 
HETATM    2  N4  UNL     1      23.957  24.331 102.158  1.00  0.00    -0.213 N 
ATOM      3  H4  UNL     1      24.493  23.680 102.732  1.00  0.00     0.178 HD
HETATM    4  C2  UNL     1      24.425  25.631 101.724  1.00  0.00     0.175 C 
HETATM    5  C4  UNL     1      23.488  25.989 100.627  1.00  0.00     0.284 C 
HETATM    6  N6  UNL     1      22.292  25.230 100.941  1.00  0.00    -0.083 N 
ENDROOT
BRANCH   6   7
HETATM    7  N7  UNL     1      20.957  25.469 100.597  1.00  0.00    -0.230 N 
HETATM    8  C5  UNL     1      20.350  25.057  99.465  1.00  0.00     0.209 A 
HETATM    9  N8  UNL     1      19.074  25.445  99.430  1.00  0.00    -0.335 N 
HETATM   10  C6  UNL     1      18.832  26.130 100.563  1.00  0.00     0.133 A 
ATOM     11  H8  UNL     1      18.407  25.258  98.682  1.00  0.00     0.168 HD
HETATM   12  C7  UNL     1      20.014  26.140 101.289  1.00  0.00     0.127 A 
HETATM   13  N13 UNL     1      17.595  26.730 100.913  1.00  0.00    -0.333 N 
HETATM   14  C8  UNL     1      20.252  26.746 102.614  1.00  0.00     0.347 C 
HETATM   15  N10 UNL     1      19.024  27.378 103.104  1.00  0.00    -0.105 NA
HETATM   16  N11 UNL     1      18.591  28.381 102.262  1.00  0.00    -0.092 NA
HETATM   17  C9  UNL     1      17.356  28.006 101.561  1.00  0.00     0.394 C 
ATOM     18  H13 UNL     1      16.761  26.193 100.677  1.00  0.00     0.164 HD
BRANCH  14  19
HETATM   19  N9  UNL     1      21.273  27.760 102.643  1.00  0.00    -0.054 N 
ATOM     20  H93 UNL     1      20.903  28.643 102.290  1.00  0.00     0.276 HD
ATOM     21  H92 UNL     1      21.479  28.026 103.606  1.00  0.00     0.276 HD
ATOM     22  H91 UNL     1      22.134  27.518 102.153  1.00  0.00     0.276 HD
ENDBRANCH  14  19
BRANCH  17  23
HETATM   23  N12 UNL     1      16.291  27.968 102.515  1.00  0.00    -0.043 N 
ATOM     24 3H12 UNL     1      15.432  28.390 102.162  1.00  0.00     0.278 HD
ATOM     25 2H12 UNL     1      15.930  27.025 102.664  1.00  0.00     0.278 HD
ATOM     26 1H12 UNL     1      16.618  28.404 103.378  1.00  0.00     0.278 HD
ENDBRANCH  17  23
ENDBRANCH   6   7
BRANCH   1  27
HETATM   27  N3  UNL     1      21.991  22.931 101.949  1.00  0.00    -0.117 N 
ATOM     28  H3  UNL     1      20.997  22.910 101.723  1.00  0.00     0.207 HD
BRANCH  27  29
HETATM   29  N2  UNL     1      22.610  21.804 102.496  1.00  0.00    -0.235 N 
ATOM     30  H2  UNL     1      23.626  21.742 102.558  1.00  0.00     0.208 HD
BRANCH  29  31
HETATM   31  N1  UNL     1      21.875  20.864 102.914  1.00  0.00    -0.330 N 
ATOM     32  H12 UNL     1      20.881  21.027 103.074  1.00  0.00     0.178 HD
ATOM     33  H11 UNL     1      22.306  19.955 103.082  1.00  0.00     0.178 HD
ENDBRANCH  29  31
ENDBRANCH  27  29
ENDBRANCH   1  27
BRANCH   5  34
HETATM   34  O1  UNL     1      23.267  27.326 100.430  1.00  0.00    -0.372 OA
ATOM     35  H1  UNL     1      22.391  27.641 100.622  1.00  0.00     0.212 HD
ENDBRANCH   5  34
BRANCH   4  36
HETATM   36  C3  UNL     1      24.514  26.608 102.854  1.00  0.00     0.259 C 
BRANCH  36  37
HETATM   37  N5  UNL     1      25.337  26.219 103.950  1.00  0.00    -0.077 N 
ATOM     38  H53 UNL     1      26.274  26.606 103.834  1.00  0.00     0.274 HD
ATOM     39  H52 UNL     1      25.041  26.707 104.796  1.00  0.00     0.274 HD
ATOM     40  H51 UNL     1      25.396  25.217 104.130  1.00  0.00     0.274 HD
ENDBRANCH  36  37
ENDBRANCH   4  36
TORSDOF 9
ENDMDL
MODEL 3
REMARK VINA RESULT: -6.489819111      2.767      3.977
REMARK  9 active torsions:
REMARK  status: ('A' for Active; 'I' for Inactive)
REMARK    1  A    between atoms: N1_1  and  N2_4 
REMARK    2  A    between atoms: N2_4  and  N3_6 
REMARK    3  A    between atoms: N3_6  and  C1_8 
REMARK    4  A    between atoms: C2_11  and  C3_12 
REMARK    5  A    between atoms: C3_12  and  N5_13 
REMARK    6  A    between atoms: C4_17  and  O1_18 
REMARK    7  A    between atoms: N6_20  and  N7_21 
REMARK    8  A    between atoms: C8_27  and  N9_28 
REMARK    9  A    between atoms: C9_34  and  N12_35 
ROOT
HETATM    1  C1  UNL     1      17.596  24.439 100.290  1.00  0.00     0.714 C 
HETATM    2  N4  UNL     1      16.353  24.082 100.449  1.00  0.00    -0.213 N 
ATOM      3  H4  UNL     1      15.680  23.967  99.692  1.00  0.00     0.178 HD
HETATM    4  C2  UNL     1      16.064  23.871 101.852  1.00  0.00     0.175 C 
HETATM    5  C4  UNL     1      17.410  23.768 102.473  1.00  0.00     0.284 C 
HETATM    6  N6  UNL     1      18.261  24.510 101.560  1.00  0.00    -0.083 N 
ENDROOT
BRANCH   6   7
HETATM    7  N7  UNL     1      19.476  25.163 101.792  1.00  0.00    -0.230 N 
HETATM    8  C5  UNL     1      20.683  24.569 101.896  1.00  0.00     0.209 A 
HETATM    9  N8  UNL     1      21.647  25.463 102.121  1.00  0.00    -0.335 N 
HETATM   10  C6  UNL     1      21.066  26.676 102.167  1.00  0.00     0.133 A 
ATOM     11  H8  UNL     1      22.640  25.264 102.237  1.00  0.00     0.168 HD
HETATM   12  C7  UNL     1      19.707  26.482 101.960  1.00  0.00     0.127 A 
HETATM   13  N13 UNL     1      21.739  27.903 102.401  1.00  0.00    -0.333 N 
HETATM   14  C8  UNL     1      18.650  27.509 101.896  1.00  0.00     0.347 C 
HETATM   15  N10 UNL     1      19.231  28.839 102.094  1.00  0.00    -0.105 NA
HETATM   16  N11 UNL     1      19.846  28.955 103.323  1.00  0.00    -0.092 NA
HETATM   17  C9  UNL     1      21.306  29.039 103.193  1.00  0.00     0.394 C 
ATOM     18  H13 UNL     1      22.650  27.999 101.953  1.00  0.00     0.164 HD
BRANCH  14  19
HETATM   19  N9  UNL     1      17.608  27.368 102.880  1.00  0.00    -0.054 N 
ATOM     20  H93 UNL     1      16.694  27.503 102.446  1.00  0.00     0.276 HD
ATOM     21  H92 UNL     1      17.525  26.393 103.169  1.00  0.00     0.276 HD
ATOM     22  H91 UNL     1      17.703  27.971 103.697  1.00  0.00     0.276 HD
ENDBRANCH  14  19
BRANCH  17  23
HETATM   23  N12 UNL     1      21.633  30.301 102.602  1.00  0.00    -0.043 N 
ATOM     24 3H12 UNL     1      22.436  30.746 103.046  1.00  0.00     0.278 HD
ATOM     25 2H12 UNL     1      22.027  30.206 101.666  1.00  0.00     0.278 HD
ATOM     26 1H12 UNL     1      20.799  30.888 102.620  1.00  0.00     0.278 HD
ENDBRANCH  17  23
ENDBRANCH   6   7
BRANCH   1  27
HETATM   27  N3  UNL     1      18.216  24.730  99.043  1.00  0.00    -0.117 N 
ATOM     28  H3  UNL     1      17.926  25.547  98.505  1.00  0.00     0.207 HD
BRANCH  27  29
HETATM   29  N2  UNL     1      19.221  23.891  98.556  1.00  0.00    -0.235 N 
ATOM     30  H2  UNL     1      19.052  22.895  98.419  1.00  0.00     0.208 HD
BRANCH  29  31
HETATM   31  N1  UNL     1      20.346  24.401  98.289  1.00  0.00    -0.330 N 
ATOM     32  H12 UNL     1      20.536  25.373  98.534  1.00  0.00     0.178 HD
ATOM     33  H11 UNL     1      21.044  23.816  97.829  1.00  0.00     0.178 HD
ENDBRANCH  29  31
ENDBRANCH  27  29
ENDBRANCH   1  27
BRANCH   5  34
HETATM   34  O1  UNL     1      17.508  24.168 103.779  1.00  0.00    -0.372 OA
ATOM     35  H1  UNL     1      18.375  24.132 104.167  1.00  0.00     0.212 HD
ENDBRANCH   5  34
BRANCH   4  36
HETATM   36  C3  UNL     1      15.163  24.926 102.411  1.00  0.00     0.259 C 
BRANCH  36  37
HETATM   37  N5  UNL     1      14.445  24.574 103.589  1.00  0.00    -0.077 N 
ATOM     38  H53 UNL     1      13.696  25.247 103.753  1.00  0.00     0.274 HD
ATOM     39  H52 UNL     1      13.899  23.729 103.422  1.00  0.00     0.274 HD
ATOM     40  H51 UNL     1      15.003  24.464 104.436  1.00  0.00     0.274 HD
ENDBRANCH  36  37
ENDBRANCH   4  36
TORSDOF 9
ENDMDL
MODEL 4
REMARK VINA RESULT: -6.471596344      2.205      3.960
REMARK  9 active torsions:
REMARK  status: ('A' for Active; 'I' for Inactive)
REMARK    1  A    between atoms: N1_1  and  N2_4 
REMARK    2  A    between atoms: N2_4  and  N3_6 
REMARK    3  A    between atoms: N3_6  and  C1_8 
REMARK    4  A    between atoms: C2_11  and  C3_12 
REMARK    5  A    between atoms: C3_12  and  N5_13 
REMARK    6  A    between atoms: C4_17  and  O1_18 
REMARK    7  A    between atoms: N6_20  and  N7_21 
REMARK    8  A    between atoms: C8_27  and  N9_28 
REMARK    9  A    between atoms: C9_34  and  N12_35 
ROOT
HETATM    1  C1  UNL     1      17.992  25.706 101.998  1.00  0.00     0.714 C 
HETATM    2  N4  UNL     1      17.217  24.938 101.288  1.00  0.00    -0.213 N 
ATOM      3  H4  UNL     1      16.401  24.442 101.648  1.00  0.00     0.178 HD
HETATM    4  C2  UNL     1      17.676  24.886  99.915  1.00  0.00     0.175 C 
HETATM    5  C4  UNL     1      18.602  26.044  99.816  1.00  0.00     0.284 C 
HETATM    6  N6  UNL     1      19.046  26.241 101.183  1.00  0.00    -0.083 N 
ENDROOT
BRANCH   6   7
HETATM    7  N7  UNL     1      20.219  26.824 101.675  1.00  0.00    -0.230 N 
HETATM    8  C5  UNL     1      20.381  28.127 101.986  1.00  0.00     0.209 A 
HETATM    9  N8  UNL     1      21.616  28.372 102.426  1.00  0.00    -0.335 N 
HETATM   10  C6  UNL     1      22.287  27.206 102.405  1.00  0.00     0.133 A 
ATOM     11  H8  UNL     1      21.983  29.275 102.723  1.00  0.00     0.168 HD
HETATM   12  C7  UNL     1      21.407  26.241 101.934  1.00  0.00     0.127 A 
HETATM   13  N13 UNL     1      23.643  27.030 102.784  1.00  0.00    -0.333 N 
HETATM   14  C8  UNL     1      21.664  24.800 101.753  1.00  0.00     0.347 C 
HETATM   15  N10 UNL     1      23.039  24.482 102.146  1.00  0.00    -0.105 NA
HETATM   16  N11 UNL     1      23.963  25.166 101.384  1.00  0.00    -0.092 NA
HETATM   17  C9  UNL     1      24.657  26.196 102.166  1.00  0.00     0.394 C 
ATOM     18  H13 UNL     1      23.946  27.561 103.600  1.00  0.00     0.164 HD
BRANCH  14  19
HETATM   19  N9  UNL     1      21.503  24.319 100.405  1.00  0.00    -0.054 N 
ATOM     20  H93 UNL     1      20.514  24.284 100.160  1.00  0.00     0.276 HD
ATOM     21  H92 UNL     1      21.827  25.021  99.740  1.00  0.00     0.276 HD
ATOM     22  H91 UNL     1      21.947  23.421 100.213  1.00  0.00     0.276 HD
ENDBRANCH  14  19
BRANCH  17  23
HETATM   23  N12 UNL     1      25.510  25.544 103.112  1.00  0.00    -0.043 N 
ATOM     24 3H12 UNL     1      25.365  25.876 104.066  1.00  0.00     0.278 HD
ATOM     25 2H12 UNL     1      25.253  24.568 103.265  1.00  0.00     0.278 HD
ATOM     26 1H12 UNL     1      26.475  25.652 102.801  1.00  0.00     0.278 HD
ENDBRANCH  17  23
ENDBRANCH   6   7
BRANCH   1  27
HETATM   27  N3  UNL     1      17.833  25.979 103.386  1.00  0.00    -0.117 N 
ATOM     28  H3  UNL     1      17.999  25.245 104.074  1.00  0.00     0.207 HD
BRANCH  27  29
HETATM   29  N2  UNL     1      17.448  27.256 103.802  1.00  0.00    -0.235 N 
ATOM     30  H2  UNL     1      17.745  27.624 104.705  1.00  0.00     0.208 HD
BRANCH  29  31
HETATM   31  N1  UNL     1      16.722  27.941 103.028  1.00  0.00    -0.330 N 
ATOM     32  H12 UNL     1      15.934  27.505 102.548  1.00  0.00     0.178 HD
ATOM     33  H11 UNL     1      16.948  28.928 102.903  1.00  0.00     0.178 HD
ENDBRANCH  29  31
ENDBRANCH  27  29
ENDBRANCH   1  27
BRANCH   5  34
HETATM   34  O1  UNL     1      19.621  25.929  98.908  1.00  0.00    -0.372 OA
ATOM     35  H1  UNL     1      19.528  25.245  98.255  1.00  0.00     0.212 HD
ENDBRANCH   5  34
BRANCH   4  36
HETATM   36  C3  UNL     1      18.253  23.552  99.560  1.00  0.00     0.259 C 
BRANCH  36  37
HETATM   37  N5  UNL     1      18.592  23.365  98.189  1.00  0.00    -0.077 N 
ATOM     38  H53 UNL     1      18.243  24.148  97.636  1.00  0.00     0.274 HD
ATOM     39  H52 UNL     1      19.597  23.483  98.061  1.00  0.00     0.274 HD
ATOM     40  H51 UNL     1      18.291  22.484  97.772  1.00  0.00     0.274 HD
ENDBRANCH  36  37
ENDBRANCH   4  36
TORSDOF 9
ENDMDL
MODEL 5
REMARK VINA RESULT: -6.420558821      1.874      3.277
REMARK  9 active torsions:
REMARK  status: ('A' for Active; 'I' for Inactive)
REMARK    1  A    between atoms: N1_1  and  N2_4 
REMARK    2  A    between atoms: N2_4  and  N3_6 
REMARK    3  A    between atoms: N3_6  and  C1_8 
REMARK    4  A    between atoms: C2_11  and  C3_12 
REMARK    5  A    between atoms: C3_12  and  N5_13 
REMARK    6  A    between atoms: C4_17  and  O1_18 
REMARK    7  A    between atoms: N6_20  and  N7_21 
REMARK    8  A    between atoms: C8_27  and  N9_28 
REMARK    9  A    between atoms: C9_34  and  N12_35 
ROOT
HETATM    1  C1  UNL     1      19.475  24.028  99.380  1.00  0.00     0.714 C 
HETATM    2  N4  UNL     1      18.316  23.462  99.197  1.00  0.00    -0.213 N 
ATOM      3  H4  UNL     1      17.926  23.219  98.287  1.00  0.00     0.178 HD
HETATM    4  C2  UNL     1      17.662  23.228 100.467  1.00  0.00     0.175 C 
HETATM    5  C4  UNL     1      18.762  23.373 101.456  1.00  0.00     0.284 C 
HETATM    6  N6  UNL     1      19.714  24.235 100.781  1.00  0.00    -0.083 N 
ENDROOT
BRANCH   6   7
HETATM    7  N7  UNL     1      20.683  25.095 101.308  1.00  0.00    -0.230 N 
HETATM    8  C5  UNL     1      21.936  24.744 101.664  1.00  0.00     0.209 A 
HETATM    9  N8  UNL     1      22.617  25.789 102.137  1.00  0.00    -0.335 N 
HETATM   10  C6  UNL     1      21.797  26.855 102.094  1.00  0.00     0.133 A 
ATOM     11  H8  UNL     1      23.581  25.782 102.470  1.00  0.00     0.168 HD
HETATM   12  C7  UNL     1      20.588  26.414 101.574  1.00  0.00     0.127 A 
HETATM   13  N13 UNL     1      22.128  28.167 102.522  1.00  0.00    -0.333 N 
HETATM   14  C8  UNL     1      19.376  27.213 101.308  1.00  0.00     0.347 C 
HETATM   15  N10 UNL     1      19.605  28.610 101.683  1.00  0.00    -0.105 NA
HETATM   16  N11 UNL     1      19.902  28.741 103.024  1.00  0.00    -0.092 NA
HETATM   17  C9  UNL     1      21.304  29.124 103.235  1.00  0.00     0.394 C 
ATOM     18  H13 UNL     1      23.072  28.478 102.297  1.00  0.00     0.164 HD
BRANCH  14  19
HETATM   19  N9  UNL     1      18.200  26.786 102.021  1.00  0.00    -0.054 N 
ATOM     20  H93 UNL     1      17.400  26.749 101.389  1.00  0.00     0.276 HD
ATOM     21  H92 UNL     1      18.276  25.800 102.270  1.00  0.00     0.276 HD
ATOM     22  H91 UNL     1      17.973  27.341 102.846  1.00  0.00     0.276 HD
ENDBRANCH  14  19
BRANCH  17  23
HETATM   23  N12 UNL     1      21.476  30.470 102.782  1.00  0.00    -0.043 N 
ATOM     24 3H12 UNL     1      20.588  30.937 102.595  1.00  0.00     0.278 HD
ATOM     25 2H12 UNL     1      21.808  31.093 103.519  1.00  0.00     0.278 HD
ATOM     26 1H12 UNL     1      22.093  30.459 101.970  1.00  0.00     0.278 HD
ENDBRANCH  17  23
ENDBRANCH   6   7
BRANCH   1  27
HETATM   27  N3  UNL     1      20.381  24.401  98.348  1.00  0.00    -0.117 N 
ATOM     28  H3  UNL     1      21.028  25.176  98.490  1.00  0.00     0.207 HD
BRANCH  27  29
HETATM   29  N2  UNL     1      20.380  23.701  97.139  1.00  0.00    -0.235 N 
ATOM     30  H2  UNL     1      19.629  23.829  96.460  1.00  0.00     0.208 HD
BRANCH  29  31
HETATM   31  N1  UNL     1      21.335  22.906  96.909  1.00  0.00    -0.330 N 
ATOM     32  H12 UNL     1      21.356  21.990  97.356  1.00  0.00     0.178 HD
ATOM     33  H11 UNL     1      22.072  23.210  96.271  1.00  0.00     0.178 HD
ENDBRANCH  29  31
ENDBRANCH  27  29
ENDBRANCH   1  27
BRANCH   5  34
HETATM   34  O1  UNL     1      18.402  23.806 102.704  1.00  0.00    -0.372 OA
ATOM     35  H1  UNL     1      18.633  24.702 102.922  1.00  0.00     0.212 HD
ENDBRANCH   5  34
BRANCH   4  36
HETATM   36  C3  UNL     1      16.478  24.120 100.669  1.00  0.00     0.259 C 
BRANCH  36  37
HETATM   37  N5  UNL     1      15.599  23.760 101.730  1.00  0.00    -0.077 N 
ATOM     38  H53 UNL     1      15.543  22.744 101.803  1.00  0.00     0.274 HD
ATOM     39  H52 UNL     1      16.029  23.985 102.627  1.00  0.00     0.274 HD
ATOM     40  H51 UNL     1      14.660  24.156 101.686  1.00  0.00     0.274 HD
ENDBRANCH  36  37
ENDBRANCH   4  36
TORSDOF 9
ENDMDL
