MODEL 1
REMARK VINA RESULT: -4.631470749      0.000      0.000
REMARK  2 active torsions:
REMARK  status: ('A' for Active; 'I' for Inactive)
REMARK    1  A    between atoms: C2_2  and  N1_3 
REMARK    2  A    between atoms: C4_8  and  C5_9 
ROOT
HETATM    1  C1  UNL     1      11.490   5.868  26.012  1.00  0.00     0.046 C 
HETATM    2  C2  UNL     1      12.128   5.318  24.752  1.00  0.00     0.124 A 
HETATM    3  C3  UNL     1      11.289   4.783  23.652  1.00  0.00     0.046 A 
HETATM    4  C4  UNL     1      11.901   3.807  24.549  1.00  0.00     0.027 A 
ENDROOT
BRANCH   2   5
HETATM    5  N1  UNL     1      13.339   5.930  24.392  1.00  0.00    -0.070 N 
ATOM      6  H13 UNL     1      13.300   6.931  24.585  1.00  0.00     0.275 HD
ATOM      7  H12 UNL     1      14.080   5.655  25.036  1.00  0.00     0.275 HD
ATOM      8  H11 UNL     1      13.629   5.767  23.428  1.00  0.00     0.275 HD
ENDBRANCH   2   5
BRANCH   4   9
HETATM    9  C5  UNL     1      13.162   3.060  24.266  1.00  0.00    -0.008 C 
HETATM   10  C6  UNL     1      13.565   2.164  25.420  1.00  0.00     0.005 C 
HETATM   11  C7  UNL     1      12.715   1.085  24.728  1.00  0.00     0.001 C 
HETATM   12  C8  UNL     1      13.035   1.807  23.437  1.00  0.00     0.005 C 
ENDBRANCH   4   9
TORSDOF 2
ENDMDL
MODEL 2
REMARK VINA RESULT: -4.556131686      2.286      3.869
REMARK  2 active torsions:
REMARK  status: ('A' for Active; 'I' for Inactive)
REMARK    1  A    between atoms: C2_2  and  N1_3 
REMARK    2  A    between atoms: C4_8  and  C5_9 
ROOT
HETATM    1  C1  UNL     1      14.575   0.128  27.441  1.00  0.00     0.046 C 
HETATM    2  C2  UNL     1      14.356   1.529  26.909  1.00  0.00     0.124 A 
HETATM    3  C3  UNL     1      13.112   2.273  27.228  1.00  0.00     0.046 A 
HETATM    4  C4  UNL     1      13.183   1.640  25.914  1.00  0.00     0.027 A 
ENDROOT
BRANCH   2   5
HETATM    5  N1  UNL     1      15.528   2.285  26.745  1.00  0.00    -0.070 N 
ATOM      6  H13 UNL     1      16.325   1.792  27.147  1.00  0.00     0.275 HD
ATOM      7  H12 UNL     1      15.805   2.299  25.765  1.00  0.00     0.275 HD
ATOM      8  H11 UNL     1      15.477   3.235  27.113  1.00  0.00     0.275 HD
ENDBRANCH   2   5
BRANCH   4   9
HETATM    9  C5  UNL     1      13.556   2.340  24.649  1.00  0.00    -0.008 C 
HETATM   10  C6  UNL     1      13.238   1.507  23.423  1.00  0.00     0.005 C 
HETATM   11  C7  UNL     1      11.863   2.196  23.453  1.00  0.00     0.001 C 
HETATM   12  C8  UNL     1      12.573   3.354  24.122  1.00  0.00     0.005 C 
ENDBRANCH   4   9
TORSDOF 2
ENDMDL
MODEL 3
REMARK VINA RESULT: -4.340162430      1.677      3.840
REMARK  2 active torsions:
REMARK  status: ('A' for Active; 'I' for Inactive)
REMARK    1  A    between atoms: C2_2  and  N1_3 
REMARK    2  A    between atoms: C4_8  and  C5_9 
ROOT
HETATM    1  C1  UNL     1      12.450   0.632  25.057  1.00  0.00     0.046 C 
HETATM    2  C2  UNL     1      13.281   1.879  24.831  1.00  0.00     0.124 A 
HETATM    3  C3  UNL     1      13.716   2.715  25.977  1.00  0.00     0.046 A 
HETATM    4  C4  UNL     1      12.561   3.185  25.217  1.00  0.00     0.027 A 
ENDROOT
BRANCH   2   5
HETATM    5  N1  UNL     1      14.142   1.817  23.723  1.00  0.00    -0.070 N 
ATOM      6  H13 UNL     1      14.157   0.873  23.339  1.00  0.00     0.275 HD
ATOM      7  H12 UNL     1      13.739   2.322  22.934  1.00  0.00     0.275 HD
ATOM      8  H11 UNL     1      15.092   2.142  23.902  1.00  0.00     0.275 HD
ENDBRANCH   2   5
BRANCH   4   9
HETATM    9  C5  UNL     1      12.611   4.218  24.140  1.00  0.00    -0.008 C 
HETATM   10  C6  UNL     1      11.228   4.586  23.640  1.00  0.00     0.005 C 
HETATM   11  C7  UNL     1      11.242   5.663  24.738  1.00  0.00     0.001 C 
HETATM   12  C8  UNL     1      12.748   5.652  24.585  1.00  0.00     0.005 C 
ENDBRANCH   4   9
TORSDOF 2
ENDMDL
MODEL 4
REMARK VINA RESULT: -4.205191143      1.873      3.799
REMARK  2 active torsions:
REMARK  status: ('A' for Active; 'I' for Inactive)
REMARK    1  A    between atoms: C2_2  and  N1_3 
REMARK    2  A    between atoms: C4_8  and  C5_9 
ROOT
HETATM    1  C1  UNL     1      15.091   1.849  26.058  1.00  0.00     0.046 C 
HETATM    2  C2  UNL     1      13.682   1.764  25.508  1.00  0.00     0.124 A 
HETATM    3  C3  UNL     1      13.448   1.482  24.070  1.00  0.00     0.046 A 
HETATM    4  C4  UNL     1      13.342   2.875  24.495  1.00  0.00     0.027 A 
ENDROOT
BRANCH   2   5
HETATM    5  N1  UNL     1      12.726   1.283  26.416  1.00  0.00    -0.070 N 
ATOM      6  H13 UNL     1      12.684   1.886  27.238  1.00  0.00     0.275 HD
ATOM      7  H12 UNL     1      11.786   1.424  26.048  1.00  0.00     0.275 HD
ATOM      8  H11 UNL     1      12.854   0.311  26.696  1.00  0.00     0.275 HD
ENDBRANCH   2   5
BRANCH   4   9
HETATM    9  C5  UNL     1      12.061   3.576  24.808  1.00  0.00    -0.008 C 
HETATM   10  C6  UNL     1      12.285   4.834  25.624  1.00  0.00     0.005 C 
HETATM   11  C7  UNL     1      12.403   5.553  24.269  1.00  0.00     0.001 C 
HETATM   12  C8  UNL     1      11.497   4.467  23.730  1.00  0.00     0.005 C 
ENDBRANCH   4   9
TORSDOF 2
ENDMDL
MODEL 5
REMARK VINA RESULT: -4.192734464      2.051      2.319
REMARK  2 active torsions:
REMARK  status: ('A' for Active; 'I' for Inactive)
REMARK    1  A    between atoms: C2_2  and  N1_3 
REMARK    2  A    between atoms: C4_8  and  C5_9 
ROOT
HETATM    1  C1  UNL     1      12.361   4.166  28.426  1.00  0.00     0.046 C 
HETATM    2  C2  UNL     1      13.234   4.150  27.189  1.00  0.00     0.124 A 
HETATM    3  C3  UNL     1      12.695   4.590  25.878  1.00  0.00     0.046 A 
HETATM    4  C4  UNL     1      12.768   3.151  26.111  1.00  0.00     0.027 A 
ENDROOT
BRANCH   2   5
HETATM    5  N1  UNL     1      14.597   4.383  27.429  1.00  0.00    -0.070 N 
ATOM      6  H13 UNL     1      14.725   5.279  27.900  1.00  0.00     0.275 HD
ATOM      7  H12 UNL     1      14.941   3.753  28.153  1.00  0.00     0.275 HD
ATOM      8  H11 UNL     1      15.192   4.330  26.602  1.00  0.00     0.275 HD
ENDBRANCH   2   5
BRANCH   4   9
HETATM    9  C5  UNL     1      13.866   2.262  25.627  1.00  0.00    -0.008 C 
HETATM   10  C6  UNL     1      13.697   0.834  26.107  1.00  0.00     0.005 C 
HETATM   11  C7  UNL     1      12.888   0.618  24.817  1.00  0.00     0.001 C 
HETATM   12  C8  UNL     1      13.732   1.726  24.224  1.00  0.00     0.005 C 
ENDBRANCH   4   9
TORSDOF 2
ENDMDL
