MODEL 1
REMARK VINA RESULT: -4.268819436      0.000      0.000
REMARK  1 active torsions:
REMARK  status: ('A' for Active; 'I' for Inactive)
REMARK    1  A    between atoms: N1_1  and  C1_5 
ROOT
HETATM    1  C1  UNL     1      12.977   1.455  24.670  1.00  0.00     0.188 C 
HETATM    2  C2  UNL     1      13.029   0.137  25.431  1.00  0.00     0.037 C 
HETATM    3  C3  UNL     1      13.725   0.547  26.724  1.00  0.00    -0.012 C 
HETATM    4  C4  UNL     1      12.849   1.543  27.405  1.00  0.00     0.005 C 
HETATM    5  C5  UNL     1      13.002   2.861  26.635  1.00  0.00     0.007 C 
HETATM    6  C6  UNL     1      13.840   2.418  25.454  1.00  0.00     0.016 C 
HETATM    7  C7  UNL     1      14.809   1.460  26.130  1.00  0.00     0.011 C 
ENDROOT
BRANCH   1   8
HETATM    8  N1  UNL     1      13.436   1.354  23.330  1.00  0.00    -0.075 N 
ATOM      9  H13 UNL     1      13.851   0.438  23.159  1.00  0.00     0.274 HD
ATOM     10  H12 UNL     1      12.650   1.309  22.681  1.00  0.00     0.274 HD
ATOM     11  H11 UNL     1      14.081   2.098  23.064  1.00  0.00     0.274 HD
ENDBRANCH   1   8
TORSDOF 1
ENDMDL
MODEL 2
REMARK VINA RESULT: -4.081348890      1.701      2.519
REMARK  1 active torsions:
REMARK  status: ('A' for Active; 'I' for Inactive)
REMARK    1  A    between atoms: N1_1  and  C1_5 
ROOT
HETATM    1  C1  UNL     1      15.142   1.608  26.295  1.00  0.00     0.188 C 
HETATM    2  C2  UNL     1      14.697   0.547  27.293  1.00  0.00     0.037 C 
HETATM    3  C3  UNL     1      13.192   0.506  27.059  1.00  0.00    -0.012 C 
HETATM    4  C4  UNL     1      12.971   0.067  25.651  1.00  0.00     0.005 C 
HETATM    5  C5  UNL     1      13.308   1.269  24.759  1.00  0.00     0.007 C 
HETATM    6  C6  UNL     1      13.872   2.242  25.773  1.00  0.00     0.016 C 
HETATM    7  C7  UNL     1      12.929   2.016  26.945  1.00  0.00     0.011 C 
ENDROOT
BRANCH   1   8
HETATM    8  N1  UNL     1      15.994   2.594  26.859  1.00  0.00    -0.075 N 
ATOM      9  H13 UNL     1      15.663   3.531  26.630  1.00  0.00     0.274 HD
ATOM     10  H12 UNL     1      15.893   2.621  27.874  1.00  0.00     0.274 HD
ATOM     11  H11 UNL     1      16.973   2.484  26.598  1.00  0.00     0.274 HD
ENDBRANCH   1   8
TORSDOF 1
ENDMDL
MODEL 3
REMARK VINA RESULT: -4.077772423      1.632      2.418
REMARK  1 active torsions:
REMARK  status: ('A' for Active; 'I' for Inactive)
REMARK    1  A    between atoms: N1_1  and  C1_5 
ROOT
HETATM    1  C1  UNL     1      12.686   3.111  25.642  1.00  0.00     0.188 C 
HETATM    2  C2  UNL     1      12.422   2.617  24.225  1.00  0.00     0.037 C 
HETATM    3  C3  UNL     1      13.228   1.324  24.186  1.00  0.00    -0.012 C 
HETATM    4  C4  UNL     1      12.646   0.406  25.208  1.00  0.00     0.005 C 
HETATM    5  C5  UNL     1      13.109   0.923  26.577  1.00  0.00     0.007 C 
HETATM    6  C6  UNL     1      13.781   2.223  26.190  1.00  0.00     0.016 C 
HETATM    7  C7  UNL     1      14.493   1.812  24.910  1.00  0.00     0.011 C 
ENDROOT
BRANCH   1   8
HETATM    8  N1  UNL     1      13.074   4.475  25.703  1.00  0.00    -0.075 N 
ATOM      9  H13 UNL     1      12.371   5.070  25.265  1.00  0.00     0.274 HD
ATOM     10  H12 UNL     1      13.020   4.823  26.660  1.00  0.00     0.274 HD
ATOM     11  H11 UNL     1      13.996   4.654  25.306  1.00  0.00     0.274 HD
ENDBRANCH   1   8
TORSDOF 1
ENDMDL
MODEL 4
REMARK VINA RESULT: -3.954331914      1.883      2.951
REMARK  1 active torsions:
REMARK  status: ('A' for Active; 'I' for Inactive)
REMARK    1  A    between atoms: N1_1  and  C1_5 
ROOT
HETATM    1  C1  UNL     1      12.960   1.903  27.165  1.00  0.00     0.188 C 
HETATM    2  C2  UNL     1      12.871   2.989  26.101  1.00  0.00     0.037 C 
HETATM    3  C3  UNL     1      13.532   2.313  24.905  1.00  0.00    -0.012 C 
HETATM    4  C4  UNL     1      12.704   1.124  24.551  1.00  0.00     0.005 C 
HETATM    5  C5  UNL     1      12.999   0.054  25.611  1.00  0.00     0.007 C 
HETATM    6  C6  UNL     1      13.857   0.832  26.587  1.00  0.00     0.016 C 
HETATM    7  C7  UNL     1      14.713   1.649  25.632  1.00  0.00     0.011 C 
ENDROOT
BRANCH   1   8
HETATM    8  N1  UNL     1      13.475   2.367  28.405  1.00  0.00    -0.075 N 
ATOM      9  H13 UNL     1      14.240   1.771  28.723  1.00  0.00     0.274 HD
ATOM     10  H12 UNL     1      13.982   3.243  28.280  1.00  0.00     0.274 HD
ATOM     11  H11 UNL     1      12.765   2.461  29.130  1.00  0.00     0.274 HD
ENDBRANCH   1   8
TORSDOF 1
ENDMDL
MODEL 5
REMARK VINA RESULT: -3.783804850      1.571      2.487
REMARK  1 active torsions:
REMARK  status: ('A' for Active; 'I' for Inactive)
REMARK    1  A    between atoms: N1_1  and  C1_5 
ROOT
HETATM    1  C1  UNL     1      12.578   0.636  25.774  1.00  0.00     0.188 C 
HETATM    2  C2  UNL     1      12.959   1.783  26.701  1.00  0.00     0.037 C 
HETATM    3  C3  UNL     1      13.525   2.805  25.721  1.00  0.00    -0.012 C 
HETATM    4  C4  UNL     1      12.423   3.190  24.792  1.00  0.00     0.005 C 
HETATM    5  C5  UNL     1      12.241   2.017  23.819  1.00  0.00     0.007 C 
HETATM    6  C6  UNL     1      13.167   0.983  24.425  1.00  0.00     0.016 C 
HETATM    7  C7  UNL     1      14.345   1.854  24.834  1.00  0.00     0.011 C 
ENDROOT
BRANCH   1   8
HETATM    8  N1  UNL     1      13.051  -0.628  26.213  1.00  0.00    -0.075 N 
ATOM      9  H13 UNL     1      13.993  -0.803  25.861  1.00  0.00     0.274 HD
ATOM     10  H12 UNL     1      13.243  -0.614  27.215  1.00  0.00     0.274 HD
ATOM     11  H11 UNL     1      12.428  -1.400  25.976  1.00  0.00     0.274 HD
ENDBRANCH   1   8
TORSDOF 1
ENDMDL
