MODEL 1
REMARK VINA RESULT: -4.984800824      0.000      0.000
REMARK  2 active torsions:
REMARK  status: ('A' for Active; 'I' for Inactive)
REMARK    1  A    between atoms: C2_2  and  C4_4 
REMARK    2  A    between atoms: C8_8  and  N1_9 
ROOT
HETATM    1  C4  UNL     1      13.126   2.936  24.337  1.00  0.00     0.019 C 
HETATM    2  C5  UNL     1      13.175   1.546  23.744  1.00  0.00     0.007 C 
HETATM    3  C6  UNL     1      12.877   0.575  24.843  1.00  0.00     0.002 C 
HETATM    4  C7  UNL     1      13.108   1.300  26.131  1.00  0.00     0.033 C 
HETATM    5  C8  UNL     1      13.443   2.736  25.751  1.00  0.00     0.188 C 
ENDROOT
BRANCH   5   6
HETATM    6  N1  UNL     1      12.852   3.625  26.688  1.00  0.00    -0.075 N 
ATOM      7  H13 UNL     1      12.193   4.236  26.205  1.00  0.00     0.274 HD
ATOM      8  H12 UNL     1      12.220   3.104  27.294  1.00  0.00     0.274 HD
ATOM      9  H11 UNL     1      13.478   4.191  27.261  1.00  0.00     0.274 HD
ENDBRANCH   5   6
BRANCH   1  10
HETATM   10  C2  UNL     1      11.808   3.554  24.005  1.00  0.00    -0.017 C 
HETATM   11  C1  UNL     1      11.817   5.056  24.031  1.00  0.00     0.010 C 
HETATM   12  C3  UNL     1      11.182   3.018  22.743  1.00  0.00     0.010 C 
ENDBRANCH   1  10
TORSDOF 2
ENDMDL
MODEL 2
REMARK VINA RESULT: -4.492098325      1.757      2.586
REMARK  2 active torsions:
REMARK  status: ('A' for Active; 'I' for Inactive)
REMARK    1  A    between atoms: C2_2  and  C4_4 
REMARK    2  A    between atoms: C8_8  and  N1_9 
ROOT
HETATM    1  C4  UNL     1      12.499   2.876  25.336  1.00  0.00     0.019 C 
HETATM    2  C5  UNL     1      12.917   3.100  26.771  1.00  0.00     0.007 C 
HETATM    3  C6  UNL     1      14.349   2.687  26.895  1.00  0.00     0.002 C 
HETATM    4  C7  UNL     1      14.647   1.811  25.719  1.00  0.00     0.033 C 
HETATM    5  C8  UNL     1      13.388   1.815  24.863  1.00  0.00     0.188 C 
ENDROOT
BRANCH   5   6
HETATM    6  N1  UNL     1      13.747   1.824  23.489  1.00  0.00    -0.075 N 
ATOM      7  H13 UNL     1      13.068   2.377  22.966  1.00  0.00     0.274 HD
ATOM      8  H12 UNL     1      14.589   2.386  23.365  1.00  0.00     0.274 HD
ATOM      9  H11 UNL     1      13.873   0.923  23.028  1.00  0.00     0.274 HD
ENDBRANCH   5   6
BRANCH   1  10
HETATM   10  C2  UNL     1      12.538   4.183  24.614  1.00  0.00    -0.017 C 
HETATM   11  C1  UNL     1      11.446   4.349  23.597  1.00  0.00     0.010 C 
HETATM   12  C3  UNL     1      12.646   5.380  25.524  1.00  0.00     0.010 C 
ENDBRANCH   1  10
TORSDOF 2
ENDMDL
MODEL 3
REMARK VINA RESULT: -4.480473273      1.107      1.315
REMARK  2 active torsions:
REMARK  status: ('A' for Active; 'I' for Inactive)
REMARK    1  A    between atoms: C2_2  and  C4_4 
REMARK    2  A    between atoms: C8_8  and  N1_9 
ROOT
HETATM    1  C4  UNL     1      13.542   2.719  25.533  1.00  0.00     0.019 C 
HETATM    2  C5  UNL     1      13.546   1.693  24.423  1.00  0.00     0.007 C 
HETATM    3  C6  UNL     1      12.929   0.440  24.962  1.00  0.00     0.002 C 
HETATM    4  C7  UNL     1      12.984   0.543  26.454  1.00  0.00     0.033 C 
HETATM    5  C8  UNL     1      13.549   1.923  26.760  1.00  0.00     0.188 C 
ENDROOT
BRANCH   5   6
HETATM    6  N1  UNL     1      12.892   2.464  27.897  1.00  0.00    -0.075 N 
ATOM      7  H13 UNL     1      13.582   2.895  28.513  1.00  0.00     0.274 HD
ATOM      8  H12 UNL     1      12.350   3.280  27.617  1.00  0.00     0.274 HD
ATOM      9  H11 UNL     1      12.300   1.837  28.443  1.00  0.00     0.274 HD
ENDBRANCH   5   6
BRANCH   1  10
HETATM   10  C2  UNL     1      12.393   3.651  25.321  1.00  0.00    -0.017 C 
HETATM   11  C1  UNL     1      12.654   5.053  25.790  1.00  0.00     0.010 C 
HETATM   12  C3  UNL     1      11.833   3.621  23.922  1.00  0.00     0.010 C 
ENDBRANCH   1  10
TORSDOF 2
ENDMDL
MODEL 4
REMARK VINA RESULT: -4.395253923      1.129      3.156
REMARK  2 active torsions:
REMARK  status: ('A' for Active; 'I' for Inactive)
REMARK    1  A    between atoms: C2_2  and  C4_4 
REMARK    2  A    between atoms: C8_8  and  N1_9 
ROOT
HETATM    1  C4  UNL     1      12.518   3.056  25.452  1.00  0.00     0.019 C 
HETATM    2  C5  UNL     1      11.803   3.636  24.253  1.00  0.00     0.007 C 
HETATM    3  C6  UNL     1      12.252   5.056  24.101  1.00  0.00     0.002 C 
HETATM    4  C7  UNL     1      12.840   5.463  25.416  1.00  0.00     0.033 C 
HETATM    5  C8  UNL     1      12.815   4.217  26.291  1.00  0.00     0.188 C 
ENDROOT
BRANCH   5   6
HETATM    6  N1  UNL     1      13.992   4.170  27.084  1.00  0.00    -0.075 N 
ATOM      7  H13 UNL     1      13.816   3.605  27.916  1.00  0.00     0.274 HD
ATOM      8  H12 UNL     1      14.694   3.601  26.612  1.00  0.00     0.274 HD
ATOM      9  H11 UNL     1      14.410   5.057  27.362  1.00  0.00     0.274 HD
ENDBRANCH   5   6
BRANCH   1  10
HETATM   10  C2  UNL     1      13.672   2.237  24.973  1.00  0.00    -0.017 C 
HETATM   11  C1  UNL     1      14.128   1.197  25.956  1.00  0.00     0.010 C 
HETATM   12  C3  UNL     1      13.481   1.660  23.594  1.00  0.00     0.010 C 
ENDBRANCH   1  10
TORSDOF 2
ENDMDL
MODEL 5
REMARK VINA RESULT: -4.324920043      1.734      3.891
REMARK  2 active torsions:
REMARK  status: ('A' for Active; 'I' for Inactive)
REMARK    1  A    between atoms: C2_2  and  C4_4 
REMARK    2  A    between atoms: C8_8  and  N1_9 
ROOT
HETATM    1  C4  UNL     1      13.814   2.347  25.774  1.00  0.00     0.019 C 
HETATM    2  C5  UNL     1      13.325   3.704  26.224  1.00  0.00     0.007 C 
HETATM    3  C6  UNL     1      12.197   4.099  25.324  1.00  0.00     0.002 C 
HETATM    4  C7  UNL     1      12.307   3.248  24.098  1.00  0.00     0.033 C 
HETATM    5  C8  UNL     1      13.458   2.285  24.357  1.00  0.00     0.188 C 
ENDROOT
BRANCH   5   6
HETATM    6  N1  UNL     1      13.143   1.011  23.814  1.00  0.00    -0.075 N 
ATOM      7  H13 UNL     1      13.980   0.428  23.813  1.00  0.00     0.274 HD
ATOM      8  H12 UNL     1      12.555   0.500  24.472  1.00  0.00     0.274 HD
ATOM      9  H11 UNL     1      12.714   0.985  22.889  1.00  0.00     0.274 HD
ENDBRANCH   5   6
BRANCH   1  10
HETATM   10  C2  UNL     1      13.238   1.306  26.677  1.00  0.00    -0.017 C 
HETATM   11  C1  UNL     1      14.118   0.101  26.856  1.00  0.00     0.010 C 
HETATM   12  C3  UNL     1      12.750   1.845  27.997  1.00  0.00     0.010 C 
ENDBRANCH   1  10
TORSDOF 2
ENDMDL
