MODEL 1
REMARK VINA RESULT: -5.142640958      0.000      0.000
REMARK  2 active torsions:
REMARK  status: ('A' for Active; 'I' for Inactive)
REMARK    1  A    between atoms: N1_1  and  C1_5 
REMARK    2  A    between atoms: C5_9  and  C6_10 
ROOT
HETATM    1  C1  UNL     1      13.053   2.607  25.765  1.00  0.00     0.188 C 
HETATM    2  C2  UNL     1      13.484   1.265  25.236  1.00  0.00     0.033 C 
HETATM    3  C3  UNL     1      13.142   1.209  23.783  1.00  0.00     0.002 C 
HETATM    4  C4  UNL     1      12.121   2.343  23.645  1.00  0.00     0.007 C 
HETATM    5  C5  UNL     1      12.755   3.395  24.514  1.00  0.00     0.020 C 
ENDROOT
BRANCH   1   6
HETATM    6  N1  UNL     1      14.047   3.289  26.515  1.00  0.00    -0.075 N 
ATOM      7  H13 UNL     1      14.928   3.310  26.002  1.00  0.00     0.274 HD
ATOM      8  H12 UNL     1      13.842   4.288  26.551  1.00  0.00     0.274 HD
ATOM      9  H11 UNL     1      14.191   2.922  27.456  1.00  0.00     0.274 HD
ENDBRANCH   1   6
BRANCH   5  10
HETATM   10  C6  UNL     1      11.866   4.582  24.759  1.00  0.00    -0.008 A 
HETATM   11  C7  UNL     1      11.248   5.343  23.676  1.00  0.00     0.005 A 
HETATM   12  C8  UNL     1      12.439   5.942  24.333  1.00  0.00     0.005 A 
ENDBRANCH   5  10
TORSDOF 2
ENDMDL
MODEL 2
REMARK VINA RESULT: -5.041254007      1.579      2.167
REMARK  2 active torsions:
REMARK  status: ('A' for Active; 'I' for Inactive)
REMARK    1  A    between atoms: N1_1  and  C1_5 
REMARK    2  A    between atoms: C5_9  and  C6_10 
ROOT
HETATM    1  C1  UNL     1      13.781   2.034  24.533  1.00  0.00     0.188 C 
HETATM    2  C2  UNL     1      13.961   1.080  25.685  1.00  0.00     0.033 C 
HETATM    3  C3  UNL     1      13.157   1.588  26.836  1.00  0.00     0.002 C 
HETATM    4  C4  UNL     1      12.912   3.050  26.443  1.00  0.00     0.007 C 
HETATM    5  C5  UNL     1      12.626   2.897  24.974  1.00  0.00     0.020 C 
ENDROOT
BRANCH   1   6
HETATM    6  N1  UNL     1      13.449   1.411  23.301  1.00  0.00    -0.075 N 
ATOM      7  H13 UNL     1      14.197   0.782  23.008  1.00  0.00     0.274 HD
ATOM      8  H12 UNL     1      12.696   0.736  23.436  1.00  0.00     0.274 HD
ATOM      9  H11 UNL     1      13.216   2.060  22.550  1.00  0.00     0.274 HD
ENDBRANCH   1   6
BRANCH   5  10
HETATM   10  C6  UNL     1      12.553   4.208  24.242  1.00  0.00    -0.008 A 
HETATM   11  C7  UNL     1      11.619   5.268  24.611  1.00  0.00     0.005 A 
HETATM   12  C8  UNL     1      11.273   4.443  23.425  1.00  0.00     0.005 A 
ENDBRANCH   5  10
TORSDOF 2
ENDMDL
MODEL 3
REMARK VINA RESULT: -4.849019451      1.904      3.851
REMARK  2 active torsions:
REMARK  status: ('A' for Active; 'I' for Inactive)
REMARK    1  A    between atoms: N1_1  and  C1_5 
REMARK    2  A    between atoms: C5_9  and  C6_10 
ROOT
HETATM    1  C1  UNL     1      12.743   1.840  23.977  1.00  0.00     0.188 C 
HETATM    2  C2  UNL     1      11.892   3.003  23.540  1.00  0.00     0.033 C 
HETATM    3  C3  UNL     1      12.057   4.099  24.540  1.00  0.00     0.002 C 
HETATM    4  C4  UNL     1      12.642   3.355  25.746  1.00  0.00     0.007 C 
HETATM    5  C5  UNL     1      13.612   2.432  25.058  1.00  0.00     0.020 C 
ENDROOT
BRANCH   1   6
HETATM    6  N1  UNL     1      13.574   1.306  22.957  1.00  0.00    -0.075 N 
ATOM      7  H13 UNL     1      13.681   1.977  22.197  1.00  0.00     0.274 HD
ATOM      8  H12 UNL     1      14.541   1.251  23.279  1.00  0.00     0.274 HD
ATOM      9  H11 UNL     1      13.268   0.403  22.594  1.00  0.00     0.274 HD
ENDBRANCH   1   6
BRANCH   5  10
HETATM   10  C6  UNL     1      14.203   1.398  25.975  1.00  0.00    -0.008 A 
HETATM   11  C7  UNL     1      14.266   1.571  27.424  1.00  0.00     0.005 A 
HETATM   12  C8  UNL     1      15.521   1.793  26.660  1.00  0.00     0.005 A 
ENDBRANCH   5  10
TORSDOF 2
ENDMDL
MODEL 4
REMARK VINA RESULT: -4.768524856      1.173      3.417
REMARK  2 active torsions:
REMARK  status: ('A' for Active; 'I' for Inactive)
REMARK    1  A    between atoms: N1_1  and  C1_5 
REMARK    2  A    between atoms: C5_9  and  C6_10 
ROOT
HETATM    1  C1  UNL     1      12.987   4.206  26.244  1.00  0.00     0.188 C 
HETATM    2  C2  UNL     1      12.172   5.469  26.160  1.00  0.00     0.033 C 
HETATM    3  C3  UNL     1      11.428   5.455  24.865  1.00  0.00     0.002 C 
HETATM    4  C4  UNL     1      12.196   4.401  24.059  1.00  0.00     0.007 C 
HETATM    5  C5  UNL     1      12.437   3.362  25.121  1.00  0.00     0.020 C 
ENDROOT
BRANCH   1   6
HETATM    6  N1  UNL     1      12.847   3.498  27.466  1.00  0.00    -0.075 N 
ATOM      7  H13 UNL     1      12.140   2.768  27.376  1.00  0.00     0.274 HD
ATOM      8  H12 UNL     1      13.671   2.921  27.639  1.00  0.00     0.274 HD
ATOM      9  H11 UNL     1      12.649   4.087  28.274  1.00  0.00     0.274 HD
ENDBRANCH   1   6
BRANCH   5  10
HETATM   10  C6  UNL     1      13.376   2.272  24.686  1.00  0.00    -0.008 A 
HETATM   11  C7  UNL     1      13.156   1.473  23.483  1.00  0.00     0.005 A 
HETATM   12  C8  UNL     1      12.825   0.841  24.786  1.00  0.00     0.005 A 
ENDBRANCH   5  10
TORSDOF 2
ENDMDL
MODEL 5
REMARK VINA RESULT: -4.540052303      2.446      3.627
REMARK  2 active torsions:
REMARK  status: ('A' for Active; 'I' for Inactive)
REMARK    1  A    between atoms: N1_1  and  C1_5 
REMARK    2  A    between atoms: C5_9  and  C6_10 
ROOT
HETATM    1  C1  UNL     1      13.514  -0.190  26.597  1.00  0.00     0.188 C 
HETATM    2  C2  UNL     1      14.545   0.122  27.649  1.00  0.00     0.033 C 
HETATM    3  C3  UNL     1      15.125   1.464  27.346  1.00  0.00     0.002 C 
HETATM    4  C4  UNL     1      14.727   1.666  25.879  1.00  0.00     0.007 C 
HETATM    5  C5  UNL     1      13.321   1.131  25.897  1.00  0.00     0.020 C 
ENDROOT
BRANCH   1   6
HETATM    6  N1  UNL     1      12.265  -0.628  27.111  1.00  0.00    -0.075 N 
ATOM      7  H13 UNL     1      12.335  -1.589  27.446  1.00  0.00     0.274 HD
ATOM      8  H12 UNL     1      12.055  -0.152  27.988  1.00  0.00     0.274 HD
ATOM      9  H11 UNL     1      11.485  -0.535  26.459  1.00  0.00     0.274 HD
ENDBRANCH   1   6
BRANCH   5  10
HETATM   10  C6  UNL     1      12.719   0.994  24.527  1.00  0.00    -0.008 A 
HETATM   11  C7  UNL     1      13.350   1.539  23.327  1.00  0.00     0.005 A 
HETATM   12  C8  UNL     1      12.202   2.295  23.893  1.00  0.00     0.005 A 
ENDBRANCH   5  10
TORSDOF 2
ENDMDL
