MODEL 1
REMARK VINA RESULT: -5.137367513      0.000      0.000
REMARK  3 active torsions:
REMARK  status: ('A' for Active; 'I' for Inactive)
REMARK    1  A    between atoms: N1_1  and  C1_5 
REMARK    2  A    between atoms: C1_5  and  C2_6 
REMARK    3  A    between atoms: C2_6  and  N2_7 
ROOT
HETATM    1  N2  UNL     1      15.182   3.179  -4.481  1.00  0.00     0.108 N 
HETATM    2  C3  UNL     1      15.606   2.182  -3.521  1.00  0.00     0.274 C 
HETATM    3  C4  UNL     1      14.737   2.104  -2.306  1.00  0.00     0.030 C 
HETATM    4  C5  UNL     1      13.577   1.171  -2.494  1.00  0.00     0.002 C 
HETATM    5  C6  UNL     1      12.436   1.761  -3.272  1.00  0.00     0.003 C 
HETATM    6  C7  UNL     1      12.784   3.094  -3.912  1.00  0.00     0.052 C 
HETATM    7  C8  UNL     1      13.869   2.893  -4.932  1.00  0.00     0.318 C 
HETATM    8 CL1  UNL     1      13.429   3.723  -6.449  1.00  0.00    -0.092 Cl
ENDROOT
BRANCH   1   9
HETATM    9  C2  UNL     1      15.432   4.458  -3.923  1.00  0.00     0.301 C 
BRANCH   9  10
HETATM   10  C1  UNL     1      16.327   5.362  -4.720  1.00  0.00     0.259 C 
BRANCH  10  11
HETATM   11  N1  UNL     1      15.678   6.543  -5.217  1.00  0.00    -0.078 N 
ATOM     12  H13 UNL     1      15.946   6.717  -6.186  1.00  0.00     0.274 HD
ATOM     13  H12 UNL     1      14.679   6.376  -5.341  1.00  0.00     0.274 HD
ATOM     14  H11 UNL     1      15.833   7.375  -4.649  1.00  0.00     0.274 HD
ENDBRANCH  10  11
ENDBRANCH   9  10
ENDBRANCH   1   9
TORSDOF 3
ENDMDL
MODEL 2
REMARK VINA RESULT: -4.683155199      2.970      3.698
REMARK  3 active torsions:
REMARK  status: ('A' for Active; 'I' for Inactive)
REMARK    1  A    between atoms: N1_1  and  C1_5 
REMARK    2  A    between atoms: C1_5  and  C2_6 
REMARK    3  A    between atoms: C2_6  and  N2_7 
ROOT
HETATM    1  N2  UNL     1      11.921   3.041  -5.959  1.00  0.00     0.108 N 
HETATM    2  C3  UNL     1      13.356   3.082  -5.769  1.00  0.00     0.274 C 
HETATM    3  C4  UNL     1      13.773   3.349  -4.358  1.00  0.00     0.030 C 
HETATM    4  C5  UNL     1      13.883   2.089  -3.550  1.00  0.00     0.002 C 
HETATM    5  C6  UNL     1      12.567   1.557  -3.061  1.00  0.00     0.003 C 
HETATM    6  C7  UNL     1      11.376   2.268  -3.681  1.00  0.00     0.052 C 
HETATM    7  C8  UNL     1      11.356   2.013  -5.162  1.00  0.00     0.318 C 
HETATM    8 CL1  UNL     1       9.714   1.528  -5.667  1.00  0.00    -0.092 Cl
ENDROOT
BRANCH   1   9
HETATM    9  C2  UNL     1      11.420   4.358  -5.804  1.00  0.00     0.301 C 
BRANCH   9  10
HETATM   10  C1  UNL     1      10.557   4.870  -6.918  1.00  0.00     0.259 C 
BRANCH  10  11
HETATM   11  N1  UNL     1      10.412   6.300  -6.939  1.00  0.00    -0.078 N 
ATOM     12  H13 UNL     1       9.938   6.623  -6.095  1.00  0.00     0.274 HD
ATOM     13  H12 UNL     1      11.317   6.753  -6.815  1.00  0.00     0.274 HD
ATOM     14  H11 UNL     1       9.944   6.659  -7.771  1.00  0.00     0.274 HD
ENDBRANCH  10  11
ENDBRANCH   9  10
ENDBRANCH   1   9
TORSDOF 3
ENDMDL
MODEL 3
REMARK VINA RESULT: -4.623683347      1.757      2.771
REMARK  3 active torsions:
REMARK  status: ('A' for Active; 'I' for Inactive)
REMARK    1  A    between atoms: N1_1  and  C1_5 
REMARK    2  A    between atoms: C1_5  and  C2_6 
REMARK    3  A    between atoms: C2_6  and  N2_7 
ROOT
HETATM    1  N2  UNL     1      13.469   3.729  -4.638  1.00  0.00     0.108 N 
HETATM    2  C3  UNL     1      12.375   3.047  -3.977  1.00  0.00     0.274 C 
HETATM    3  C4  UNL     1      12.662   1.615  -3.657  1.00  0.00     0.030 C 
HETATM    4  C5  UNL     1      13.331   1.452  -2.324  1.00  0.00     0.002 C 
HETATM    5  C6  UNL     1      14.804   1.742  -2.339  1.00  0.00     0.003 C 
HETATM    6  C7  UNL     1      15.269   2.369  -3.642  1.00  0.00     0.052 C 
HETATM    7  C8  UNL     1      14.621   3.714  -3.811  1.00  0.00     0.318 C 
HETATM    8 CL1  UNL     1      15.852   4.923  -4.266  1.00  0.00    -0.092 Cl
ENDROOT
BRANCH   1   9
HETATM    9  C2  UNL     1      13.583   3.207  -5.950  1.00  0.00     0.301 C 
BRANCH   9  10
HETATM   10  C1  UNL     1      13.089   4.090  -7.057  1.00  0.00     0.259 C 
BRANCH  10  11
HETATM   11  N1  UNL     1      13.609   5.429  -7.018  1.00  0.00    -0.078 N 
ATOM     12  H13 UNL     1      12.926   6.089  -7.390  1.00  0.00     0.274 HD
ATOM     13  H12 UNL     1      13.665   5.762  -6.055  1.00  0.00     0.274 HD
ATOM     14  H11 UNL     1      14.508   5.542  -7.487  1.00  0.00     0.274 HD
ENDBRANCH  10  11
ENDBRANCH   9  10
ENDBRANCH   1   9
TORSDOF 3
ENDMDL
MODEL 4
REMARK VINA RESULT: -4.565271140      1.700      2.433
REMARK  3 active torsions:
REMARK  status: ('A' for Active; 'I' for Inactive)
REMARK    1  A    between atoms: N1_1  and  C1_5 
REMARK    2  A    between atoms: C1_5  and  C2_6 
REMARK    3  A    between atoms: C2_6  and  N2_7 
ROOT
HETATM    1  N2  UNL     1      13.717   2.596  -4.561  1.00  0.00     0.108 N 
HETATM    2  C3  UNL     1      12.817   1.844  -3.712  1.00  0.00     0.274 C 
HETATM    3  C4  UNL     1      11.490   2.502  -3.505  1.00  0.00     0.030 C 
HETATM    4  C5  UNL     1      10.501   2.137  -4.573  1.00  0.00     0.002 C 
HETATM    5  C6  UNL     1      10.676   2.896  -5.857  1.00  0.00     0.003 C 
HETATM    6  C7  UNL     1      11.962   3.704  -5.893  1.00  0.00     0.052 C 
HETATM    7  C8  UNL     1      13.141   2.774  -5.844  1.00  0.00     0.318 C 
HETATM    8 CL1  UNL     1      14.317   3.226  -7.108  1.00  0.00    -0.092 Cl
ENDROOT
BRANCH   1   9
HETATM    9  C2  UNL     1      14.128   3.751  -3.848  1.00  0.00     0.301 C 
BRANCH   9  10
HETATM   10  C1  UNL     1      15.607   4.000  -3.792  1.00  0.00     0.259 C 
BRANCH  10  11
HETATM   11  N1  UNL     1      15.968   5.390  -3.758  1.00  0.00    -0.078 N 
ATOM     12  H13 UNL     1      15.139   5.977  -3.852  1.00  0.00     0.274 HD
ATOM     13  H12 UNL     1      16.266   5.659  -2.820  1.00  0.00     0.274 HD
ATOM     14  H11 UNL     1      16.672   5.655  -4.446  1.00  0.00     0.274 HD
ENDBRANCH  10  11
ENDBRANCH   9  10
ENDBRANCH   1   9
TORSDOF 3
ENDMDL
MODEL 5
REMARK VINA RESULT: -4.556985686      2.027      3.260
REMARK  3 active torsions:
REMARK  status: ('A' for Active; 'I' for Inactive)
REMARK    1  A    between atoms: N1_1  and  C1_5 
REMARK    2  A    between atoms: C1_5  and  C2_6 
REMARK    3  A    between atoms: C2_6  and  N2_7 
ROOT
HETATM    1  N2  UNL     1      13.492   3.706  -4.614  1.00  0.00     0.108 N 
HETATM    2  C3  UNL     1      12.416   3.014  -3.936  1.00  0.00     0.274 C 
HETATM    3  C4  UNL     1      12.729   1.590  -3.602  1.00  0.00     0.030 C 
HETATM    4  C5  UNL     1      13.413   1.454  -2.273  1.00  0.00     0.002 C 
HETATM    5  C6  UNL     1      14.881   1.768  -2.305  1.00  0.00     0.003 C 
HETATM    6  C7  UNL     1      15.323   2.388  -3.619  1.00  0.00     0.052 C 
HETATM    7  C8  UNL     1      14.651   3.720  -3.797  1.00  0.00     0.318 C 
HETATM    8 CL1  UNL     1      15.858   4.943  -4.278  1.00  0.00    -0.092 Cl
ENDROOT
BRANCH   1   9
HETATM    9  C2  UNL     1      13.602   3.170  -5.922  1.00  0.00     0.301 C 
BRANCH   9  10
HETATM   10  C1  UNL     1      12.529   3.569  -6.891  1.00  0.00     0.259 C 
BRANCH  10  11
HETATM   11  N1  UNL     1      11.818   2.462  -7.469  1.00  0.00    -0.078 N 
ATOM     12  H13 UNL     1      11.016   2.212  -6.890  1.00  0.00     0.274 HD
ATOM     13  H12 UNL     1      11.334   2.753  -8.319  1.00  0.00     0.274 HD
ATOM     14  H11 UNL     1      12.397   1.643  -7.650  1.00  0.00     0.274 HD
ENDBRANCH  10  11
ENDBRANCH   9  10
ENDBRANCH   1   9
TORSDOF 3
ENDMDL
