MODEL 1
REMARK VINA RESULT: -5.779076146      0.000      0.000
REMARK  2 active torsions:
REMARK  status: ('A' for Active; 'I' for Inactive)
REMARK    1  A    between atoms: C4_4  and  N1_5 
REMARK    2  A    between atoms: N1_5  and  C5_7 
ROOT
HETATM    1  C5  UNL     1      10.616   3.164  -5.005  1.00  0.00     0.083 C 
HETATM    2  C6  UNL     1      10.274   1.746  -5.343  1.00  0.00     0.069 C 
HETATM    3  C7  UNL     1       9.603   1.550  -6.649  1.00  0.00     0.057 C 
HETATM    4  N2  UNL     1       9.833   2.511  -7.650  1.00  0.00    -0.402 N 
ATOM      5  H2  UNL     1       9.808   2.252  -8.637  1.00  0.00     0.158 HD
HETATM    6  C8  UNL     1      10.100   3.844  -7.259  1.00  0.00     0.120 C 
HETATM    7  C9  UNL     1      11.222   3.819  -6.227  1.00  0.00     0.044 C 
ENDROOT
BRANCH   1   8
HETATM    8  N1  UNL     1      11.475   3.169  -3.864  1.00  0.00    -0.413 N 
ATOM      9  H1  UNL     1      11.229   3.653  -3.001  1.00  0.00     0.154 HD
BRANCH   8  10
HETATM   10  C4  UNL     1      12.701   2.453  -4.010  1.00  0.00     0.077 C 
HETATM   11  C3  UNL     1      13.925   3.308  -3.914  1.00  0.00     0.024 C 
HETATM   12  C2  UNL     1      14.984   2.256  -3.548  1.00  0.00     0.002 C 
HETATM   13  C1  UNL     1      14.268   1.607  -2.356  1.00  0.00     0.002 C 
HETATM   14  C10 UNL     1      12.860   1.490  -2.867  1.00  0.00     0.024 C 
ENDBRANCH   8  10
ENDBRANCH   1   8
TORSDOF 2
ENDMDL
MODEL 2
REMARK VINA RESULT: -5.653445658      0.592      1.518
REMARK  2 active torsions:
REMARK  status: ('A' for Active; 'I' for Inactive)
REMARK    1  A    between atoms: C4_4  and  N1_5 
REMARK    2  A    between atoms: N1_5  and  C5_7 
ROOT
HETATM    1  C5  UNL     1      11.194   2.829  -5.802  1.00  0.00     0.083 C 
HETATM    2  C6  UNL     1      10.698   4.110  -6.396  1.00  0.00     0.069 C 
HETATM    3  C7  UNL     1       9.798   3.961  -7.563  1.00  0.00     0.057 C 
HETATM    4  N2  UNL     1       9.063   2.766  -7.671  1.00  0.00    -0.402 N 
ATOM      5  H2  UNL     1       8.151   2.754  -8.128  1.00  0.00     0.158 HD
HETATM    6  C8  UNL     1       9.617   1.581  -7.131  1.00  0.00     0.120 C 
HETATM    7  C9  UNL     1      10.032   1.866  -5.692  1.00  0.00     0.044 C 
ENDROOT
BRANCH   1   8
HETATM    8  N1  UNL     1      11.822   3.116  -4.552  1.00  0.00    -0.413 N 
ATOM      9  H1  UNL     1      11.459   3.822  -3.911  1.00  0.00     0.154 HD
BRANCH   8  10
HETATM   10  C4  UNL     1      12.991   2.352  -4.257  1.00  0.00     0.077 C 
HETATM   11  C3  UNL     1      14.143   3.163  -3.756  1.00  0.00     0.024 C 
HETATM   12  C2  UNL     1      14.965   2.084  -3.034  1.00  0.00     0.002 C 
HETATM   13  C1  UNL     1      13.855   1.494  -2.153  1.00  0.00     0.002 C 
HETATM   14  C10 UNL     1      12.705   1.415  -3.116  1.00  0.00     0.024 C 
ENDBRANCH   8  10
ENDBRANCH   1   8
TORSDOF 2
ENDMDL
MODEL 3
REMARK VINA RESULT: -5.625660802      3.414      5.452
REMARK  2 active torsions:
REMARK  status: ('A' for Active; 'I' for Inactive)
REMARK    1  A    between atoms: C4_4  and  N1_5 
REMARK    2  A    between atoms: N1_5  and  C5_7 
ROOT
HETATM    1  C5  UNL     1      16.008   3.970  -5.283  1.00  0.00     0.083 C 
HETATM    2  C6  UNL     1      17.418   3.837  -5.769  1.00  0.00     0.069 C 
HETATM    3  C7  UNL     1      18.048   5.094  -6.236  1.00  0.00     0.057 C 
HETATM    4  N2  UNL     1      17.563   6.303  -5.704  1.00  0.00    -0.402 N 
ATOM      5  H2  UNL     1      18.177   7.112  -5.603  1.00  0.00     0.158 HD
HETATM    6  C8  UNL     1      16.205   6.372  -5.312  1.00  0.00     0.120 C 
HETATM    7  C9  UNL     1      15.918   5.190  -4.393  1.00  0.00     0.044 C 
ENDROOT
BRANCH   1   8
HETATM    8  N1  UNL     1      15.631   2.755  -4.633  1.00  0.00    -0.413 N 
ATOM      9  H1  UNL     1      16.138   1.883  -4.778  1.00  0.00     0.154 HD
BRANCH   8  10
HETATM   10  C4  UNL     1      14.500   2.842  -3.767  1.00  0.00     0.077 C 
HETATM   11  C3  UNL     1      13.227   2.338  -4.370  1.00  0.00     0.024 C 
HETATM   12  C2  UNL     1      12.406   2.042  -3.105  1.00  0.00     0.002 C 
HETATM   13  C1  UNL     1      13.429   1.175  -2.359  1.00  0.00     0.002 C 
HETATM   14  C10 UNL     1      14.703   1.939  -2.582  1.00  0.00     0.024 C 
ENDBRANCH   8  10
ENDBRANCH   1   8
TORSDOF 2
ENDMDL
MODEL 4
REMARK VINA RESULT: -5.456320302      1.364      5.120
REMARK  2 active torsions:
REMARK  status: ('A' for Active; 'I' for Inactive)
REMARK    1  A    between atoms: C4_4  and  N1_5 
REMARK    2  A    between atoms: N1_5  and  C5_7 
ROOT
HETATM    1  C5  UNL     1      12.987   2.428  -4.317  1.00  0.00     0.083 C 
HETATM    2  C6  UNL     1      12.559   1.729  -3.065  1.00  0.00     0.069 C 
HETATM    3  C7  UNL     1      13.661   1.219  -2.216  1.00  0.00     0.057 C 
HETATM    4  N2  UNL     1      14.908   1.863  -2.311  1.00  0.00    -0.402 N 
ATOM      5  H2  UNL     1      15.539   1.899  -1.510  1.00  0.00     0.158 HD
HETATM    6  C8  UNL     1      15.269   2.458  -3.543  1.00  0.00     0.120 C 
HETATM    7  C9  UNL     1      14.126   3.366  -3.982  1.00  0.00     0.044 C 
ENDROOT
BRANCH   1   8
HETATM    8  N1  UNL     1      11.853   3.082  -4.888  1.00  0.00    -0.413 N 
ATOM      9  H1  UNL     1      11.492   3.962  -4.519  1.00  0.00     0.154 HD
BRANCH   8  10
HETATM   10  C4  UNL     1      11.257   2.426  -6.006  1.00  0.00     0.077 C 
HETATM   11  C3  UNL     1       9.957   1.752  -5.700  1.00  0.00     0.024 C 
HETATM   12  C2  UNL     1       9.341   1.661  -7.105  1.00  0.00     0.002 C 
HETATM   13  C1  UNL     1       9.494   3.130  -7.524  1.00  0.00     0.002 C 
HETATM   14  C10 UNL     1      10.883   3.445  -7.047  1.00  0.00     0.024 C 
ENDBRANCH   8  10
ENDBRANCH   1   8
TORSDOF 2
ENDMDL
MODEL 5
REMARK VINA RESULT: -5.352502283      3.412      5.470
REMARK  2 active torsions:
REMARK  status: ('A' for Active; 'I' for Inactive)
REMARK    1  A    between atoms: C4_4  and  N1_5 
REMARK    2  A    between atoms: N1_5  and  C5_7 
ROOT
HETATM    1  C5  UNL     1      16.326   3.898  -4.960  1.00  0.00     0.083 C 
HETATM    2  C6  UNL     1      15.533   5.162  -5.083  1.00  0.00     0.069 C 
HETATM    3  C7  UNL     1      16.323   6.378  -5.386  1.00  0.00     0.057 C 
HETATM    4  N2  UNL     1      17.548   6.209  -6.057  1.00  0.00    -0.402 N 
ATOM      5  H2  UNL     1      17.909   6.936  -6.675  1.00  0.00     0.158 HD
HETATM    6  C8  UNL     1      18.270   5.009  -5.853  1.00  0.00     0.120 C 
HETATM    7  C9  UNL     1      17.322   3.840  -6.097  1.00  0.00     0.044 C 
ENDROOT
BRANCH   1   8
HETATM    8  N1  UNL     1      15.423   2.792  -4.929  1.00  0.00    -0.413 N 
ATOM      9  H1  UNL     1      15.531   1.986  -5.545  1.00  0.00     0.154 HD
BRANCH   8  10
HETATM   10  C4  UNL     1      14.361   2.886  -3.981  1.00  0.00     0.077 C 
HETATM   11  C3  UNL     1      13.059   2.329  -4.461  1.00  0.00     0.024 C 
HETATM   12  C2  UNL     1      12.347   2.064  -3.125  1.00  0.00     0.002 C 
HETATM   13  C1  UNL     1      13.448   1.252  -2.430  1.00  0.00     0.002 C 
HETATM   14  C10 UNL     1      14.680   2.037  -2.781  1.00  0.00     0.024 C 
ENDBRANCH   8  10
ENDBRANCH   1   8
TORSDOF 2
ENDMDL
