MODEL 1
REMARK VINA RESULT: -4.627639312      0.000      0.000
REMARK  4 active torsions:
REMARK  status: ('A' for Active; 'I' for Inactive)
REMARK    1  A    between atoms: C2_2  and  N1_3 
REMARK    2  A    between atoms: C4_8  and  N2_9 
REMARK    3  A    between atoms: C5_13  and  C6_14 
REMARK    4  A    between atoms: C6_14  and  C7_15 
ROOT
HETATM    1  C1  UNL     1      10.339   1.639  -5.551  1.00  0.00     0.046 C 
HETATM    2  C2  UNL     1      11.105   2.885  -5.185  1.00  0.00     0.122 C 
HETATM    3  C3  UNL     1      11.137   3.111  -3.691  1.00  0.00     0.071 C 
HETATM    4  C4  UNL     1      12.529   2.694  -3.268  1.00  0.00     0.190 C 
HETATM    5  C5  UNL     1      13.348   3.134  -4.458  1.00  0.00     0.019 C 
HETATM    6  C8  UNL     1      12.546   2.743  -5.634  1.00  0.00     0.045 C 
ENDROOT
BRANCH   2   7
HETATM    7  N1  UNL     1      10.545   4.040  -5.855  1.00  0.00    -0.071 N 
ATOM      8  H13 UNL     1      10.010   3.776  -6.683  1.00  0.00     0.275 HD
ATOM      9  H12 UNL     1       9.790   4.463  -5.315  1.00  0.00     0.275 HD
ATOM     10  H11 UNL     1      11.277   4.715  -6.077  1.00  0.00     0.275 HD
ENDBRANCH   2   7
BRANCH   4  11
HETATM   11  N2  UNL     1      12.632   1.295  -2.994  1.00  0.00    -0.075 N 
ATOM     12  H23 UNL     1      12.511   1.108  -1.999  1.00  0.00     0.274 HD
ATOM     13  H22 UNL     1      11.822   0.791  -3.358  1.00  0.00     0.274 HD
ATOM     14  H21 UNL     1      13.500   0.885  -3.339  1.00  0.00     0.274 HD
ENDBRANCH   4  11
BRANCH   5  15
HETATM   15  C6  UNL     1      14.730   2.620  -4.428  1.00  0.00     0.022 C 
BRANCH  15  16
HETATM   16  C7  UNL     1      15.594   3.360  -3.460  1.00  0.00     0.115 C 
HETATM   17 CL1  UNL     1      15.938   5.035  -3.855  1.00  0.00    -0.130 Cl
ENDBRANCH  15  16
ENDBRANCH   5  15
TORSDOF 4
ENDMDL
MODEL 2
REMARK VINA RESULT: -4.590469353      3.334      5.060
REMARK  4 active torsions:
REMARK  status: ('A' for Active; 'I' for Inactive)
REMARK    1  A    between atoms: C2_2  and  N1_3 
REMARK    2  A    between atoms: C4_8  and  N2_9 
REMARK    3  A    between atoms: C5_13  and  C6_14 
REMARK    4  A    between atoms: C6_14  and  C7_15 
ROOT
HETATM    1  C1  UNL     1      12.986   2.850  -4.099  1.00  0.00     0.046 C 
HETATM    2  C2  UNL     1      11.480   2.898  -4.151  1.00  0.00     0.122 C 
HETATM    3  C3  UNL     1      10.981   3.932  -5.134  1.00  0.00     0.071 C 
HETATM    4  C4  UNL     1      10.530   3.133  -6.338  1.00  0.00     0.190 C 
HETATM    5  C5  UNL     1       9.977   1.890  -5.682  1.00  0.00     0.019 C 
HETATM    6  C8  UNL     1      10.947   1.560  -4.619  1.00  0.00     0.045 C 
ENDROOT
BRANCH   2   7
HETATM    7  N1  UNL     1      10.935   3.155  -2.834  1.00  0.00    -0.071 N 
ATOM      8  H13 UNL     1      10.353   2.384  -2.508  1.00  0.00     0.275 HD
ATOM      9  H12 UNL     1      11.655   3.118  -2.112  1.00  0.00     0.275 HD
ATOM     10  H11 UNL     1      10.432   4.042  -2.822  1.00  0.00     0.275 HD
ENDBRANCH   2   7
BRANCH   4  11
HETATM   11  N2  UNL     1      11.592   2.865  -7.257  1.00  0.00    -0.075 N 
ATOM     12  H23 UNL     1      12.493   3.137  -6.863  1.00  0.00     0.274 HD
ATOM     13  H22 UNL     1      11.749   1.861  -7.351  1.00  0.00     0.274 HD
ATOM     14  H21 UNL     1      11.447   3.298  -8.168  1.00  0.00     0.274 HD
ENDBRANCH   4  11
BRANCH   5  15
HETATM   15  C6  UNL     1       9.690   0.810  -6.644  1.00  0.00     0.022 C 
BRANCH  15  16
HETATM   16  C7  UNL     1       8.266   0.811  -7.097  1.00  0.00     0.115 C 
HETATM   17 CL1  UNL     1       7.865   1.939  -8.381  1.00  0.00    -0.130 Cl
ENDBRANCH  15  16
ENDBRANCH   5  15
TORSDOF 4
ENDMDL
MODEL 3
REMARK VINA RESULT: -4.582897720      3.375      4.806
REMARK  4 active torsions:
REMARK  status: ('A' for Active; 'I' for Inactive)
REMARK    1  A    between atoms: C2_2  and  N1_3 
REMARK    2  A    between atoms: C4_8  and  N2_9 
REMARK    3  A    between atoms: C5_13  and  C6_14 
REMARK    4  A    between atoms: C6_14  and  C7_15 
ROOT
HETATM    1  C1  UNL     1      12.712   1.747  -3.558  1.00  0.00     0.046 C 
HETATM    2  C2  UNL     1      11.521   2.602  -3.909  1.00  0.00     0.122 C 
HETATM    3  C3  UNL     1      11.908   3.789  -4.759  1.00  0.00     0.071 C 
HETATM    4  C4  UNL     1      11.466   3.421  -6.159  1.00  0.00     0.190 C 
HETATM    5  C5  UNL     1      10.203   2.641  -5.879  1.00  0.00     0.019 C 
HETATM    6  C8  UNL     1      10.535   1.787  -4.722  1.00  0.00     0.045 C 
ENDROOT
BRANCH   2   7
HETATM    7  N1  UNL     1      10.843   3.044  -2.708  1.00  0.00    -0.071 N 
ATOM      8  H13 UNL     1      11.018   4.030  -2.515  1.00  0.00     0.275 HD
ATOM      9  H12 UNL     1       9.832   3.092  -2.838  1.00  0.00     0.275 HD
ATOM     10  H11 UNL     1      11.096   2.453  -1.916  1.00  0.00     0.275 HD
ENDBRANCH   2   7
BRANCH   4  11
HETATM   11  N2  UNL     1      12.450   2.669  -6.873  1.00  0.00    -0.075 N 
ATOM     12  H23 UNL     1      13.371   3.101  -6.789  1.00  0.00     0.274 HD
ATOM     13  H22 UNL     1      12.640   1.781  -6.408  1.00  0.00     0.274 HD
ATOM     14  H21 UNL     1      12.205   2.523  -7.852  1.00  0.00     0.274 HD
ENDBRANCH   4  11
BRANCH   5  15
HETATM   15  C6  UNL     1       9.686   1.936  -7.067  1.00  0.00     0.022 C 
BRANCH  15  16
HETATM   16  C7  UNL     1       8.763   0.816  -6.710  1.00  0.00     0.115 C 
HETATM   17 CL1  UNL     1       9.342  -0.803  -7.061  1.00  0.00    -0.130 Cl
ENDBRANCH  15  16
ENDBRANCH   5  15
TORSDOF 4
ENDMDL
MODEL 4
REMARK VINA RESULT: -4.576116778      2.198      2.806
REMARK  4 active torsions:
REMARK  status: ('A' for Active; 'I' for Inactive)
REMARK    1  A    between atoms: C2_2  and  N1_3 
REMARK    2  A    between atoms: C4_8  and  N2_9 
REMARK    3  A    between atoms: C5_13  and  C6_14 
REMARK    4  A    between atoms: C6_14  and  C7_15 
ROOT
HETATM    1  C1  UNL     1      10.586   4.331  -6.134  1.00  0.00     0.046 C 
HETATM    2  C2  UNL     1      11.322   3.049  -5.836  1.00  0.00     0.122 C 
HETATM    3  C3  UNL     1      12.412   2.775  -6.847  1.00  0.00     0.071 C 
HETATM    4  C4  UNL     1      13.698   3.132  -6.134  1.00  0.00     0.190 C 
HETATM    5  C5  UNL     1      13.385   2.703  -4.720  1.00  0.00     0.019 C 
HETATM    6  C8  UNL     1      12.000   3.157  -4.486  1.00  0.00     0.045 C 
ENDROOT
BRANCH   2   7
HETATM    7  N1  UNL     1      10.399   1.936  -5.779  1.00  0.00    -0.071 N 
ATOM      8  H13 UNL     1       9.900   1.811  -6.660  1.00  0.00     0.275 HD
ATOM      9  H12 UNL     1      10.886   1.040  -5.753  1.00  0.00     0.275 HD
ATOM     10  H11 UNL     1       9.758   2.042  -4.993  1.00  0.00     0.275 HD
ENDBRANCH   2   7
BRANCH   4  11
HETATM   11  N2  UNL     1      14.031   4.517  -6.247  1.00  0.00    -0.075 N 
ATOM     12  H23 UNL     1      15.027   4.667  -6.086  1.00  0.00     0.274 HD
ATOM     13  H22 UNL     1      13.969   4.830  -7.216  1.00  0.00     0.274 HD
ATOM     14  H21 UNL     1      13.470   5.111  -5.636  1.00  0.00     0.274 HD
ENDBRANCH   4  11
BRANCH   5  15
HETATM   15  C6  UNL     1      14.385   3.170  -3.742  1.00  0.00     0.022 C 
BRANCH  15  16
HETATM   16  C7  UNL     1      14.849   2.078  -2.833  1.00  0.00     0.115 C 
HETATM   17 CL1  UNL     1      13.592   1.108  -2.086  1.00  0.00    -0.130 Cl
ENDBRANCH  15  16
ENDBRANCH   5  15
TORSDOF 4
ENDMDL
MODEL 5
REMARK VINA RESULT: -4.458072952      2.882      4.256
REMARK  4 active torsions:
REMARK  status: ('A' for Active; 'I' for Inactive)
REMARK    1  A    between atoms: C2_2  and  N1_3 
REMARK    2  A    between atoms: C4_8  and  N2_9 
REMARK    3  A    between atoms: C5_13  and  C6_14 
REMARK    4  A    between atoms: C6_14  and  C7_15 
ROOT
HETATM    1  C1  UNL     1      15.895   5.197  -4.101  1.00  0.00     0.046 C 
HETATM    2  C2  UNL     1      15.343   3.981  -4.801  1.00  0.00     0.122 C 
HETATM    3  C3  UNL     1      16.133   2.734  -4.475  1.00  0.00     0.071 C 
HETATM    4  C4  UNL     1      15.271   1.978  -3.487  1.00  0.00     0.190 C 
HETATM    5  C5  UNL     1      13.884   2.293  -3.998  1.00  0.00     0.019 C 
HETATM    6  C8  UNL     1      13.923   3.729  -4.336  1.00  0.00     0.045 C 
ENDROOT
BRANCH   2   7
HETATM    7  N1  UNL     1      15.308   4.192  -6.233  1.00  0.00    -0.071 N 
ATOM      8  H13 UNL     1      16.032   4.842  -6.538  1.00  0.00     0.275 HD
ATOM      9  H12 UNL     1      15.619   3.367  -6.746  1.00  0.00     0.275 HD
ATOM     10  H11 UNL     1      14.379   4.494  -6.528  1.00  0.00     0.275 HD
ENDBRANCH   2   7
BRANCH   4  11
HETATM   11  N2  UNL     1      15.484   2.390  -2.135  1.00  0.00    -0.075 N 
ATOM     12  H23 UNL     1      16.119   3.187  -2.092  1.00  0.00     0.274 HD
ATOM     13  H22 UNL     1      14.645   2.824  -1.749  1.00  0.00     0.274 HD
ATOM     14  H21 UNL     1      15.810   1.632  -1.536  1.00  0.00     0.274 HD
ENDBRANCH   4  11
BRANCH   5  15
HETATM   15  C6  UNL     1      12.820   1.885  -3.064  1.00  0.00     0.022 C 
BRANCH  15  16
HETATM   16  C7  UNL     1      11.514   2.548  -3.359  1.00  0.00     0.115 C 
HETATM   17 CL1  UNL     1      10.637   1.943  -4.754  1.00  0.00    -0.130 Cl
ENDBRANCH  15  16
ENDBRANCH   5  15
TORSDOF 4
ENDMDL
