MODEL 1
REMARK VINA RESULT: -4.157328559      0.000      0.000
REMARK  3 active torsions:
REMARK  status: ('A' for Active; 'I' for Inactive)
REMARK    1  A    between atoms: C2_2  and  C4_4 
REMARK    2  A    between atoms: C4_4  and  N1_5 
REMARK    3  A    between atoms: C7_14  and  C8_15 
ROOT
HETATM    1  C4  UNL     1      14.896   3.231  -4.513  1.00  0.00     0.157 C 
HETATM    2  C5  UNL     1      16.277   2.690  -4.712  1.00  0.00     0.068 C 
HETATM    3  C6  UNL     1      16.886   3.760  -5.626  1.00  0.00     0.235 C 
HETATM    4  N2  UNL     1      15.832   4.692  -5.938  1.00  0.00    -0.067 N 
ATOM      5  H21 UNL     1      15.931   5.154  -6.842  1.00  0.00     0.277 HD
ATOM      6  H22 UNL     1      15.843   5.546  -5.380  1.00  0.00     0.277 HD
HETATM    7  C7  UNL     1      14.599   3.880  -5.795  1.00  0.00     0.235 C 
ENDROOT
BRANCH   1   8
HETATM    8  C2  UNL     1      13.908   2.304  -3.935  1.00  0.00     0.015 C 
HETATM    9  C1  UNL     1      14.225   1.699  -2.619  1.00  0.00     0.012 C 
HETATM   10  C3  UNL     1      12.544   2.924  -3.867  1.00  0.00     0.012 C 
ENDBRANCH   1   8
BRANCH   1  11
HETATM   11  N1  UNL     1      15.054   4.329  -3.529  1.00  0.00    -0.068 N 
ATOM     12  H13 UNL     1      14.176   4.788  -3.288  1.00  0.00     0.275 HD
ATOM     13  H12 UNL     1      15.285   4.003  -2.591  1.00  0.00     0.275 HD
ATOM     14  H11 UNL     1      15.750   4.963  -3.923  1.00  0.00     0.275 HD
ENDBRANCH   1  11
BRANCH   7  15
HETATM   15  C8  UNL     1      14.579   3.065  -7.024  1.00  0.00     0.150 C 
HETATM   16 CL1  UNL     1      12.836   2.838  -7.449  1.00  0.00    -0.128 Cl
ENDBRANCH   7  15
TORSDOF 3
ENDMDL
MODEL 2
REMARK VINA RESULT: -4.114910843      2.518      3.864
REMARK  3 active torsions:
REMARK  status: ('A' for Active; 'I' for Inactive)
REMARK    1  A    between atoms: C2_2  and  C4_4 
REMARK    2  A    between atoms: C4_4  and  N1_5 
REMARK    3  A    between atoms: C7_14  and  C8_15 
ROOT
HETATM    1  C4  UNL     1      11.479   2.760  -4.336  1.00  0.00     0.157 C 
HETATM    2  C5  UNL     1      11.928   1.414  -3.859  1.00  0.00     0.068 C 
HETATM    3  C6  UNL     1      13.280   1.762  -3.224  1.00  0.00     0.235 C 
HETATM    4  N2  UNL     1      13.516   3.160  -3.481  1.00  0.00    -0.067 N 
ATOM      5  H21 UNL     1      14.501   3.417  -3.544  1.00  0.00     0.277 HD
ATOM      6  H22 UNL     1      13.295   3.777  -2.700  1.00  0.00     0.277 HD
HETATM    7  C7  UNL     1      12.732   3.422  -4.713  1.00  0.00     0.235 C 
ENDROOT
BRANCH   1   8
HETATM    8  C2  UNL     1      10.350   2.774  -5.282  1.00  0.00     0.015 C 
HETATM    9  C1  UNL     1      10.378   3.787  -6.365  1.00  0.00     0.012 C 
HETATM   10  C3  UNL     1      10.123   1.422  -5.890  1.00  0.00     0.012 C 
ENDBRANCH   1   8
BRANCH   1  11
HETATM   11  N1  UNL     1      11.003   3.457  -3.118  1.00  0.00    -0.068 N 
ATOM     12  H13 UNL     1      11.465   3.144  -2.264  1.00  0.00     0.275 HD
ATOM     13  H12 UNL     1      11.295   4.433  -3.067  1.00  0.00     0.275 HD
ATOM     14  H11 UNL     1       9.990   3.334  -3.100  1.00  0.00     0.275 HD
ENDBRANCH   1  11
BRANCH   7  15
HETATM   15  C8  UNL     1      13.563   2.832  -5.781  1.00  0.00     0.150 C 
HETATM   16 CL1  UNL     1      15.208   3.559  -5.598  1.00  0.00    -0.128 Cl
ENDBRANCH   7  15
TORSDOF 3
ENDMDL
MODEL 3
REMARK VINA RESULT: -4.078096190      1.966      2.216
REMARK  3 active torsions:
REMARK  status: ('A' for Active; 'I' for Inactive)
REMARK    1  A    between atoms: C2_2  and  C4_4 
REMARK    2  A    between atoms: C4_4  and  N1_5 
REMARK    3  A    between atoms: C7_14  and  C8_15 
ROOT
HETATM    1  C4  UNL     1      14.899   3.246  -4.595  1.00  0.00     0.157 C 
HETATM    2  C5  UNL     1      15.493   4.443  -3.920  1.00  0.00     0.068 C 
HETATM    3  C6  UNL     1      16.089   5.192  -5.117  1.00  0.00     0.235 C 
HETATM    4  N2  UNL     1      15.895   4.355  -6.273  1.00  0.00    -0.067 N 
ATOM      5  H21 UNL     1      16.598   4.473  -7.003  1.00  0.00     0.277 HD
ATOM      6  H22 UNL     1      15.096   4.613  -6.853  1.00  0.00     0.277 HD
HETATM    7  C7  UNL     1      15.824   2.988  -5.703  1.00  0.00     0.235 C 
ENDROOT
BRANCH   1   8
HETATM    8  C2  UNL     1      14.504   2.130  -3.719  1.00  0.00     0.015 C 
HETATM    9  C1  UNL     1      15.114   2.071  -2.369  1.00  0.00     0.012 C 
HETATM   10  C3  UNL     1      13.013   2.039  -3.581  1.00  0.00     0.012 C 
ENDBRANCH   1   8
BRANCH   1  11
HETATM   11  N1  UNL     1      13.648   3.742  -5.218  1.00  0.00    -0.068 N 
ATOM     12  H13 UNL     1      13.804   4.273  -6.075  1.00  0.00     0.275 HD
ATOM     13  H12 UNL     1      13.080   3.003  -5.632  1.00  0.00     0.275 HD
ATOM     14  H11 UNL     1      13.163   4.272  -4.494  1.00  0.00     0.275 HD
ENDBRANCH   1  11
BRANCH   7  15
HETATM   15  C8  UNL     1      17.233   2.668  -5.402  1.00  0.00     0.150 C 
HETATM   16 CL1  UNL     1      17.819   1.644  -6.771  1.00  0.00    -0.128 Cl
ENDBRANCH   7  15
TORSDOF 3
ENDMDL
MODEL 4
REMARK VINA RESULT: -4.012626399      1.754      2.423
REMARK  3 active torsions:
REMARK  status: ('A' for Active; 'I' for Inactive)
REMARK    1  A    between atoms: C2_2  and  C4_4 
REMARK    2  A    between atoms: C4_4  and  N1_5 
REMARK    3  A    between atoms: C7_14  and  C8_15 
ROOT
HETATM    1  C4  UNL     1      15.996   4.615  -4.980  1.00  0.00     0.157 C 
HETATM    2  C5  UNL     1      17.276   5.201  -5.491  1.00  0.00     0.068 C 
HETATM    3  C6  UNL     1      16.825   6.620  -5.856  1.00  0.00     0.235 C 
HETATM    4  N2  UNL     1      15.402   6.676  -5.643  1.00  0.00    -0.067 N 
ATOM      5  H21 UNL     1      14.910   7.338  -6.243  1.00  0.00     0.277 HD
ATOM      6  H22 UNL     1      15.123   7.104  -4.761  1.00  0.00     0.277 HD
HETATM    7  C7  UNL     1      14.973   5.265  -5.805  1.00  0.00     0.235 C 
ENDROOT
BRANCH   1   8
HETATM    8  C2  UNL     1      15.965   3.151  -4.823  1.00  0.00     0.015 C 
HETATM    9  C1  UNL     1      17.163   2.391  -5.254  1.00  0.00     0.012 C 
HETATM   10  C3  UNL     1      15.618   2.753  -3.419  1.00  0.00     0.012 C 
ENDBRANCH   1   8
BRANCH   1  11
HETATM   11  N1  UNL     1      15.837   5.177  -3.617  1.00  0.00    -0.068 N 
ATOM     12  H13 UNL     1      15.150   4.680  -3.050  1.00  0.00     0.275 HD
ATOM     13  H12 UNL     1      16.641   5.010  -3.013  1.00  0.00     0.275 HD
ATOM     14  H11 UNL     1      15.621   6.166  -3.744  1.00  0.00     0.275 HD
ENDBRANCH   1  11
BRANCH   7  15
HETATM   15  C8  UNL     1      14.994   5.064  -7.266  1.00  0.00     0.150 C 
HETATM   16 CL1  UNL     1      13.866   3.693  -7.602  1.00  0.00    -0.128 Cl
ENDBRANCH   7  15
TORSDOF 3
ENDMDL
MODEL 5
REMARK VINA RESULT: -4.003531483      1.533      1.708
REMARK  3 active torsions:
REMARK  status: ('A' for Active; 'I' for Inactive)
REMARK    1  A    between atoms: C2_2  and  C4_4 
REMARK    2  A    between atoms: C4_4  and  N1_5 
REMARK    3  A    between atoms: C7_14  and  C8_15 
ROOT
HETATM    1  C4  UNL     1      14.071   3.124  -4.714  1.00  0.00     0.157 C 
HETATM    2  C5  UNL     1      15.095   2.877  -5.778  1.00  0.00     0.068 C 
HETATM    3  C6  UNL     1      14.764   3.996  -6.772  1.00  0.00     0.235 C 
HETATM    4  N2  UNL     1      13.588   4.664  -6.275  1.00  0.00    -0.067 N 
ATOM      5  H21 UNL     1      13.003   5.083  -6.998  1.00  0.00     0.277 HD
ATOM      6  H22 UNL     1      13.775   5.532  -5.773  1.00  0.00     0.277 HD
HETATM    7  C7  UNL     1      12.913   3.619  -5.466  1.00  0.00     0.235 C 
ENDROOT
BRANCH   1   8
HETATM    8  C2  UNL     1      13.877   2.045  -3.731  1.00  0.00     0.015 C 
HETATM    9  C1  UNL     1      14.818   1.984  -2.587  1.00  0.00     0.012 C 
HETATM   10  C3  UNL     1      12.472   2.025  -3.204  1.00  0.00     0.012 C 
ENDBRANCH   1   8
BRANCH   1  11
HETATM   11  N1  UNL     1      14.587   4.286  -3.952  1.00  0.00    -0.068 N 
ATOM     12  H13 UNL     1      14.549   5.163  -4.472  1.00  0.00     0.275 HD
ATOM     13  H12 UNL     1      13.979   4.571  -3.184  1.00  0.00     0.275 HD
ATOM     14  H11 UNL     1      15.529   4.032  -3.652  1.00  0.00     0.275 HD
ENDBRANCH   1  11
BRANCH   7  15
HETATM   15  C8  UNL     1      12.290   2.748  -6.481  1.00  0.00     0.150 C 
HETATM   16 CL1  UNL     1      10.505   2.883  -6.231  1.00  0.00    -0.128 Cl
ENDBRANCH   7  15
TORSDOF 3
ENDMDL
