MODEL 1
REMARK VINA RESULT: -8.531254332      0.000      0.000
REMARK  9 active torsions:
REMARK  status: ('A' for Active; 'I' for Inactive)
REMARK    1  A    between atoms: C2_2  and  O1_3 
REMARK    2  A    between atoms: O1_3  and  C3_4 
REMARK    3  A    between atoms: C3_4  and  C4_6 
REMARK    4  A    between atoms: C4_6  and  N1_7 
REMARK    5  A    between atoms: N1_7  and  C5_9 
REMARK    6  A    between atoms: C5_9  and  C7_11 
REMARK    7  A    between atoms: C9_16  and  N4_17 
REMARK    8  A    between atoms: C10_20  and  N6_21 
REMARK    9  A    between atoms: C11_24  and  C12_25 
ROOT
HETATM    1  C7  UNL     1      10.002  38.547  35.100  1.00  0.00     0.096 A 
HETATM    2  C8  UNL     1       8.822  37.869  35.159  1.00  0.00     0.149 A 
HETATM    3  N2  UNL     1       8.053  37.690  33.993  1.00  0.00    -0.081 NA
HETATM    4  N3  UNL     1       8.319  37.335  36.303  1.00  0.00    -0.176 N 
ATOM      5  H3  UNL     1       7.430  36.834  36.296  1.00  0.00     0.185 HD
HETATM    6  C9  UNL     1       9.018  37.480  37.449  1.00  0.00     0.709 A 
HETATM    7  N11 UNL     1      10.187  38.141  37.437  1.00  0.00    -0.153 N 
ATOM      8  H11 UNL     1      10.706  38.244  38.308  1.00  0.00     0.187 HD
HETATM    9  C16 UNL     1      10.695  38.672  36.311  1.00  0.00     0.275 A 
HETATM   10  O4  UNL     1      11.793  39.280  36.364  1.00  0.00    -0.267 OA
ENDROOT
BRANCH   6  11
HETATM   11  N4  UNL     1       8.508  36.926  38.655  1.00  0.00    -0.069 N 
HETATM   12  N5  UNL     1       7.752  35.856  38.744  1.00  0.00    -0.262 N 
HETATM   13  C10 UNL     1       7.445  35.593  40.024  1.00  0.00     0.132 A 
ATOM     14  H5  UNL     1       7.441  35.299  37.948  1.00  0.00     0.190 HD
HETATM   15  C11 UNL     1       8.051  36.562  40.768  1.00  0.00     0.098 A 
HETATM   16  C15 UNL     1       8.721  37.401  39.885  1.00  0.00     0.174 A 
HETATM   17  N10 UNL     1       9.493  38.558  40.248  1.00  0.00    -0.079 NA
BRANCH  13  18
HETATM   18  N6  UNL     1       6.725  34.620  40.462  1.00  0.00    -0.384 N 
ATOM     19  H62 UNL     1       6.298  33.878  39.909  1.00  0.00     0.157 HD
ATOM     20  H61 UNL     1       6.465  34.438  41.431  1.00  0.00     0.157 HD
ENDBRANCH  13  18
BRANCH  15  21
HETATM   21  C12 UNL     1       8.043  36.749  42.223  1.00  0.00     0.143 A 
HETATM   22  N7  UNL     1       8.833  36.168  43.141  1.00  0.00    -0.280 N 
HETATM   23  N8  UNL     1       8.511  36.605  44.363  1.00  0.00    -0.250 N 
ATOM     24  H7  UNL     1       9.570  35.494  42.936  1.00  0.00     0.188 HD
HETATM   25  C13 UNL     1       7.508  37.466  44.186  1.00  0.00     0.342 A 
ATOM     26  H8  UNL     1       8.943  36.336  45.246  1.00  0.00     0.192 HD
HETATM   27  O3  UNL     1       6.942  38.080  45.121  1.00  0.00    -0.245 OA
HETATM   28  N9  UNL     1       7.212  37.563  42.889  1.00  0.00    -0.287 N 
HETATM   29  C14 UNL     1       6.198  38.382  42.287  1.00  0.00     0.163 C 
ENDBRANCH  15  21
ENDBRANCH   6  11
BRANCH   1  30
HETATM   30  C5  UNL     1      10.585  39.132  33.895  1.00  0.00     0.020 C 
HETATM   31  C6  UNL     1      10.267  40.483  33.419  1.00  0.00     0.069 C 
BRANCH  30  32
HETATM   32  N1  UNL     1      11.419  38.424  33.214  1.00  0.00    -0.383 N 
ATOM     33  H1  UNL     1      12.350  38.822  33.090  1.00  0.00     0.160 HD
BRANCH  32  34
HETATM   34  C4  UNL     1      11.198  37.154  32.617  1.00  0.00     0.230 C 
BRANCH  34  35
HETATM   35  C3  UNL     1      12.178  36.151  33.115  1.00  0.00     0.276 C 
HETATM   36  O2  UNL     1      13.324  36.167  32.601  1.00  0.00    -0.263 OA
BRANCH  35  37
HETATM   37  O1  UNL     1      11.892  35.224  34.093  1.00  0.00    -0.321 OA
BRANCH  37  38
HETATM   38  C2  UNL     1      12.555  33.985  34.208  1.00  0.00     0.174 C 
HETATM   39  C1  UNL     1      13.289  33.928  35.514  1.00  0.00     0.034 C 
ENDBRANCH  37  38
ENDBRANCH  35  37
ENDBRANCH  34  35
ENDBRANCH  32  34
ENDBRANCH  30  32
ENDBRANCH   1  30
TORSDOF 9
ENDMDL
MODEL 2
REMARK VINA RESULT: -8.435201479      0.932      1.468
REMARK  9 active torsions:
REMARK  status: ('A' for Active; 'I' for Inactive)
REMARK    1  A    between atoms: C2_2  and  O1_3 
REMARK    2  A    between atoms: O1_3  and  C3_4 
REMARK    3  A    between atoms: C3_4  and  C4_6 
REMARK    4  A    between atoms: C4_6  and  N1_7 
REMARK    5  A    between atoms: N1_7  and  C5_9 
REMARK    6  A    between atoms: C5_9  and  C7_11 
REMARK    7  A    between atoms: C9_16  and  N4_17 
REMARK    8  A    between atoms: C10_20  and  N6_21 
REMARK    9  A    between atoms: C11_24  and  C12_25 
ROOT
HETATM    1  C7  UNL     1       9.929  38.604  35.174  1.00  0.00     0.096 A 
HETATM    2  C8  UNL     1      10.566  38.701  36.375  1.00  0.00     0.149 A 
HETATM    3  N2  UNL     1      11.790  39.390  36.470  1.00  0.00    -0.081 NA
HETATM    4  N3  UNL     1      10.085  38.162  37.527  1.00  0.00    -0.176 N 
ATOM      5  H3  UNL     1      10.599  38.263  38.402  1.00  0.00     0.185 HD
HETATM    6  C9  UNL     1       8.914  37.490  37.489  1.00  0.00     0.709 A 
HETATM    7  N11 UNL     1       8.252  37.370  36.326  1.00  0.00    -0.153 N 
ATOM      8  H11 UNL     1       7.369  36.860  36.310  1.00  0.00     0.187 HD
HETATM    9  C16 UNL     1       8.718  37.900  35.182  1.00  0.00     0.275 A 
HETATM   10  O4  UNL     1       8.053  37.753  34.126  1.00  0.00    -0.267 OA
ENDROOT
BRANCH   6  11
HETATM   11  N4  UNL     1       8.395  36.921  38.684  1.00  0.00    -0.069 N 
HETATM   12  N5  UNL     1       7.657  35.837  38.755  1.00  0.00    -0.262 N 
HETATM   13  C10 UNL     1       7.334  35.562  40.029  1.00  0.00     0.132 A 
ATOM     14  H5  UNL     1       7.368  35.279  37.952  1.00  0.00     0.190 HD
HETATM   15  C11 UNL     1       7.912  36.537  40.788  1.00  0.00     0.098 A 
HETATM   16  C15 UNL     1       8.581  37.392  39.919  1.00  0.00     0.174 A 
HETATM   17  N10 UNL     1       9.327  38.560  40.300  1.00  0.00    -0.079 NA
BRANCH  13  18
HETATM   18  N6  UNL     1       6.624  34.574  40.450  1.00  0.00    -0.384 N 
ATOM     19  H62 UNL     1       5.687  34.620  40.848  1.00  0.00     0.157 HD
ATOM     20  H61 UNL     1       6.888  33.589  40.456  1.00  0.00     0.157 HD
ENDBRANCH  13  18
BRANCH  15  21
HETATM   21  C12 UNL     1       7.878  36.716  42.243  1.00  0.00     0.143 A 
HETATM   22  N7  UNL     1       8.597  36.072  43.178  1.00  0.00    -0.280 N 
HETATM   23  N8  UNL     1       8.274  36.524  44.393  1.00  0.00    -0.250 N 
ATOM     24  H7  UNL     1       9.286  35.345  42.987  1.00  0.00     0.188 HD
HETATM   25  C13 UNL     1       7.344  37.459  44.196  1.00  0.00     0.342 A 
ATOM     26  H8  UNL     1       8.660  36.218  45.286  1.00  0.00     0.192 HD
HETATM   27  O3  UNL     1       6.800  38.109  45.121  1.00  0.00    -0.245 OA
HETATM   28  N9  UNL     1       7.093  37.586  42.893  1.00  0.00    -0.287 N 
HETATM   29  C14 UNL     1       6.160  38.482  42.270  1.00  0.00     0.163 C 
ENDBRANCH  15  21
ENDBRANCH   6  11
BRANCH   1  30
HETATM   30  C5  UNL     1      10.403  39.171  33.914  1.00  0.00     0.020 C 
HETATM   31  C6  UNL     1       9.981  40.483  33.410  1.00  0.00     0.069 C 
BRANCH  30  32
HETATM   32  N1  UNL     1      11.232  38.481  33.208  1.00  0.00    -0.383 N 
ATOM     33  H1  UNL     1      12.128  38.925  33.006  1.00  0.00     0.160 HD
BRANCH  32  34
HETATM   34  C4  UNL     1      11.048  37.176  32.679  1.00  0.00     0.230 C 
BRANCH  34  35
HETATM   35  C3  UNL     1      12.106  36.249  33.166  1.00  0.00     0.276 C 
HETATM   36  O2  UNL     1      13.219  36.294  32.585  1.00  0.00    -0.263 OA
BRANCH  35  37
HETATM   37  O1  UNL     1      11.923  35.359  34.201  1.00  0.00    -0.321 OA
BRANCH  37  38
HETATM   38  C2  UNL     1      12.546  34.095  34.260  1.00  0.00     0.174 C 
HETATM   39  C1  UNL     1      13.279  33.958  35.559  1.00  0.00     0.034 C 
ENDBRANCH  37  38
ENDBRANCH  35  37
ENDBRANCH  34  35
ENDBRANCH  32  34
ENDBRANCH  30  32
ENDBRANCH   1  30
TORSDOF 9
ENDMDL
MODEL 3
REMARK VINA RESULT: -8.163374939      3.441      9.218
REMARK  9 active torsions:
REMARK  status: ('A' for Active; 'I' for Inactive)
REMARK    1  A    between atoms: C2_2  and  O1_3 
REMARK    2  A    between atoms: O1_3  and  C3_4 
REMARK    3  A    between atoms: C3_4  and  C4_6 
REMARK    4  A    between atoms: C4_6  and  N1_7 
REMARK    5  A    between atoms: N1_7  and  C5_9 
REMARK    6  A    between atoms: C5_9  and  C7_11 
REMARK    7  A    between atoms: C9_16  and  N4_17 
REMARK    8  A    between atoms: C10_20  and  N6_21 
REMARK    9  A    between atoms: C11_24  and  C12_25 
ROOT
HETATM    1  C7  UNL     1       9.107  37.467  37.615  1.00  0.00     0.096 A 
HETATM    2  C8  UNL     1      10.275  37.290  36.936  1.00  0.00     0.149 A 
HETATM    3  N2  UNL     1      11.410  36.792  37.604  1.00  0.00    -0.081 NA
HETATM    4  N3  UNL     1      10.426  37.571  35.614  1.00  0.00    -0.176 N 
ATOM      5  H3  UNL     1      11.322  37.420  35.150  1.00  0.00     0.185 HD
HETATM    6  C9  UNL     1       9.368  38.052  34.928  1.00  0.00     0.709 A 
HETATM    7  N11 UNL     1       8.196  38.242  35.558  1.00  0.00    -0.153 N 
ATOM      8  H11 UNL     1       7.404  38.607  35.029  1.00  0.00     0.187 HD
HETATM    9  C16 UNL     1       8.036  37.967  36.864  1.00  0.00     0.275 A 
HETATM   10  O4  UNL     1       6.914  38.167  37.396  1.00  0.00    -0.267 OA
ENDROOT
BRANCH   6  11
HETATM   11  N4  UNL     1       9.507  38.349  33.545  1.00  0.00    -0.069 N 
HETATM   12  N5  UNL     1       8.602  38.123  32.621  1.00  0.00    -0.262 N 
HETATM   13  C10 UNL     1       9.039  38.522  31.416  1.00  0.00     0.132 A 
ATOM     14  H5  UNL     1       7.689  37.702  32.795  1.00  0.00     0.190 HD
HETATM   15  C11 UNL     1      10.291  39.027  31.613  1.00  0.00     0.098 A 
HETATM   16  C15 UNL     1      10.574  38.909  32.969  1.00  0.00     0.174 A 
HETATM   17  N10 UNL     1      11.793  39.319  33.611  1.00  0.00    -0.079 NA
BRANCH  13  18
HETATM   18  N6  UNL     1       8.403  38.448  30.299  1.00  0.00    -0.384 N 
ATOM     19  H62 UNL     1       8.110  37.598  29.818  1.00  0.00     0.157 HD
ATOM     20  H61 UNL     1       8.093  39.225  29.717  1.00  0.00     0.157 HD
ENDBRANCH  13  18
BRANCH  15  21
HETATM   21  C12 UNL     1      11.220  39.599  30.632  1.00  0.00     0.143 A 
HETATM   22  N7  UNL     1      12.119  38.959  29.866  1.00  0.00    -0.280 N 
HETATM   23  N8  UNL     1      12.774  39.838  29.100  1.00  0.00    -0.250 N 
ATOM     24  H7  UNL     1      12.278  37.952  29.868  1.00  0.00     0.188 HD
HETATM   25  C13 UNL     1      12.266  41.032  29.406  1.00  0.00     0.342 A 
ATOM     26  H8  UNL     1      13.509  39.636  28.423  1.00  0.00     0.192 HD
HETATM   27  O3  UNL     1      12.642  42.107  28.879  1.00  0.00    -0.245 OA
HETATM   28  N9  UNL     1      11.320  40.902  30.336  1.00  0.00    -0.287 N 
HETATM   29  C14 UNL     1      10.533  41.947  30.931  1.00  0.00     0.163 C 
ENDBRANCH  15  21
ENDBRANCH   6  11
BRANCH   1  30
HETATM   30  C5  UNL     1       8.896  37.176  39.030  1.00  0.00     0.020 C 
HETATM   31  C6  UNL     1       9.075  38.169  40.095  1.00  0.00     0.069 C 
BRANCH  30  32
HETATM   32  N1  UNL     1       8.536  35.983  39.361  1.00  0.00    -0.383 N 
ATOM     33  H1  UNL     1       9.289  35.312  39.513  1.00  0.00     0.160 HD
BRANCH  32  34
HETATM   34  C4  UNL     1       7.216  35.490  39.538  1.00  0.00     0.230 C 
BRANCH  34  35
HETATM   35  C3  UNL     1       6.877  34.483  38.495  1.00  0.00     0.276 C 
HETATM   36  O2  UNL     1       6.661  34.912  37.335  1.00  0.00    -0.263 OA
BRANCH  35  37
HETATM   37  O1  UNL     1       6.789  33.131  38.740  1.00  0.00    -0.321 OA
BRANCH  37  38
HETATM   38  C2  UNL     1       6.103  32.582  39.843  1.00  0.00     0.174 C 
HETATM   39  C1  UNL     1       5.313  31.388  39.400  1.00  0.00     0.034 C 
ENDBRANCH  37  38
ENDBRANCH  35  37
ENDBRANCH  34  35
ENDBRANCH  32  34
ENDBRANCH  30  32
ENDBRANCH   1  30
TORSDOF 9
ENDMDL
MODEL 4
REMARK VINA RESULT: -8.163171445      0.920      1.386
REMARK  9 active torsions:
REMARK  status: ('A' for Active; 'I' for Inactive)
REMARK    1  A    between atoms: C2_2  and  O1_3 
REMARK    2  A    between atoms: O1_3  and  C3_4 
REMARK    3  A    between atoms: C3_4  and  C4_6 
REMARK    4  A    between atoms: C4_6  and  N1_7 
REMARK    5  A    between atoms: N1_7  and  C5_9 
REMARK    6  A    between atoms: C5_9  and  C7_11 
REMARK    7  A    between atoms: C9_16  and  N4_17 
REMARK    8  A    between atoms: C10_20  and  N6_21 
REMARK    9  A    between atoms: C11_24  and  C12_25 
ROOT
HETATM    1  C7  UNL     1       9.821  38.923  35.124  1.00  0.00     0.096 A 
HETATM    2  C8  UNL     1       8.601  38.323  35.209  1.00  0.00     0.149 A 
HETATM    3  N2  UNL     1       7.746  38.301  34.091  1.00  0.00    -0.081 NA
HETATM    4  N3  UNL     1       8.135  37.724  36.338  1.00  0.00    -0.176 N 
ATOM      5  H3  UNL     1       7.213  37.287  36.352  1.00  0.00     0.185 HD
HETATM    6  C9  UNL     1       8.916  37.719  37.439  1.00  0.00     0.709 A 
HETATM    7  N11 UNL     1      10.127  38.298  37.399  1.00  0.00    -0.153 N 
ATOM      8  H11 UNL     1      10.708  38.288  38.237  1.00  0.00     0.187 HD
HETATM    9  C16 UNL     1      10.598  38.892  36.289  1.00  0.00     0.275 A 
HETATM   10  O4  UNL     1      11.739  39.418  36.315  1.00  0.00    -0.267 OA
ENDROOT
BRANCH   6  11
HETATM   11  N4  UNL     1       8.446  37.096  38.627  1.00  0.00    -0.069 N 
HETATM   12  N5  UNL     1       7.762  35.976  38.683  1.00  0.00    -0.262 N 
HETATM   13  C10 UNL     1       7.475  35.654  39.954  1.00  0.00     0.132 A 
ATOM     14  H5  UNL     1       7.486  35.425  37.870  1.00  0.00     0.190 HD
HETATM   15  C11 UNL     1       8.019  36.637  40.728  1.00  0.00     0.098 A 
HETATM   16  C15 UNL     1       8.630  37.545  39.871  1.00  0.00     0.174 A 
HETATM   17  N10 UNL     1       9.326  38.738  40.270  1.00  0.00    -0.079 NA
BRANCH  13  18
HETATM   18  N6  UNL     1       6.821  34.622  40.362  1.00  0.00    -0.384 N 
ATOM     19  H62 UNL     1       6.995  33.650  40.110  1.00  0.00     0.157 HD
ATOM     20  H61 UNL     1       6.026  34.614  40.999  1.00  0.00     0.157 HD
ENDBRANCH  13  18
BRANCH  15  21
HETATM   21  C12 UNL     1       8.002  36.778  42.188  1.00  0.00     0.143 A 
HETATM   22  N7  UNL     1       8.792  36.173  43.092  1.00  0.00    -0.280 N 
HETATM   23  N8  UNL     1       8.460  36.568  44.324  1.00  0.00    -0.250 N 
ATOM     24  H7  UNL     1       9.534  35.510  42.869  1.00  0.00     0.188 HD
HETATM   25  C13 UNL     1       7.452  37.427  44.170  1.00  0.00     0.342 A 
ATOM     26  H8  UNL     1       8.889  36.274  45.201  1.00  0.00     0.192 HD
HETATM   27  O3  UNL     1       6.877  38.008  45.121  1.00  0.00    -0.245 OA
HETATM   28  N9  UNL     1       7.162  37.564  42.876  1.00  0.00    -0.287 N 
HETATM   29  C14 UNL     1       6.146  38.395  42.294  1.00  0.00     0.163 C 
ENDBRANCH  15  21
ENDBRANCH   6  11
BRANCH   1  30
HETATM   30  C5  UNL     1      10.366  39.572  33.934  1.00  0.00     0.020 C 
HETATM   31  C6  UNL     1      10.090  40.969  33.580  1.00  0.00     0.069 C 
BRANCH  30  32
HETATM   32  N1  UNL     1      11.124  38.881  33.155  1.00  0.00    -0.383 N 
ATOM     33  H1  UNL     1      11.991  39.330  32.858  1.00  0.00     0.160 HD
BRANCH  32  34
HETATM   34  C4  UNL     1      10.899  37.569  32.660  1.00  0.00     0.230 C 
BRANCH  34  35
HETATM   35  C3  UNL     1      11.840  36.596  33.280  1.00  0.00     0.276 C 
HETATM   36  O2  UNL     1      11.436  35.976  34.295  1.00  0.00    -0.263 OA
BRANCH  35  37
HETATM   37  O1  UNL     1      13.108  36.351  32.802  1.00  0.00    -0.321 OA
BRANCH  37  38
HETATM   38  C2  UNL     1      13.380  35.974  31.471  1.00  0.00     0.174 C 
HETATM   39  C1  UNL     1      13.973  37.134  30.732  1.00  0.00     0.034 C 
ENDBRANCH  37  38
ENDBRANCH  35  37
ENDBRANCH  34  35
ENDBRANCH  32  34
ENDBRANCH  30  32
ENDBRANCH   1  30
TORSDOF 9
ENDMDL
MODEL 5
REMARK VINA RESULT: -8.158199791      1.260      1.471
REMARK  9 active torsions:
REMARK  status: ('A' for Active; 'I' for Inactive)
REMARK    1  A    between atoms: C2_2  and  O1_3 
REMARK    2  A    between atoms: O1_3  and  C3_4 
REMARK    3  A    between atoms: C3_4  and  C4_6 
REMARK    4  A    between atoms: C4_6  and  N1_7 
REMARK    5  A    between atoms: N1_7  and  C5_9 
REMARK    6  A    between atoms: C5_9  and  C7_11 
REMARK    7  A    between atoms: C9_16  and  N4_17 
REMARK    8  A    between atoms: C10_20  and  N6_21 
REMARK    9  A    between atoms: C11_24  and  C12_25 
ROOT
HETATM    1  C7  UNL     1       9.986  38.543  34.543  1.00  0.00     0.096 A 
HETATM    2  C8  UNL     1       8.798  37.908  34.746  1.00  0.00     0.149 A 
HETATM    3  N2  UNL     1       8.127  37.306  33.665  1.00  0.00    -0.081 NA
HETATM    4  N3  UNL     1       8.195  37.812  35.961  1.00  0.00    -0.176 N 
ATOM      5  H3  UNL     1       7.304  37.325  36.063  1.00  0.00     0.185 HD
HETATM    6  C9  UNL     1       8.798  38.374  37.031  1.00  0.00     0.709 A 
HETATM    7  N11 UNL     1       9.971  39.010  36.876  1.00  0.00    -0.153 N 
ATOM      8  H11 UNL     1      10.417  39.431  37.691  1.00  0.00     0.187 HD
HETATM    9  C16 UNL     1      10.576  39.110  35.680  1.00  0.00     0.275 A 
HETATM   10  O4  UNL     1      11.673  39.718  35.600  1.00  0.00    -0.267 OA
ENDROOT
BRANCH   6  11
HETATM   11  N4  UNL     1       8.183  38.282  38.309  1.00  0.00    -0.069 N 
HETATM   12  N5  UNL     1       7.000  38.757  38.624  1.00  0.00    -0.262 N 
HETATM   13  C10 UNL     1       6.708  38.500  39.909  1.00  0.00     0.132 A 
ATOM     14  H5  UNL     1       6.386  39.254  37.979  1.00  0.00     0.190 HD
HETATM   15  C11 UNL     1       7.779  37.823  40.415  1.00  0.00     0.098 A 
HETATM   16  C15 UNL     1       8.707  37.693  39.387  1.00  0.00     0.174 A 
HETATM   17  N10 UNL     1       9.985  37.042  39.488  1.00  0.00    -0.079 NA
BRANCH  13  18
HETATM   18  N6  UNL     1       5.633  38.825  40.537  1.00  0.00    -0.384 N 
ATOM     19  H62 UNL     1       4.788  38.262  40.635  1.00  0.00     0.157 HD
ATOM     20  H61 UNL     1       5.453  39.697  41.035  1.00  0.00     0.157 HD
ENDBRANCH  13  18
BRANCH  15  21
HETATM   21  C12 UNL     1       7.984  37.301  41.770  1.00  0.00     0.143 A 
HETATM   22  N7  UNL     1       8.189  36.028  42.150  1.00  0.00    -0.280 N 
HETATM   23  N8  UNL     1       8.333  35.966  43.477  1.00  0.00    -0.250 N 
ATOM     24  H7  UNL     1       8.228  35.229  41.518  1.00  0.00     0.188 HD
HETATM   25  C13 UNL     1       8.214  37.221  43.913  1.00  0.00     0.342 A 
ATOM     26  H8  UNL     1       8.500  35.132  44.039  1.00  0.00     0.192 HD
HETATM   27  O3  UNL     1       8.295  37.551  45.120  1.00  0.00    -0.245 OA
HETATM   28  N9  UNL     1       8.002  38.043  42.886  1.00  0.00    -0.287 N 
HETATM   29  C14 UNL     1       7.822  39.467  42.934  1.00  0.00     0.163 C 
ENDBRANCH  15  21
ENDBRANCH   6  11
BRANCH   1  30
HETATM   30  C5  UNL     1      10.673  38.667  33.260  1.00  0.00     0.020 C 
HETATM   31  C6  UNL     1      10.396  39.737  32.296  1.00  0.00     0.069 C 
BRANCH  30  32
HETATM   32  N1  UNL     1      11.567  37.788  32.959  1.00  0.00    -0.383 N 
ATOM     33  H1  UNL     1      12.538  38.078  33.074  1.00  0.00     0.160 HD
BRANCH  32  34
HETATM   34  C4  UNL     1      11.362  36.464  32.488  1.00  0.00     0.230 C 
BRANCH  34  35
HETATM   35  C3  UNL     1      12.290  35.510  33.156  1.00  0.00     0.276 C 
HETATM   36  O2  UNL     1      13.520  35.728  33.032  1.00  0.00    -0.263 OA
BRANCH  35  37
HETATM   37  O1  UNL     1      11.870  34.420  33.885  1.00  0.00    -0.321 OA
BRANCH  37  38
HETATM   38  C2  UNL     1      12.462  33.144  33.789  1.00  0.00     0.174 C 
HETATM   39  C1  UNL     1      13.195  32.835  35.059  1.00  0.00     0.034 C 
ENDBRANCH  37  38
ENDBRANCH  35  37
ENDBRANCH  34  35
ENDBRANCH  32  34
ENDBRANCH  30  32
ENDBRANCH   1  30
TORSDOF 9
ENDMDL
