MODEL 1
REMARK VINA RESULT: -9.197150384      0.000      0.000
REMARK  8 active torsions:
REMARK  status: ('A' for Active; 'I' for Inactive)
REMARK    1  A    between atoms: C2_2  and  C4_4 
REMARK    2  A    between atoms: C5_8  and  C6_9 
REMARK       I    between atoms: C6_9  and  N2_11 
REMARK    3  A    between atoms: N2_11  and  N3_13 
REMARK       I    between atoms: N3_13  and  C7_15 
REMARK    4  A    between atoms: C7_15  and  C8_17 
REMARK    5  A    between atoms: C9_20  and  C10_21 
REMARK    6  A    between atoms: N7_26  and  C11_27 
REMARK    7  A    between atoms: C12_32  and  N10_33 
REMARK    8  A    between atoms: C13_38  and  N12_39 
ROOT
HETATM    1  C8  UNL     1      11.720  36.639  33.112  1.00  0.00     0.217 A 
HETATM    2  N4  UNL     1      11.855  37.528  32.089  1.00  0.00    -0.317 N 
ATOM      3  H4  UNL     1      11.317  38.387  31.981  1.00  0.00     0.169 HD
HETATM    4  C9  UNL     1      12.813  37.095  31.239  1.00  0.00     0.189 A 
HETATM    5  N6  UNL     1      13.255  35.925  31.767  1.00  0.00    -0.258 N 
ATOM      6  H6  UNL     1      13.985  35.340  31.361  1.00  0.00     0.190 HD
HETATM    7  N7  UNL     1      12.591  35.651  32.900  1.00  0.00    -0.060 N 
ENDROOT
BRANCH   1   8
HETATM    8  C7  UNL     1      10.792  36.816  34.219  1.00  0.00     0.306 C 
HETATM    9  N3  UNL     1      11.274  37.088  35.543  1.00  0.00    -0.260 N 
ATOM     10  H3  UNL     1      12.281  37.156  35.694  1.00  0.00     0.190 HD
HETATM   11  O3  UNL     1       9.558  36.739  34.076  1.00  0.00    -0.262 OA
BRANCH   9  12
HETATM   12  N2  UNL     1      10.418  37.265  36.635  1.00  0.00    -0.262 N 
HETATM   13  C6  UNL     1      10.614  36.536  37.809  1.00  0.00     0.291 C 
HETATM   14  O2  UNL     1      11.617  35.729  37.801  1.00  0.00    -0.264 OA
ATOM     15  H2  UNL     1       9.647  37.929  36.572  1.00  0.00     0.190 HD
BRANCH  13  16
HETATM   16  C5  UNL     1       9.814  36.601  39.010  1.00  0.00     0.159 A 
HETATM   17  N1  UNL     1      10.339  36.957  40.223  1.00  0.00    -0.253 N 
HETATM   18  O1  UNL     1       9.418  36.916  41.104  1.00  0.00    -0.239 OA
ATOM     19  H1  UNL     1      11.311  37.214  40.395  1.00  0.00     0.195 HD
HETATM   20  C4  UNL     1       8.276  36.556  40.601  1.00  0.00     0.115 A 
HETATM   21  C13 UNL     1       8.500  36.341  39.235  1.00  0.00     0.169 A 
BRANCH  20  22
HETATM   22  C2  UNL     1       6.933  36.364  41.208  1.00  0.00     0.040 C 
HETATM   23  C1  UNL     1       6.854  35.112  42.031  1.00  0.00     0.016 C 
HETATM   24  C3  UNL     1       6.502  37.508  42.081  1.00  0.00     0.016 C 
ENDBRANCH  20  22
BRANCH  21  25
HETATM   25  N12 UNL     1       7.529  35.900  38.291  1.00  0.00    -0.110 N 
HETATM   26  O5  UNL     1       6.798  36.632  37.623  1.00  0.00    -0.532 OA
HETATM   27  O6  UNL     1       7.385  34.523  38.101  1.00  0.00    -0.532 OA
ENDBRANCH  21  25
ENDBRANCH  13  16
ENDBRANCH   9  12
ENDBRANCH   1   8
BRANCH   7  28
HETATM   28  C11 UNL     1      12.830  34.497  33.695  1.00  0.00     0.735 A 
HETATM   29  N8  UNL     1      12.879  34.394  35.029  1.00  0.00    -0.115 N 
HETATM   30  N9  UNL     1      13.127  33.150  35.391  1.00  0.00    -0.117 N 
ATOM     31  H8  UNL     1      12.742  35.170  35.676  1.00  0.00     0.206 HD
HETATM   32  C12 UNL     1      13.250  32.394  34.296  1.00  0.00     0.705 A 
ATOM     33  H9  UNL     1      13.213  32.819  36.352  1.00  0.00     0.206 HD
HETATM   34  N11 UNL     1      13.067  33.224  33.252  1.00  0.00    -0.018 N 
ATOM     35  H11 UNL     1      13.101  32.945  32.271  1.00  0.00     0.203 HD
BRANCH  32  36
HETATM   36  N10 UNL     1      13.499  31.107  34.236  1.00  0.00    -0.233 N 
ATOM     37 2H10 UNL     1      13.165  30.393  34.884  1.00  0.00     0.174 HD
ATOM     38 1H10 UNL     1      14.059  30.613  33.541  1.00  0.00     0.174 HD
ENDBRANCH  32  36
ENDBRANCH   7  28
BRANCH   4  39
HETATM   39  C10 UNL     1      13.256  37.760  30.012  1.00  0.00     0.300 C 
HETATM   40  N5  UNL     1      14.015  37.086  29.026  1.00  0.00    -0.054 NA
HETATM   41  O4  UNL     1      12.942  38.967  29.854  1.00  0.00    -0.268 OA
ENDBRANCH   4  39
TORSDOF 8
ENDMDL
MODEL 2
REMARK VINA RESULT: -9.166644200      4.198     10.039
REMARK  8 active torsions:
REMARK  status: ('A' for Active; 'I' for Inactive)
REMARK    1  A    between atoms: C2_2  and  C4_4 
REMARK    2  A    between atoms: C5_8  and  C6_9 
REMARK       I    between atoms: C6_9  and  N2_11 
REMARK    3  A    between atoms: N2_11  and  N3_13 
REMARK       I    between atoms: N3_13  and  C7_15 
REMARK    4  A    between atoms: C7_15  and  C8_17 
REMARK    5  A    between atoms: C9_20  and  C10_21 
REMARK    6  A    between atoms: N7_26  and  C11_27 
REMARK    7  A    between atoms: C12_32  and  N10_33 
REMARK    8  A    between atoms: C13_38  and  N12_39 
ROOT
HETATM    1  C8  UNL     1       6.983  35.603  41.495  1.00  0.00     0.217 A 
HETATM    2  N4  UNL     1       6.615  34.336  41.152  1.00  0.00    -0.317 N 
ATOM      3  H4  UNL     1       6.639  33.953  40.207  1.00  0.00     0.169 HD
HETATM    4  C9  UNL     1       6.216  33.667  42.256  1.00  0.00     0.189 A 
HETATM    5  N6  UNL     1       6.347  34.553  43.276  1.00  0.00    -0.258 N 
ATOM      6  H6  UNL     1       6.126  34.357  44.252  1.00  0.00     0.190 HD
HETATM    7  N7  UNL     1       6.810  35.723  42.813  1.00  0.00    -0.060 N 
ENDROOT
BRANCH   1   8
HETATM    8  C7  UNL     1       7.490  36.582  40.548  1.00  0.00     0.306 C 
HETATM    9  N3  UNL     1       8.902  36.737  40.338  1.00  0.00    -0.260 N 
ATOM     10  H3  UNL     1       9.543  36.146  40.867  1.00  0.00     0.190 HD
HETATM   11  O3  UNL     1       6.741  37.323  39.885  1.00  0.00    -0.262 OA
BRANCH   9  12
HETATM   12  N2  UNL     1       9.432  37.666  39.438  1.00  0.00    -0.262 N 
HETATM   13  C6  UNL     1       9.709  37.294  38.121  1.00  0.00     0.291 C 
HETATM   14  O2  UNL     1       9.433  36.073  37.820  1.00  0.00    -0.264 OA
ATOM     15  H2  UNL     1       9.618  38.620  39.745  1.00  0.00     0.190 HD
BRANCH  13  16
HETATM   16  C5  UNL     1      10.263  38.132  37.084  1.00  0.00     0.159 A 
HETATM   17  N1  UNL     1      11.446  38.803  37.235  1.00  0.00    -0.253 N 
HETATM   18  O1  UNL     1      11.685  39.472  36.176  1.00  0.00    -0.239 OA
ATOM     19  H1  UNL     1      12.042  38.772  38.063  1.00  0.00     0.195 HD
HETATM   20  C4  UNL     1      10.753  39.323  35.284  1.00  0.00     0.115 A 
HETATM   21  C13 UNL     1       9.809  38.454  35.845  1.00  0.00     0.169 A 
BRANCH  20  22
HETATM   22  C2  UNL     1      10.580  39.883  33.918  1.00  0.00     0.040 C 
HETATM   23  C1  UNL     1      10.994  41.323  33.838  1.00  0.00     0.016 C 
HETATM   24  C3  UNL     1      11.340  39.133  32.862  1.00  0.00     0.016 C 
ENDBRANCH  20  22
BRANCH  21  25
HETATM   25  N12 UNL     1       8.595  38.035  35.229  1.00  0.00    -0.110 N 
HETATM   26  O5  UNL     1       8.476  37.079  34.461  1.00  0.00    -0.532 OA
HETATM   27  O6  UNL     1       7.435  38.762  35.512  1.00  0.00    -0.532 OA
ENDBRANCH  21  25
ENDBRANCH  13  16
ENDBRANCH   9  12
ENDBRANCH   1   8
BRANCH   7  28
HETATM   28  C11 UNL     1       7.062  36.854  43.637  1.00  0.00     0.735 A 
HETATM   29  N8  UNL     1       8.009  37.018  44.568  1.00  0.00    -0.115 N 
HETATM   30  N9  UNL     1       7.917  38.212  45.121  1.00  0.00    -0.117 N 
ATOM     31  H8  UNL     1       8.706  36.316  44.817  1.00  0.00     0.206 HD
HETATM   32  C12 UNL     1       6.898  38.873  44.564  1.00  0.00     0.705 A 
ATOM     33  H9  UNL     1       8.525  38.573  45.857  1.00  0.00     0.206 HD
HETATM   34  N11 UNL     1       6.372  38.036  43.650  1.00  0.00    -0.018 N 
ATOM     35  H11 UNL     1       5.573  38.251  43.053  1.00  0.00     0.203 HD
BRANCH  32  36
HETATM   36  N10 UNL     1       6.484  40.087  44.842  1.00  0.00    -0.233 N 
ATOM     37 2H10 UNL     1       5.776  40.344  45.529  1.00  0.00     0.174 HD
ATOM     38 1H10 UNL     1       6.797  40.962  44.422  1.00  0.00     0.174 HD
ENDBRANCH  32  36
ENDBRANCH   7  28
BRANCH   4  39
HETATM   39  C10 UNL     1       5.740  32.283  42.312  1.00  0.00     0.300 C 
HETATM   40  N5  UNL     1       5.128  31.749  43.471  1.00  0.00    -0.054 NA
HETATM   41  O4  UNL     1       5.892  31.570  41.289  1.00  0.00    -0.268 OA
ENDBRANCH   4  39
TORSDOF 8
ENDMDL
MODEL 3
REMARK VINA RESULT: -9.150796578      3.886      9.326
REMARK  8 active torsions:
REMARK  status: ('A' for Active; 'I' for Inactive)
REMARK    1  A    between atoms: C2_2  and  C4_4 
REMARK    2  A    between atoms: C5_8  and  C6_9 
REMARK       I    between atoms: C6_9  and  N2_11 
REMARK    3  A    between atoms: N2_11  and  N3_13 
REMARK       I    between atoms: N3_13  and  C7_15 
REMARK    4  A    between atoms: C7_15  and  C8_17 
REMARK    5  A    between atoms: C9_20  and  C10_21 
REMARK    6  A    between atoms: N7_26  and  C11_27 
REMARK    7  A    between atoms: C12_32  and  N10_33 
REMARK    8  A    between atoms: C13_38  and  N12_39 
ROOT
HETATM    1  C8  UNL     1       7.758  35.970  40.470  1.00  0.00     0.217 A 
HETATM    2  N4  UNL     1       7.960  36.774  41.551  1.00  0.00    -0.317 N 
ATOM      3  H4  UNL     1       8.502  37.638  41.548  1.00  0.00     0.169 HD
HETATM    4  C9  UNL     1       7.332  36.251  42.627  1.00  0.00     0.189 A 
HETATM    5  N6  UNL     1       6.746  35.112  42.178  1.00  0.00    -0.258 N 
ATOM      6  H6  UNL     1       6.189  34.477  42.750  1.00  0.00     0.190 HD
HETATM    7  N7  UNL     1       7.005  34.944  40.873  1.00  0.00    -0.060 N 
ENDROOT
BRANCH   1   8
HETATM    8  C7  UNL     1       8.274  36.256  39.141  1.00  0.00     0.306 C 
HETATM    9  N3  UNL     1       8.114  37.558  38.557  1.00  0.00    -0.260 N 
ATOM     10  H3  UNL     1       7.630  38.279  39.093  1.00  0.00     0.190 HD
HETATM   11  O3  UNL     1       8.867  35.403  38.456  1.00  0.00    -0.262 OA
BRANCH   9  12
HETATM   12  N2  UNL     1       8.594  37.876  37.283  1.00  0.00    -0.262 N 
HETATM   13  C6  UNL     1       7.789  38.569  36.378  1.00  0.00     0.291 C 
HETATM   14  O2  UNL     1       6.617  38.885  36.807  1.00  0.00    -0.264 OA
ATOM     15  H2  UNL     1       9.538  37.600  37.014  1.00  0.00     0.190 HD
BRANCH  13  16
HETATM   16  C5  UNL     1       8.138  38.959  35.032  1.00  0.00     0.159 A 
HETATM   17  N1  UNL     1       7.212  39.425  34.139  1.00  0.00    -0.253 N 
HETATM   18  O1  UNL     1       7.790  39.679  33.031  1.00  0.00    -0.239 OA
ATOM     19  H1  UNL     1       6.217  39.550  34.329  1.00  0.00     0.195 HD
HETATM   20  C4  UNL     1       9.063  39.424  33.076  1.00  0.00     0.115 A 
HETATM   21  C13 UNL     1       9.323  38.952  34.369  1.00  0.00     0.169 A 
BRANCH  20  22
HETATM   22  C2  UNL     1      10.143  39.552  32.064  1.00  0.00     0.040 C 
HETATM   23  C1  UNL     1      10.202  38.368  31.143  1.00  0.00     0.016 C 
HETATM   24  C3  UNL     1      10.022  40.783  31.211  1.00  0.00     0.016 C 
ENDBRANCH  20  22
BRANCH  21  25
HETATM   25  N12 UNL     1      10.588  38.518  34.858  1.00  0.00    -0.110 N 
HETATM   26  O5  UNL     1      11.524  39.255  35.169  1.00  0.00    -0.532 OA
HETATM   27  O6  UNL     1      10.796  37.144  34.999  1.00  0.00    -0.532 OA
ENDBRANCH  21  25
ENDBRANCH  13  16
ENDBRANCH   9  12
ENDBRANCH   1   8
BRANCH   7  28
HETATM   28  C11 UNL     1       6.524  33.847  40.107  1.00  0.00     0.735 A 
HETATM   29  N8  UNL     1       6.336  33.766  38.785  1.00  0.00    -0.115 N 
HETATM   30  N9  UNL     1       5.871  32.578  38.452  1.00  0.00    -0.117 N 
ATOM     31  H8  UNL     1       6.525  34.521  38.125  1.00  0.00     0.206 HD
HETATM   32  C12 UNL     1       5.740  31.836  39.556  1.00  0.00     0.705 A 
ATOM     33  H9  UNL     1       5.648  32.273  37.504  1.00  0.00     0.206 HD
HETATM   34  N11 UNL     1       6.142  32.619  40.575  1.00  0.00    -0.018 N 
ATOM     35  H11 UNL     1       6.159  32.337  41.556  1.00  0.00     0.203 HD
BRANCH  32  36
HETATM   36  N10 UNL     1       5.309  30.600  39.643  1.00  0.00    -0.233 N 
ATOM     37 2H10 UNL     1       5.002  30.008  38.871  1.00  0.00     0.174 HD
ATOM     38 1H10 UNL     1       5.212  30.033  40.485  1.00  0.00     0.174 HD
ENDBRANCH  32  36
ENDBRANCH   7  28
BRANCH   4  39
HETATM   39  C10 UNL     1       7.310  36.809  43.981  1.00  0.00     0.300 C 
HETATM   40  N5  UNL     1       6.133  36.820  44.767  1.00  0.00    -0.054 NA
HETATM   41  O4  UNL     1       8.380  37.286  44.435  1.00  0.00    -0.268 OA
ENDBRANCH   4  39
TORSDOF 8
ENDMDL
MODEL 4
REMARK VINA RESULT: -9.069571742      3.494      9.116
REMARK  8 active torsions:
REMARK  status: ('A' for Active; 'I' for Inactive)
REMARK    1  A    between atoms: C2_2  and  C4_4 
REMARK    2  A    between atoms: C5_8  and  C6_9 
REMARK       I    between atoms: C6_9  and  N2_11 
REMARK    3  A    between atoms: N2_11  and  N3_13 
REMARK       I    between atoms: N3_13  and  C7_15 
REMARK    4  A    between atoms: C7_15  and  C8_17 
REMARK    5  A    between atoms: C9_20  and  C10_21 
REMARK    6  A    between atoms: N7_26  and  C11_27 
REMARK    7  A    between atoms: C12_32  and  N10_33 
REMARK    8  A    between atoms: C13_38  and  N12_39 
ROOT
HETATM    1  C8  UNL     1       7.790  36.046  40.423  1.00  0.00     0.217 A 
HETATM    2  N4  UNL     1       8.003  36.826  41.520  1.00  0.00    -0.317 N 
ATOM      3  H4  UNL     1       8.524  37.703  41.526  1.00  0.00     0.169 HD
HETATM    4  C9  UNL     1       7.416  36.260  42.597  1.00  0.00     0.189 A 
HETATM    5  N6  UNL     1       6.844  35.120  42.133  1.00  0.00    -0.258 N 
ATOM      6  H6  UNL     1       6.317  34.457  42.701  1.00  0.00     0.190 HD
HETATM    7  N7  UNL     1       7.072  34.993  40.818  1.00  0.00    -0.060 N 
ENDROOT
BRANCH   1   8
HETATM    8  C7  UNL     1       8.264  36.381  39.090  1.00  0.00     0.306 C 
HETATM    9  N3  UNL     1       8.134  37.715  38.578  1.00  0.00    -0.260 N 
ATOM     10  H3  UNL     1       7.701  38.426  39.168  1.00  0.00     0.190 HD
HETATM   11  O3  UNL     1       8.795  35.542  38.339  1.00  0.00    -0.262 OA
BRANCH   9  12
HETATM   12  N2  UNL     1       8.575  38.079  37.302  1.00  0.00    -0.262 N 
HETATM   13  C6  UNL     1       9.858  38.599  37.121  1.00  0.00     0.291 C 
HETATM   14  O2  UNL     1      10.572  38.699  38.188  1.00  0.00    -0.264 OA
ATOM     15  H2  UNL     1       7.956  37.965  36.500  1.00  0.00     0.190 HD
BRANCH  13  16
HETATM   16  C5  UNL     1      10.450  39.026  35.875  1.00  0.00     0.159 A 
HETATM   17  N1  UNL     1      11.087  40.230  35.739  1.00  0.00    -0.253 N 
HETATM   18  O1  UNL     1      11.498  40.352  34.538  1.00  0.00    -0.239 OA
ATOM     19  H1  UNL     1      11.213  40.920  36.480  1.00  0.00     0.195 HD
HETATM   20  C4  UNL     1      11.196  39.318  33.812  1.00  0.00     0.115 A 
HETATM   21  C13 UNL     1      10.511  38.434  34.654  1.00  0.00     0.169 A 
BRANCH  20  22
HETATM   22  C2  UNL     1      11.450  38.993  32.384  1.00  0.00     0.040 C 
HETATM   23  C1  UNL     1      10.298  39.373  31.501  1.00  0.00     0.016 C 
HETATM   24  C3  UNL     1      12.682  39.650  31.830  1.00  0.00     0.016 C 
ENDBRANCH  20  22
BRANCH  21  25
HETATM   25  N12 UNL     1       9.960  37.177  34.271  1.00  0.00    -0.110 N 
HETATM   26  O5  UNL     1      10.608  36.187  33.932  1.00  0.00    -0.532 OA
HETATM   27  O6  UNL     1       8.569  37.047  34.277  1.00  0.00    -0.532 OA
ENDBRANCH  21  25
ENDBRANCH  13  16
ENDBRANCH   9  12
ENDBRANCH   1   8
BRANCH   7  28
HETATM   28  C11 UNL     1       6.596  33.906  40.035  1.00  0.00     0.735 A 
HETATM   29  N8  UNL     1       6.430  33.837  38.709  1.00  0.00    -0.115 N 
HETATM   30  N9  UNL     1       5.963  32.654  38.358  1.00  0.00    -0.117 N 
ATOM     31  H8  UNL     1       6.637  34.595  38.058  1.00  0.00     0.206 HD
HETATM   32  C12 UNL     1       5.807  31.905  39.454  1.00  0.00     0.705 A 
ATOM     33  H9  UNL     1       5.754  32.359  37.404  1.00  0.00     0.206 HD
HETATM   34  N11 UNL     1       6.197  32.677  40.486  1.00  0.00    -0.018 N 
ATOM     35  H11 UNL     1       6.194  32.388  41.464  1.00  0.00     0.203 HD
BRANCH  32  36
HETATM   36  N10 UNL     1       5.365  30.672  39.524  1.00  0.00    -0.233 N 
ATOM     37 2H10 UNL     1       4.645  30.251  38.936  1.00  0.00     0.174 HD
ATOM     38 1H10 UNL     1       5.663  29.940  40.168  1.00  0.00     0.174 HD
ENDBRANCH  32  36
ENDBRANCH   7  28
BRANCH   4  39
HETATM   39  C10 UNL     1       7.417  36.781  43.966  1.00  0.00     0.300 C 
HETATM   40  N5  UNL     1       6.241  36.822  44.753  1.00  0.00    -0.054 NA
HETATM   41  O4  UNL     1       8.506  37.199  44.433  1.00  0.00    -0.268 OA
ENDBRANCH   4  39
TORSDOF 8
ENDMDL
MODEL 5
REMARK VINA RESULT: -9.052133624      4.116      9.160
REMARK  8 active torsions:
REMARK  status: ('A' for Active; 'I' for Inactive)
REMARK    1  A    between atoms: C2_2  and  C4_4 
REMARK    2  A    between atoms: C5_8  and  C6_9 
REMARK       I    between atoms: C6_9  and  N2_11 
REMARK    3  A    between atoms: N2_11  and  N3_13 
REMARK       I    between atoms: N3_13  and  C7_15 
REMARK    4  A    between atoms: C7_15  and  C8_17 
REMARK    5  A    between atoms: C9_20  and  C10_21 
REMARK    6  A    between atoms: N7_26  and  C11_27 
REMARK    7  A    between atoms: C12_32  and  N10_33 
REMARK    8  A    between atoms: C13_38  and  N12_39 
ROOT
HETATM    1  C8  UNL     1       7.664  35.935  40.348  1.00  0.00     0.217 A 
HETATM    2  N4  UNL     1       7.894  36.735  41.427  1.00  0.00    -0.317 N 
ATOM      3  H4  UNL     1       8.405  37.617  41.407  1.00  0.00     0.169 HD
HETATM    4  C9  UNL     1       7.340  36.179  42.527  1.00  0.00     0.189 A 
HETATM    5  N6  UNL     1       6.770  35.026  42.095  1.00  0.00    -0.258 N 
ATOM      6  H6  UNL     1       6.265  34.366  42.686  1.00  0.00     0.190 HD
HETATM    7  N7  UNL     1       6.968  34.880  40.776  1.00  0.00    -0.060 N 
ENDROOT
BRANCH   1   8
HETATM    8  C7  UNL     1       8.102  36.254  38.999  1.00  0.00     0.306 C 
HETATM    9  N3  UNL     1       7.675  37.463  38.355  1.00  0.00    -0.260 N 
ATOM     10  H3  UNL     1       7.057  38.097  38.863  1.00  0.00     0.190 HD
HETATM   11  O3  UNL     1       8.853  35.506  38.345  1.00  0.00    -0.262 OA
BRANCH   9  12
HETATM   12  N2  UNL     1       8.071  37.808  37.059  1.00  0.00    -0.262 N 
HETATM   13  C6  UNL     1       9.286  38.460  36.842  1.00  0.00     0.291 C 
HETATM   14  O2  UNL     1       9.984  38.697  37.898  1.00  0.00    -0.264 OA
ATOM     15  H2  UNL     1       7.469  37.581  36.268  1.00  0.00     0.190 HD
BRANCH  13  16
HETATM   16  C5  UNL     1       9.825  38.886  35.572  1.00  0.00     0.159 A 
HETATM   17  N1  UNL     1      11.050  39.484  35.457  1.00  0.00    -0.253 N 
HETATM   18  O1  UNL     1      11.265  39.766  34.233  1.00  0.00    -0.239 OA
ATOM     19  H1  UNL     1      11.691  39.674  36.229  1.00  0.00     0.195 HD
HETATM   20  C4  UNL     1      10.276  39.410  33.470  1.00  0.00     0.115 A 
HETATM   21  C13 UNL     1       9.318  38.833  34.313  1.00  0.00     0.169 A 
BRANCH  20  22
HETATM   22  C2  UNL     1      10.054  39.521  32.004  1.00  0.00     0.040 C 
HETATM   23  C1  UNL     1      10.668  40.764  31.430  1.00  0.00     0.016 C 
HETATM   24  C3  UNL     1      10.589  38.352  31.227  1.00  0.00     0.016 C 
ENDBRANCH  20  22
BRANCH  21  25
HETATM   25  N12 UNL     1       8.049  38.328  33.909  1.00  0.00    -0.110 N 
HETATM   26  O5  UNL     1       7.863  37.300  33.258  1.00  0.00    -0.532 OA
HETATM   27  O6  UNL     1       6.912  39.054  34.276  1.00  0.00    -0.532 OA
ENDBRANCH  21  25
ENDBRANCH  13  16
ENDBRANCH   9  12
ENDBRANCH   1   8
BRANCH   7  28
HETATM   28  C11 UNL     1       6.486  33.776  40.023  1.00  0.00     0.735 A 
HETATM   29  N8  UNL     1       6.305  33.678  38.700  1.00  0.00    -0.115 N 
HETATM   30  N9  UNL     1       5.836  32.487  38.380  1.00  0.00    -0.117 N 
ATOM     31  H8  UNL     1       6.502  34.423  38.031  1.00  0.00     0.206 HD
HETATM   32  C12 UNL     1       5.694  31.761  39.493  1.00  0.00     0.705 A 
ATOM     33  H9  UNL     1       5.617  32.171  37.436  1.00  0.00     0.206 HD
HETATM   34  N11 UNL     1       6.094  32.556  40.505  1.00  0.00    -0.018 N 
ATOM     35  H11 UNL     1       6.104  32.288  41.489  1.00  0.00     0.203 HD
BRANCH  32  36
HETATM   36  N10 UNL     1       5.256  30.529  39.595  1.00  0.00    -0.233 N 
ATOM     37 2H10 UNL     1       5.810  29.678  39.495  1.00  0.00     0.174 HD
ATOM     38 1H10 UNL     1       4.303  30.222  39.788  1.00  0.00     0.174 HD
ENDBRANCH  32  36
ENDBRANCH   7  28
BRANCH   4  39
HETATM   39  C10 UNL     1       7.369  36.722  43.887  1.00  0.00     0.300 C 
HETATM   40  N5  UNL     1       6.220  36.731  44.714  1.00  0.00    -0.054 NA
HETATM   41  O4  UNL     1       8.457  37.188  44.309  1.00  0.00    -0.268 OA
ENDBRANCH   4  39
TORSDOF 8
ENDMDL
