MODEL 1
REMARK VINA RESULT: -9.545761397      0.000      0.000
REMARK  8 active torsions:
REMARK  status: ('A' for Active; 'I' for Inactive)
REMARK    1  A    between atoms: C2_3  and  C3_4 
REMARK    2  A    between atoms: C2_3  and  C7_21 
REMARK    3  A    between atoms: C4_9  and  C5_10 
REMARK    4  A    between atoms: C6_16  and  N6_17 
REMARK    5  A    between atoms: C7_21  and  N7_22 
REMARK    6  A    between atoms: C7_21  and  C14_36 
REMARK       I    between atoms: N7_22  and  C8_24 
REMARK       I    between atoms: C8_24  and  N8_26 
REMARK    7  A    between atoms: N8_26  and  N9_28 
REMARK    8  A    between atoms: N9_28  and  C9_29 
ROOT
HETATM    1  N1  UNL     1       8.450  40.225  41.371  1.00  0.00    -0.196 NA
HETATM    2  C1  UNL     1       8.197  39.222  40.890  1.00  0.00     0.075 C 
HETATM    3  C2  UNL     1       7.865  37.961  40.264  1.00  0.00     0.202 C 
ENDROOT
BRANCH   3   4
HETATM    4  C3  UNL     1       7.700  36.840  41.223  1.00  0.00     0.161 A 
HETATM    5  N2  UNL     1       8.227  36.769  42.479  1.00  0.00    -0.280 N 
HETATM    6  N3  UNL     1       7.855  35.625  43.010  1.00  0.00    -0.276 N 
ATOM      7  H2  UNL     1       8.808  37.478  42.927  1.00  0.00     0.189 HD
HETATM    8  C4  UNL     1       7.101  34.947  42.140  1.00  0.00     0.197 A 
ATOM      9  H3  UNL     1       8.105  35.303  43.945  1.00  0.00     0.189 HD
HETATM   10  O2  UNL     1       7.035  35.726  41.071  1.00  0.00    -0.274 OA
BRANCH   8  11
HETATM   11  C5  UNL     1       6.475  33.642  42.304  1.00  0.00     0.154 A 
HETATM   12  N4  UNL     1       5.933  33.186  43.464  1.00  0.00    -0.234 N 
HETATM   13  O1  UNL     1       5.462  31.989  43.277  1.00  0.00    -0.155 OA
ATOM     14  H4  UNL     1       5.901  33.702  44.343  1.00  0.00     0.197 HD
HETATM   15  N5  UNL     1       5.652  31.607  42.054  1.00  0.00    -0.224 N 
HETATM   16  C6  UNL     1       6.298  32.637  41.399  1.00  0.00     0.154 A 
ATOM     17  H5  UNL     1       5.377  30.713  41.650  1.00  0.00     0.198 HD
BRANCH  16  18
HETATM   18  N6  UNL     1       6.656  32.626  40.172  1.00  0.00    -0.382 N 
ATOM     19  H62 UNL     1       7.054  33.416  39.664  1.00  0.00     0.157 HD
ATOM     20  H61 UNL     1       6.601  31.845  39.518  1.00  0.00     0.157 HD
ENDBRANCH  16  18
ENDBRANCH   8  11
ENDBRANCH   3   4
BRANCH   3  21
HETATM   21  C7  UNL     1       8.853  37.587  39.175  1.00  0.00     0.212 C 
BRANCH  21  22
HETATM   22  N7  UNL     1       8.668  38.450  38.014  1.00  0.00    -0.326 N 
HETATM   23  C8  UNL     1       8.231  37.956  36.764  1.00  0.00     0.332 C 
HETATM   24  O3  UNL     1       8.003  36.709  36.686  1.00  0.00    -0.246 OA
HETATM   25  N8  UNL     1       8.043  38.778  35.631  1.00  0.00    -0.255 N 
ATOM     26  H8  UNL     1       8.234  39.778  35.698  1.00  0.00     0.187 HD
ATOM     27  H7  UNL     1       8.860  39.448  38.107  1.00  0.00     0.165 HD
BRANCH  25  28
HETATM   28  N9  UNL     1       7.606  38.251  34.442  1.00  0.00    -0.122 NA
BRANCH  28  29
HETATM   29  C9  UNL     1       8.389  38.676  33.300  1.00  0.00     0.199 C 
HETATM   30  C10 UNL     1       7.698  38.474  31.998  1.00  0.00     0.035 C 
HETATM   31  C11 UNL     1       8.640  38.624  30.849  1.00  0.00     0.029 C 
HETATM   32  C12 UNL     1      10.016  39.082  31.196  1.00  0.00     0.178 C 
HETATM   33  O4  UNL     1      10.562  38.307  32.250  1.00  0.00    -0.320 OA
HETATM   34  C13 UNL     1       9.678  37.899  33.238  1.00  0.00     0.280 C 
HETATM   35  O5  UNL     1       9.897  36.955  34.041  1.00  0.00    -0.263 OA
ENDBRANCH  28  29
ENDBRANCH  25  28
ENDBRANCH  21  22
BRANCH  21  36
HETATM   36  C14 UNL     1      10.268  37.667  39.639  1.00  0.00     0.198 C 
HETATM   37  O6  UNL     1      11.045  38.578  39.182  1.00  0.00    -0.646 OA
HETATM   38  O7  UNL     1      10.848  36.818  40.559  1.00  0.00    -0.646 OA
ENDBRANCH  21  36
ENDBRANCH   3  21
TORSDOF 8
ENDMDL
MODEL 2
REMARK VINA RESULT: -9.482708032      3.283      7.138
REMARK  8 active torsions:
REMARK  status: ('A' for Active; 'I' for Inactive)
REMARK    1  A    between atoms: C2_3  and  C3_4 
REMARK    2  A    between atoms: C2_3  and  C7_21 
REMARK    3  A    between atoms: C4_9  and  C5_10 
REMARK    4  A    between atoms: C6_16  and  N6_17 
REMARK    5  A    between atoms: C7_21  and  N7_22 
REMARK    6  A    between atoms: C7_21  and  C14_36 
REMARK       I    between atoms: N7_22  and  C8_24 
REMARK       I    between atoms: C8_24  and  N8_26 
REMARK    7  A    between atoms: N8_26  and  N9_28 
REMARK    8  A    between atoms: N9_28  and  C9_29 
ROOT
HETATM    1  N1  UNL     1       6.286  38.610  37.836  1.00  0.00    -0.196 NA
HETATM    2  C1  UNL     1       7.023  37.755  38.004  1.00  0.00     0.075 C 
HETATM    3  C2  UNL     1       7.969  36.678  38.200  1.00  0.00     0.202 C 
ENDROOT
BRANCH   3   4
HETATM    4  C3  UNL     1       7.356  35.424  38.702  1.00  0.00     0.161 A 
HETATM    5  N2  UNL     1       6.878  34.399  37.939  1.00  0.00    -0.280 N 
HETATM    6  N3  UNL     1       6.417  33.472  38.751  1.00  0.00    -0.276 N 
ATOM      7  H2  UNL     1       6.878  34.358  36.920  1.00  0.00     0.189 HD
HETATM    8  C4  UNL     1       6.580  33.860  40.018  1.00  0.00     0.197 A 
ATOM      9  H3  UNL     1       5.998  32.590  38.456  1.00  0.00     0.189 HD
HETATM   10  O2  UNL     1       7.154  35.050  39.937  1.00  0.00    -0.274 OA
BRANCH   8  11
HETATM   11  C5  UNL     1       6.218  33.151  41.239  1.00  0.00     0.154 A 
HETATM   12  N4  UNL     1       5.674  31.907  41.277  1.00  0.00    -0.234 N 
HETATM   13  O1  UNL     1       5.468  31.565  42.514  1.00  0.00    -0.155 OA
ATOM     14  H4  UNL     1       5.460  31.331  40.463  1.00  0.00     0.197 HD
HETATM   15  N5  UNL     1       5.843  32.508  43.319  1.00  0.00    -0.224 N 
HETATM   16  C6  UNL     1       6.329  33.540  42.542  1.00  0.00     0.154 A 
ATOM     17  H5  UNL     1       5.791  32.491  44.337  1.00  0.00     0.198 HD
BRANCH  16  18
HETATM   18  N6  UNL     1       6.791  34.647  42.984  1.00  0.00    -0.382 N 
ATOM     19  H62 UNL     1       6.546  35.077  43.877  1.00  0.00     0.157 HD
ATOM     20  H61 UNL     1       7.462  35.265  42.528  1.00  0.00     0.157 HD
ENDBRANCH  16  18
ENDBRANCH   8  11
ENDBRANCH   3   4
BRANCH   3  21
HETATM   21  C7  UNL     1       9.131  37.093  39.083  1.00  0.00     0.212 C 
BRANCH  21  22
HETATM   22  N7  UNL     1       8.800  36.863  40.485  1.00  0.00    -0.326 N 
HETATM   23  C8  UNL     1       8.448  37.912  41.363  1.00  0.00     0.332 C 
HETATM   24  O3  UNL     1       8.430  39.086  40.879  1.00  0.00    -0.246 OA
HETATM   25  N8  UNL     1       8.121  37.706  42.722  1.00  0.00    -0.255 N 
ATOM     26  H8  UNL     1       8.143  36.761  43.106  1.00  0.00     0.187 HD
ATOM     27  H7  UNL     1       8.824  35.908  40.845  1.00  0.00     0.165 HD
BRANCH  25  28
HETATM   28  N9  UNL     1       7.775  38.758  43.531  1.00  0.00    -0.122 NA
BRANCH  28  29
HETATM   29  C9  UNL     1       6.358  38.819  43.824  1.00  0.00     0.199 C 
HETATM   30  C10 UNL     1       5.955  40.049  44.558  1.00  0.00     0.035 C 
HETATM   31  C11 UNL     1       4.573  39.929  45.110  1.00  0.00     0.029 C 
HETATM   32  C12 UNL     1       3.820  38.706  44.711  1.00  0.00     0.178 C 
HETATM   33  O4  UNL     1       4.594  37.537  44.923  1.00  0.00    -0.320 OA
HETATM   34  C13 UNL     1       5.955  37.646  44.680  1.00  0.00     0.280 C 
HETATM   35  O5  UNL     1       6.822  36.848  45.121  1.00  0.00    -0.263 OA
ENDBRANCH  28  29
ENDBRANCH  25  28
ENDBRANCH  21  22
BRANCH  21  36
HETATM   36  C14 UNL     1      10.391  36.375  38.740  1.00  0.00     0.198 C 
HETATM   37  O6  UNL     1      10.618  36.016  37.530  1.00  0.00    -0.646 OA
HETATM   38  O7  UNL     1      11.385  36.046  39.638  1.00  0.00    -0.646 OA
ENDBRANCH  21  36
ENDBRANCH   3  21
TORSDOF 8
ENDMDL
MODEL 3
REMARK VINA RESULT: -9.272476258      1.484      1.668
REMARK  8 active torsions:
REMARK  status: ('A' for Active; 'I' for Inactive)
REMARK    1  A    between atoms: C2_3  and  C3_4 
REMARK    2  A    between atoms: C2_3  and  C7_21 
REMARK    3  A    between atoms: C4_9  and  C5_10 
REMARK    4  A    between atoms: C6_16  and  N6_17 
REMARK    5  A    between atoms: C7_21  and  N7_22 
REMARK    6  A    between atoms: C7_21  and  C14_36 
REMARK       I    between atoms: N7_22  and  C8_24 
REMARK       I    between atoms: C8_24  and  N8_26 
REMARK    7  A    between atoms: N8_26  and  N9_28 
REMARK    8  A    between atoms: N9_28  and  C9_29 
ROOT
HETATM    1  N1  UNL     1       8.411  39.517  41.602  1.00  0.00    -0.196 NA
HETATM    2  C1  UNL     1       8.151  38.746  40.802  1.00  0.00     0.075 C 
HETATM    3  C2  UNL     1       7.814  37.784  39.775  1.00  0.00     0.202 C 
ENDROOT
BRANCH   3   4
HETATM    4  C3  UNL     1       7.384  36.466  40.305  1.00  0.00     0.161 A 
HETATM    5  N2  UNL     1       7.318  36.108  41.619  1.00  0.00    -0.280 N 
HETATM    6  N3  UNL     1       6.891  34.866  41.679  1.00  0.00    -0.276 N 
ATOM      7  H2  UNL     1       7.558  36.700  42.415  1.00  0.00     0.189 HD
HETATM    8  C4  UNL     1       6.675  34.402  40.446  1.00  0.00     0.197 A 
ATOM      9  H3  UNL     1       6.746  34.336  42.539  1.00  0.00     0.189 HD
HETATM   10  O2  UNL     1       6.988  35.410  39.646  1.00  0.00    -0.274 OA
BRANCH   8  11
HETATM   11  C5  UNL     1       6.200  33.086  40.039  1.00  0.00     0.154 A 
HETATM   12  N4  UNL     1       5.908  32.073  40.896  1.00  0.00    -0.234 N 
HETATM   13  O1  UNL     1       5.515  31.036  40.218  1.00  0.00    -0.155 OA
ATOM     14  H4  UNL     1       5.986  32.117  41.912  1.00  0.00     0.197 HD
HETATM   15  N5  UNL     1       5.521  31.290  38.948  1.00  0.00    -0.224 N 
HETATM   16  C6  UNL     1       5.954  32.591  38.792  1.00  0.00     0.154 A 
ATOM     17  H5  UNL     1       5.256  30.648  38.201  1.00  0.00     0.198 HD
BRANCH  16  18
HETATM   18  N6  UNL     1       6.092  33.198  37.676  1.00  0.00    -0.382 N 
ATOM     19  H62 UNL     1       6.980  33.486  37.264  1.00  0.00     0.157 HD
ATOM     20  H61 UNL     1       5.355  33.486  37.032  1.00  0.00     0.157 HD
ENDBRANCH  16  18
ENDBRANCH   8  11
ENDBRANCH   3   4
BRANCH   3  21
HETATM   21  C7  UNL     1       8.934  37.611  38.766  1.00  0.00     0.212 C 
BRANCH  21  22
HETATM   22  N7  UNL     1       8.821  38.617  37.716  1.00  0.00    -0.326 N 
HETATM   23  C8  UNL     1       8.146  38.370  36.500  1.00  0.00     0.332 C 
HETATM   24  O3  UNL     1       7.632  37.219  36.349  1.00  0.00    -0.246 OA
HETATM   25  N8  UNL     1       8.024  39.334  35.475  1.00  0.00    -0.255 N 
ATOM     26  H8  UNL     1       8.445  40.256  35.598  1.00  0.00     0.187 HD
ATOM     27  H7  UNL     1       9.246  39.533  37.865  1.00  0.00     0.165 HD
BRANCH  25  28
HETATM   28  N9  UNL     1       7.349  39.049  34.315  1.00  0.00    -0.122 NA
BRANCH  28  29
HETATM   29  C9  UNL     1       8.206  38.975  33.150  1.00  0.00     0.199 C 
HETATM   30  C10 UNL     1       7.925  40.029  32.138  1.00  0.00     0.035 C 
HETATM   31  C11 UNL     1       8.599  39.732  30.839  1.00  0.00     0.029 C 
HETATM   32  C12 UNL     1       9.519  38.559  30.839  1.00  0.00     0.178 C 
HETATM   33  O4  UNL     1       8.892  37.418  31.399  1.00  0.00    -0.320 OA
HETATM   34  C13 UNL     1       8.030  37.647  32.461  1.00  0.00     0.280 C 
HETATM   35  O5  UNL     1       7.153  36.834  32.853  1.00  0.00    -0.263 OA
ENDBRANCH  28  29
ENDBRANCH  25  28
ENDBRANCH  21  22
BRANCH  21  36
HETATM   36  C14 UNL     1      10.283  37.691  39.395  1.00  0.00     0.198 C 
HETATM   37  O6  UNL     1      11.078  38.650  39.095  1.00  0.00    -0.646 OA
HETATM   38  O7  UNL     1      10.782  36.792  40.316  1.00  0.00    -0.646 OA
ENDBRANCH  21  36
ENDBRANCH   3  21
TORSDOF 8
ENDMDL
MODEL 4
REMARK VINA RESULT: -9.151924787      2.719      3.815
REMARK  8 active torsions:
REMARK  status: ('A' for Active; 'I' for Inactive)
REMARK    1  A    between atoms: C2_3  and  C3_4 
REMARK    2  A    between atoms: C2_3  and  C7_21 
REMARK    3  A    between atoms: C4_9  and  C5_10 
REMARK    4  A    between atoms: C6_16  and  N6_17 
REMARK    5  A    between atoms: C7_21  and  N7_22 
REMARK    6  A    between atoms: C7_21  and  C14_36 
REMARK       I    between atoms: N7_22  and  C8_24 
REMARK       I    between atoms: C8_24  and  N8_26 
REMARK    7  A    between atoms: N8_26  and  N9_28 
REMARK    8  A    between atoms: N9_28  and  C9_29 
ROOT
HETATM    1  N1  UNL     1      11.941  35.880  37.342  1.00  0.00    -0.196 NA
HETATM    2  C1  UNL     1      11.029  36.445  37.729  1.00  0.00     0.075 C 
HETATM    3  C2  UNL     1       9.885  37.180  38.225  1.00  0.00     0.202 C 
ENDROOT
BRANCH   3   4
HETATM    4  C3  UNL     1       8.848  36.324  38.851  1.00  0.00     0.161 A 
HETATM    5  N2  UNL     1       8.301  36.495  40.089  1.00  0.00    -0.280 N 
HETATM    6  N3  UNL     1       7.421  35.536  40.278  1.00  0.00    -0.276 N 
ATOM      7  H2  UNL     1       8.533  37.236  40.751  1.00  0.00     0.189 HD
HETATM    8  C4  UNL     1       7.375  34.745  39.203  1.00  0.00     0.197 A 
ATOM      9  H3  UNL     1       6.857  35.415  41.120  1.00  0.00     0.189 HD
HETATM   10  O2  UNL     1       8.259  35.264  38.364  1.00  0.00    -0.274 OA
BRANCH   8  11
HETATM   11  C5  UNL     1       6.547  33.568  38.974  1.00  0.00     0.154 A 
HETATM   12  N4  UNL     1       6.014  33.222  37.774  1.00  0.00    -0.234 N 
HETATM   13  O1  UNL     1       5.328  32.126  37.909  1.00  0.00    -0.155 OA
ATOM     14  H4  UNL     1       6.133  33.740  36.903  1.00  0.00     0.197 HD
HETATM   15  N5  UNL     1       5.367  31.708  39.134  1.00  0.00    -0.224 N 
HETATM   16  C6  UNL     1       6.137  32.604  39.847  1.00  0.00     0.154 A 
ATOM     17  H5  UNL     1       4.913  30.873  39.503  1.00  0.00     0.198 HD
BRANCH  16  18
HETATM   18  N6  UNL     1       6.402  32.524  41.096  1.00  0.00    -0.382 N 
ATOM     19  H62 UNL     1       7.243  32.110  41.497  1.00  0.00     0.157 HD
ATOM     20  H61 UNL     1       5.829  32.853  41.873  1.00  0.00     0.157 HD
ENDBRANCH  16  18
ENDBRANCH   8  11
ENDBRANCH   3   4
BRANCH   3  21
HETATM   21  C7  UNL     1       9.270  38.066  37.157  1.00  0.00     0.212 C 
BRANCH  21  22
HETATM   22  N7  UNL     1       9.231  37.359  35.882  1.00  0.00    -0.326 N 
HETATM   23  C8  UNL     1       9.712  37.931  34.683  1.00  0.00     0.332 C 
HETATM   24  O3  UNL     1      10.188  39.106  34.757  1.00  0.00    -0.246 OA
HETATM   25  N8  UNL     1       9.685  37.259  33.441  1.00  0.00    -0.255 N 
ATOM     26  H8  UNL     1       9.296  36.318  33.387  1.00  0.00     0.187 HD
ATOM     27  H7  UNL     1       8.841  36.416  35.854  1.00  0.00     0.165 HD
BRANCH  25  28
HETATM   28  N9  UNL     1      10.175  37.855  32.307  1.00  0.00    -0.122 NA
BRANCH  28  29
HETATM   29  C9  UNL     1      11.395  37.247  31.816  1.00  0.00     0.199 C 
HETATM   30  C10 UNL     1      11.818  36.052  32.595  1.00  0.00     0.035 C 
HETATM   31  C11 UNL     1      13.219  35.652  32.264  1.00  0.00     0.029 C 
HETATM   32  C12 UNL     1      13.859  36.400  31.146  1.00  0.00     0.178 C 
HETATM   33  O4  UNL     1      13.721  37.800  31.323  1.00  0.00    -0.320 OA
HETATM   34  C13 UNL     1      12.529  38.237  31.881  1.00  0.00     0.280 C 
HETATM   35  O5  UNL     1      12.364  39.366  32.411  1.00  0.00    -0.263 OA
ENDBRANCH  28  29
ENDBRANCH  25  28
ENDBRANCH  21  22
BRANCH  21  36
HETATM   36  C14 UNL     1       7.899  38.524  37.520  1.00  0.00     0.198 C 
HETATM   37  O6  UNL     1       6.923  38.342  36.709  1.00  0.00    -0.646 OA
HETATM   38  O7  UNL     1       7.560  39.152  38.701  1.00  0.00    -0.646 OA
ENDBRANCH  21  36
ENDBRANCH   3  21
TORSDOF 8
ENDMDL
MODEL 5
REMARK VINA RESULT: -9.132201377      2.552      3.529
REMARK  8 active torsions:
REMARK  status: ('A' for Active; 'I' for Inactive)
REMARK    1  A    between atoms: C2_3  and  C3_4 
REMARK    2  A    between atoms: C2_3  and  C7_21 
REMARK    3  A    between atoms: C4_9  and  C5_10 
REMARK    4  A    between atoms: C6_16  and  N6_17 
REMARK    5  A    between atoms: C7_21  and  N7_22 
REMARK    6  A    between atoms: C7_21  and  C14_36 
REMARK       I    between atoms: N7_22  and  C8_24 
REMARK       I    between atoms: C8_24  and  N8_26 
REMARK    7  A    between atoms: N8_26  and  N9_28 
REMARK    8  A    between atoms: N9_28  and  C9_29 
ROOT
HETATM    1  N1  UNL     1      11.714  35.845  37.485  1.00  0.00    -0.196 NA
HETATM    2  C1  UNL     1      10.836  36.441  37.903  1.00  0.00     0.075 C 
HETATM    3  C2  UNL     1       9.736  37.215  38.436  1.00  0.00     0.202 C 
ENDROOT
BRANCH   3   4
HETATM    4  C3  UNL     1       8.734  36.405  39.173  1.00  0.00     0.161 A 
HETATM    5  N2  UNL     1       8.157  36.726  40.366  1.00  0.00    -0.280 N 
HETATM    6  N3  UNL     1       7.325  35.759  40.687  1.00  0.00    -0.276 N 
ATOM      7  H2  UNL     1       8.338  37.568  40.913  1.00  0.00     0.189 HD
HETATM    8  C4  UNL     1       7.341  34.817  39.741  1.00  0.00     0.197 A 
ATOM      9  H3  UNL     1       6.754  35.732  41.531  1.00  0.00     0.189 HD
HETATM   10  O2  UNL     1       8.211  35.254  38.843  1.00  0.00    -0.274 OA
BRANCH   8  11
HETATM   11  C5  UNL     1       6.581  33.575  39.681  1.00  0.00     0.154 A 
HETATM   12  N4  UNL     1       6.207  32.847  40.764  1.00  0.00    -0.234 N 
HETATM   13  O1  UNL     1       5.547  31.798  40.370  1.00  0.00    -0.155 OA
ATOM     14  H4  UNL     1       6.411  33.085  41.735  1.00  0.00     0.197 HD
HETATM   15  N5  UNL     1       5.451  31.775  39.079  1.00  0.00    -0.224 N 
HETATM   16  C6  UNL     1       6.101  32.895  38.600  1.00  0.00     0.154 A 
ATOM     17  H5  UNL     1       4.984  31.062  38.520  1.00  0.00     0.198 HD
BRANCH  16  18
HETATM   18  N6  UNL     1       6.219  33.213  37.368  1.00  0.00    -0.382 N 
ATOM     19  H62 UNL     1       5.757  34.001  36.913  1.00  0.00     0.157 HD
ATOM     20  H61 UNL     1       6.779  32.743  36.657  1.00  0.00     0.157 HD
ENDBRANCH  16  18
ENDBRANCH   8  11
ENDBRANCH   3   4
BRANCH   3  21
HETATM   21  C7  UNL     1       9.060  38.056  37.370  1.00  0.00     0.212 C 
BRANCH  21  22
HETATM   22  N7  UNL     1       9.053  37.341  36.099  1.00  0.00    -0.326 N 
HETATM   23  C8  UNL     1       9.551  37.911  34.906  1.00  0.00     0.332 C 
HETATM   24  O3  UNL     1      10.012  39.091  34.980  1.00  0.00    -0.246 OA
HETATM   25  N8  UNL     1       9.555  37.231  33.668  1.00  0.00    -0.255 N 
ATOM     26  H8  UNL     1       9.177  36.285  33.612  1.00  0.00     0.187 HD
ATOM     27  H7  UNL     1       8.674  36.394  36.070  1.00  0.00     0.165 HD
BRANCH  25  28
HETATM   28  N9  UNL     1      10.060  37.824  32.539  1.00  0.00    -0.122 NA
BRANCH  28  29
HETATM   29  C9  UNL     1      11.257  37.183  32.036  1.00  0.00     0.199 C 
HETATM   30  C10 UNL     1      11.684  36.006  32.839  1.00  0.00     0.035 C 
HETATM   31  C11 UNL     1      13.069  35.574  32.484  1.00  0.00     0.029 C 
HETATM   32  C12 UNL     1      13.690  36.278  31.326  1.00  0.00     0.178 C 
HETATM   33  O4  UNL     1      13.577  37.685  31.463  1.00  0.00    -0.320 OA
HETATM   34  C13 UNL     1      12.407  38.157  32.039  1.00  0.00     0.280 C 
HETATM   35  O5  UNL     1      12.273  39.304  32.537  1.00  0.00    -0.263 OA
ENDBRANCH  28  29
ENDBRANCH  25  28
ENDBRANCH  21  22
BRANCH  21  36
HETATM   36  C14 UNL     1       7.666  38.433  37.742  1.00  0.00     0.198 C 
HETATM   37  O6  UNL     1       6.672  37.935  37.103  1.00  0.00    -0.646 OA
HETATM   38  O7  UNL     1       7.325  39.302  38.757  1.00  0.00    -0.646 OA
ENDBRANCH  21  36
ENDBRANCH   3  21
TORSDOF 8
ENDMDL
