MODEL 1
REMARK VINA RESULT: -9.423863377      0.000      0.000
REMARK  10 active torsions:
REMARK  status: ('A' for Active; 'I' for Inactive)
REMARK    1  A    between atoms: C3_5  and  N2_6 
REMARK    2  A    between atoms: N2_6  and  N3_8 
REMARK    3  A    between atoms: C4_10  and  C5_11 
REMARK    4  A    between atoms: C4_10  and  N8_21 
REMARK    5  A    between atoms: C5_11  and  S1_12 
REMARK    6  A    between atoms: S1_12  and  C6_13 
REMARK    7  A    between atoms: N8_21  and  N9_23 
REMARK    8  A    between atoms: C7_25  and  C8_26 
REMARK    9  A    between atoms: C9_27  and  O1_28 
REMARK   10  A    between atoms: C12_38  and  O3_39 
ROOT
HETATM    1  N3  UNL     1       8.258  36.960  41.341  1.00  0.00    -0.273 N 
ATOM      2  H3  UNL     1       9.194  36.557  41.388  1.00  0.00     0.189 HD
HETATM    3  C4  UNL     1       8.091  38.061  40.764  1.00  0.00     0.120 C 
ENDROOT
BRANCH   3   4
HETATM    4  C5  UNL     1       6.781  38.709  40.656  1.00  0.00     0.161 C 
BRANCH   4   5
HETATM    5  S1  UNL     1       6.255  39.413  42.252  1.00  0.00    -0.084 SA
BRANCH   5   6
HETATM    6  C6  UNL     1       7.467  40.662  42.695  1.00  0.00     0.173 A 
HETATM    7  N4  UNL     1       7.753  41.006  43.940  1.00  0.00    -0.266 N 
HETATM    8  N5  UNL     1       8.676  41.945  43.914  1.00  0.00    -0.224 N 
ATOM      9  H4  UNL     1       7.330  40.610  44.779  1.00  0.00     0.190 HD
HETATM   10  N6  UNL     1       8.961  42.183  42.640  1.00  0.00    -0.005 NA
ATOM     11  H5  UNL     1       9.094  42.405  44.723  1.00  0.00     0.205 HD
HETATM   12  N7  UNL     1       8.225  41.401  41.847  1.00  0.00    -0.261 N 
ATOM     13  H7  UNL     1       8.231  41.367  40.827  1.00  0.00     0.186 HD
ENDBRANCH   5   6
ENDBRANCH   4   5
ENDBRANCH   3   4
BRANCH   3  14
HETATM   14  N8  UNL     1       9.222  38.726  40.162  1.00  0.00    -0.288 N 
ATOM     15  H8  UNL     1       9.285  39.739  40.262  1.00  0.00     0.188 HD
BRANCH  14  16
HETATM   16  N9  UNL     1      10.193  38.108  39.483  1.00  0.00    -0.308 N 
HETATM   17  C7  UNL     1      10.575  37.930  38.338  1.00  0.00     0.141 C 
ATOM     18  H9  UNL     1      10.818  37.630  40.132  1.00  0.00     0.186 HD
BRANCH  17  19
HETATM   19  C8  UNL     1      10.042  38.395  37.070  1.00  0.00     0.106 A 
HETATM   20  C9  UNL     1      10.578  39.226  36.139  1.00  0.00     0.173 A 
HETATM   21  N10 UNL     1       9.702  39.376  35.112  1.00  0.00    -0.287 N 
HETATM   22  C10 UNL     1       8.637  38.642  35.412  1.00  0.00     0.328 A 
ATOM     23  H10 UNL     1       9.836  39.943  34.274  1.00  0.00     0.172 HD
HETATM   24  O2  UNL     1       7.624  38.571  34.633  1.00  0.00    -0.246 OA
HETATM   25  N11 UNL     1       8.813  38.035  36.594  1.00  0.00    -0.299 N 
HETATM   26  C11 UNL     1       7.863  37.161  37.244  1.00  0.00     0.161 C 
BRANCH  20  27
HETATM   27  O1  UNL     1      11.794  39.866  36.132  1.00  0.00    -0.344 OA
ATOM     28  H1  UNL     1      12.110  40.562  35.568  1.00  0.00     0.219 HD
ENDBRANCH  20  27
ENDBRANCH  17  19
ENDBRANCH  14  16
ENDBRANCH   3  14
BRANCH   1  29
HETATM   29  N2  UNL     1       7.197  36.280  41.916  1.00  0.00    -0.130 N 
ATOM     30  H2  UNL     1       6.679  36.691  42.693  1.00  0.00     0.205 HD
BRANCH  29  31
HETATM   31  C3  UNL     1       6.875  35.115  41.451  1.00  0.00     0.699 A 
HETATM   32  N1  UNL     1       6.832  34.940  40.098  1.00  0.00    -0.194 N 
HETATM   33  C2  UNL     1       6.508  33.760  39.563  1.00  0.00     0.033 A 
ATOM     34  H1  UNL     1       7.053  35.724  39.485  1.00  0.00     0.184 HD
HETATM   35  C1  UNL     1       6.487  33.653  38.084  1.00  0.00     0.069 C 
HETATM   36  C13 UNL     1       6.198  32.660  40.363  1.00  0.00     0.012 A 
HETATM   37  C12 UNL     1       6.241  32.842  41.716  1.00  0.00     0.163 A 
HETATM   38  C14 UNL     1       5.851  31.394  39.689  1.00  0.00     0.055 C 
HETATM   39  N12 UNL     1       6.576  34.052  42.213  1.00  0.00    -0.169 N 
ATOM     40  H12 UNL     1       6.602  34.165  43.225  1.00  0.00     0.186 HD
BRANCH  37  41
HETATM   41  O3  UNL     1       5.939  31.773  42.554  1.00  0.00    -0.345 OA
ATOM     42  H3  UNL     1       5.574  30.965  42.213  1.00  0.00     0.219 HD
ENDBRANCH  37  41
ENDBRANCH  29  31
ENDBRANCH   1  29
TORSDOF 10
ENDMDL
MODEL 2
REMARK VINA RESULT: -9.342126554      1.402      1.792
REMARK  10 active torsions:
REMARK  status: ('A' for Active; 'I' for Inactive)
REMARK    1  A    between atoms: C3_5  and  N2_6 
REMARK    2  A    between atoms: N2_6  and  N3_8 
REMARK    3  A    between atoms: C4_10  and  C5_11 
REMARK    4  A    between atoms: C4_10  and  N8_21 
REMARK    5  A    between atoms: C5_11  and  S1_12 
REMARK    6  A    between atoms: S1_12  and  C6_13 
REMARK    7  A    between atoms: N8_21  and  N9_23 
REMARK    8  A    between atoms: C7_25  and  C8_26 
REMARK    9  A    between atoms: C9_27  and  O1_28 
REMARK   10  A    between atoms: C12_38  and  O3_39 
ROOT
HETATM    1  N3  UNL     1       7.525  37.251  40.684  1.00  0.00    -0.273 N 
ATOM      2  H3  UNL     1       8.227  37.067  39.968  1.00  0.00     0.189 HD
HETATM    3  C4  UNL     1       6.920  38.350  40.683  1.00  0.00     0.120 C 
ENDROOT
BRANCH   3   4
HETATM    4  C5  UNL     1       5.899  38.694  41.677  1.00  0.00     0.161 C 
BRANCH   4   5
HETATM    5  S1  UNL     1       5.666  40.498  41.793  1.00  0.00    -0.084 SA
BRANCH   5   6
HETATM    6  C6  UNL     1       7.147  41.167  42.558  1.00  0.00     0.173 A 
HETATM    7  N4  UNL     1       7.351  41.204  43.864  1.00  0.00    -0.266 N 
HETATM    8  N5  UNL     1       8.526  41.755  44.089  1.00  0.00    -0.224 N 
ATOM      9  H4  UNL     1       6.706  40.865  44.577  1.00  0.00     0.190 HD
HETATM   10  N6  UNL     1       9.051  42.060  42.909  1.00  0.00    -0.005 NA
ATOM     11  H5  UNL     1       8.953  41.918  45.001  1.00  0.00     0.205 HD
HETATM   12  N7  UNL     1       8.218  41.708  41.927  1.00  0.00    -0.261 N 
ATOM     13  H7  UNL     1       8.357  41.821  40.923  1.00  0.00     0.186 HD
ENDBRANCH   5   6
ENDBRANCH   4   5
ENDBRANCH   3   4
BRANCH   3  14
HETATM   14  N8  UNL     1       7.216  39.323  39.658  1.00  0.00    -0.288 N 
ATOM     15  H8  UNL     1       7.669  40.191  39.946  1.00  0.00     0.188 HD
BRANCH  14  16
HETATM   16  N9  UNL     1       6.941  39.167  38.361  1.00  0.00    -0.308 N 
HETATM   17  C7  UNL     1       7.458  38.773  37.329  1.00  0.00     0.141 C 
ATOM     18  H9  UNL     1       5.988  39.479  38.171  1.00  0.00     0.186 HD
BRANCH  17  19
HETATM   19  C8  UNL     1       8.780  38.233  37.070  1.00  0.00     0.106 A 
HETATM   20  C9  UNL     1       9.848  38.078  37.896  1.00  0.00     0.173 A 
HETATM   21  N10 UNL     1      10.878  37.529  37.201  1.00  0.00    -0.287 N 
HETATM   22  C10 UNL     1      10.445  37.349  35.958  1.00  0.00     0.328 A 
ATOM     23  H10 UNL     1      11.805  37.300  37.563  1.00  0.00     0.172 HD
HETATM   24  O2  UNL     1      11.189  36.842  35.050  1.00  0.00    -0.246 OA
HETATM   25  N11 UNL     1       9.176  37.767  35.848  1.00  0.00    -0.299 N 
HETATM   26  C11 UNL     1       8.378  37.732  34.643  1.00  0.00     0.161 C 
BRANCH  20  27
HETATM   27  O1  UNL     1       9.977  38.388  39.228  1.00  0.00    -0.344 OA
ATOM     28  H1  UNL     1      10.116  39.231  39.644  1.00  0.00     0.219 HD
ENDBRANCH  20  27
ENDBRANCH  17  19
ENDBRANCH  14  16
ENDBRANCH   3  14
BRANCH   1  29
HETATM   29  N2  UNL     1       7.258  36.283  41.637  1.00  0.00    -0.130 N 
ATOM     30  H2  UNL     1       7.339  36.498  42.631  1.00  0.00     0.205 HD
BRANCH  29  31
HETATM   31  C3  UNL     1       6.902  35.100  41.246  1.00  0.00     0.699 A 
HETATM   32  N1  UNL     1       6.814  34.853  39.906  1.00  0.00    -0.194 N 
HETATM   33  C2  UNL     1       6.455  33.652  39.446  1.00  0.00     0.033 A 
ATOM     34  H1  UNL     1       7.027  35.600  39.245  1.00  0.00     0.184 HD
HETATM   35  C1  UNL     1       6.385  33.467  37.977  1.00  0.00     0.069 C 
HETATM   36  C13 UNL     1       6.154  32.603  40.314  1.00  0.00     0.012 A 
HETATM   37  C12 UNL     1       6.243  32.856  41.652  1.00  0.00     0.163 A 
HETATM   38  C14 UNL     1       5.765  31.308  39.721  1.00  0.00     0.055 C 
HETATM   39  N12 UNL     1       6.611  34.085  42.073  1.00  0.00    -0.169 N 
ATOM     40  H12 UNL     1       6.672  34.252  43.077  1.00  0.00     0.186 HD
BRANCH  37  41
HETATM   41  O3  UNL     1       5.950  31.838  42.556  1.00  0.00    -0.345 OA
ATOM     42  H3  UNL     1       5.208  31.899  43.145  1.00  0.00     0.219 HD
ENDBRANCH  37  41
ENDBRANCH  29  31
ENDBRANCH   1  29
TORSDOF 10
ENDMDL
MODEL 3
REMARK VINA RESULT: -9.248158477      1.871      6.078
REMARK  10 active torsions:
REMARK  status: ('A' for Active; 'I' for Inactive)
REMARK    1  A    between atoms: C3_5  and  N2_6 
REMARK    2  A    between atoms: N2_6  and  N3_8 
REMARK    3  A    between atoms: C4_10  and  C5_11 
REMARK    4  A    between atoms: C4_10  and  N8_21 
REMARK    5  A    between atoms: C5_11  and  S1_12 
REMARK    6  A    between atoms: S1_12  and  C6_13 
REMARK    7  A    between atoms: N8_21  and  N9_23 
REMARK    8  A    between atoms: C7_25  and  C8_26 
REMARK    9  A    between atoms: C9_27  and  O1_28 
REMARK   10  A    between atoms: C12_38  and  O3_39 
ROOT
HETATM    1  N3  UNL     1       9.312  37.261  40.933  1.00  0.00    -0.273 N 
ATOM      2  H3  UNL     1       9.980  36.492  40.899  1.00  0.00     0.189 HD
HETATM    3  C4  UNL     1       8.412  37.256  41.808  1.00  0.00     0.120 C 
ENDROOT
BRANCH   3   4
HETATM    4  C5  UNL     1       7.412  38.322  41.923  1.00  0.00     0.161 C 
BRANCH   4   5
HETATM    5  S1  UNL     1       7.603  39.247  43.480  1.00  0.00    -0.084 SA
BRANCH   5   6
HETATM    6  C6  UNL     1       8.150  40.900  43.040  1.00  0.00     0.173 A 
HETATM    7  N4  UNL     1       8.360  41.867  43.917  1.00  0.00    -0.266 N 
HETATM    8  N5  UNL     1       8.750  42.945  43.268  1.00  0.00    -0.224 N 
ATOM      9  H4  UNL     1       8.241  41.791  44.927  1.00  0.00     0.190 HD
HETATM   10  N6  UNL     1       8.779  42.639  41.977  1.00  0.00    -0.005 NA
ATOM     11  H5  UNL     1       8.984  43.848  43.681  1.00  0.00     0.205 HD
HETATM   12  N7  UNL     1       8.410  41.369  41.794  1.00  0.00    -0.261 N 
ATOM     13  H7  UNL     1       8.339  40.863  40.911  1.00  0.00     0.186 HD
ENDBRANCH   5   6
ENDBRANCH   4   5
ENDBRANCH   3   4
BRANCH   3  14
HETATM   14  N8  UNL     1       8.353  36.172  42.759  1.00  0.00    -0.288 N 
ATOM     15  H8  UNL     1       9.234  35.816  43.128  1.00  0.00     0.188 HD
BRANCH  14  16
HETATM   16  N9  UNL     1       7.224  35.602  43.190  1.00  0.00    -0.308 N 
HETATM   17  C7  UNL     1       6.420  34.744  42.867  1.00  0.00     0.141 C 
ATOM     18  H9  UNL     1       6.944  36.019  44.078  1.00  0.00     0.186 HD
BRANCH  17  19
HETATM   19  C8  UNL     1       6.369  33.870  41.709  1.00  0.00     0.106 A 
HETATM   20  C9  UNL     1       6.705  34.102  40.413  1.00  0.00     0.173 A 
HETATM   21  N10 UNL     1       6.482  32.979  39.682  1.00  0.00    -0.287 N 
HETATM   22  C10 UNL     1       6.013  32.065  40.525  1.00  0.00     0.328 A 
ATOM     23  H10 UNL     1       6.642  32.860  38.681  1.00  0.00     0.172 HD
HETATM   24  O2  UNL     1       5.703  30.886  40.139  1.00  0.00    -0.246 OA
HETATM   25  N11 UNL     1       5.933  32.576  41.761  1.00  0.00    -0.299 N 
HETATM   26  C11 UNL     1       5.461  31.876  42.935  1.00  0.00     0.161 C 
BRANCH  20  27
HETATM   27  O1  UNL     1       7.199  35.242  39.826  1.00  0.00    -0.344 OA
ATOM     28  H1  UNL     1       6.734  35.963  39.416  1.00  0.00     0.219 HD
ENDBRANCH  20  27
ENDBRANCH  17  19
ENDBRANCH  14  16
ENDBRANCH   3  14
BRANCH   1  29
HETATM   29  N2  UNL     1       9.416  38.291  40.013  1.00  0.00    -0.130 N 
ATOM     30  H2  UNL     1       9.270  39.259  40.300  1.00  0.00     0.205 HD
BRANCH  29  31
HETATM   31  C3  UNL     1       9.701  38.004  38.782  1.00  0.00     0.699 A 
HETATM   32  N1  UNL     1       9.084  38.705  37.787  1.00  0.00    -0.194 N 
HETATM   33  C2  UNL     1       9.341  38.453  36.501  1.00  0.00     0.033 A 
ATOM     34  H1  UNL     1       8.415  39.435  38.030  1.00  0.00     0.184 HD
HETATM   35  C1  UNL     1       8.630  39.261  35.482  1.00  0.00     0.069 C 
HETATM   36  C13 UNL     1      10.248  37.463  36.122  1.00  0.00     0.012 A 
HETATM   37  C12 UNL     1      10.861  36.764  37.123  1.00  0.00     0.163 A 
HETATM   38  C14 UNL     1      10.473  37.250  34.680  1.00  0.00     0.055 C 
HETATM   39  N12 UNL     1      10.571  37.054  38.409  1.00  0.00    -0.169 N 
ATOM     40  H12 UNL     1      11.041  36.520  39.140  1.00  0.00     0.186 HD
BRANCH  37  41
HETATM   41  O3  UNL     1      11.773  35.765  36.793  1.00  0.00    -0.345 OA
ATOM     42  H3  UNL     1      11.490  34.876  36.617  1.00  0.00     0.219 HD
ENDBRANCH  37  41
ENDBRANCH  29  31
ENDBRANCH   1  29
TORSDOF 10
ENDMDL
MODEL 4
REMARK VINA RESULT: -9.245185033      0.910      1.514
REMARK  10 active torsions:
REMARK  status: ('A' for Active; 'I' for Inactive)
REMARK    1  A    between atoms: C3_5  and  N2_6 
REMARK    2  A    between atoms: N2_6  and  N3_8 
REMARK    3  A    between atoms: C4_10  and  C5_11 
REMARK    4  A    between atoms: C4_10  and  N8_21 
REMARK    5  A    between atoms: C5_11  and  S1_12 
REMARK    6  A    between atoms: S1_12  and  C6_13 
REMARK    7  A    between atoms: N8_21  and  N9_23 
REMARK    8  A    between atoms: C7_25  and  C8_26 
REMARK    9  A    between atoms: C9_27  and  O1_28 
REMARK   10  A    between atoms: C12_38  and  O3_39 
ROOT
HETATM    1  N3  UNL     1       8.290  36.964  41.254  1.00  0.00    -0.273 N 
ATOM      2  H3  UNL     1       9.226  36.582  41.391  1.00  0.00     0.189 HD
HETATM    3  C4  UNL     1       8.146  38.016  40.586  1.00  0.00     0.120 C 
ENDROOT
BRANCH   3   4
HETATM    4  C5  UNL     1       6.837  38.631  40.347  1.00  0.00     0.161 C 
BRANCH   4   5
HETATM    5  S1  UNL     1       6.169  39.383  41.866  1.00  0.00    -0.084 SA
BRANCH   5   6
HETATM    6  C6  UNL     1       7.425  40.507  42.486  1.00  0.00     0.173 A 
HETATM    7  N4  UNL     1       7.745  40.625  43.763  1.00  0.00    -0.266 N 
HETATM    8  N5  UNL     1       8.695  41.532  43.876  1.00  0.00    -0.224 N 
ATOM      9  H4  UNL     1       7.328  40.101  44.532  1.00  0.00     0.190 HD
HETATM   10  N6  UNL     1       8.961  41.977  42.655  1.00  0.00    -0.005 NA
ATOM     11  H5  UNL     1       9.142  41.835  44.741  1.00  0.00     0.205 HD
HETATM   12  N7  UNL     1       8.186  41.362  41.758  1.00  0.00    -0.261 N 
ATOM     13  H7  UNL     1       8.171  41.503  40.748  1.00  0.00     0.186 HD
ENDBRANCH   5   6
ENDBRANCH   4   5
ENDBRANCH   3   4
BRANCH   3  14
HETATM   14  N8  UNL     1       9.305  38.654  40.009  1.00  0.00    -0.288 N 
ATOM     15  H8  UNL     1       9.468  39.635  40.236  1.00  0.00     0.188 HD
BRANCH  14  16
HETATM   16  N9  UNL     1      10.180  38.051  39.199  1.00  0.00    -0.308 N 
HETATM   17  C7  UNL     1      10.375  37.841  38.014  1.00  0.00     0.141 C 
ATOM     18  H9  UNL     1      10.926  37.629  39.752  1.00  0.00     0.186 HD
BRANCH  17  19
HETATM   19  C8  UNL     1       9.617  38.228  36.838  1.00  0.00     0.106 A 
HETATM   20  C9  UNL     1       8.435  37.762  36.358  1.00  0.00     0.173 A 
HETATM   21  N10 UNL     1       8.119  38.429  35.217  1.00  0.00    -0.287 N 
HETATM   22  C10 UNL     1       9.101  39.298  35.001  1.00  0.00     0.328 A 
ATOM     23  H10 UNL     1       7.290  38.290  34.639  1.00  0.00     0.172 HD
HETATM   24  O2  UNL     1       9.097  40.085  33.993  1.00  0.00    -0.246 OA
HETATM   25  N11 UNL     1      10.024  39.199  35.967  1.00  0.00    -0.299 N 
HETATM   26  C11 UNL     1      11.237  39.982  36.059  1.00  0.00     0.161 C 
BRANCH  20  27
HETATM   27  O1  UNL     1       7.610  36.784  36.858  1.00  0.00    -0.344 OA
ATOM     28  H1  UNL     1       6.999  36.819  37.585  1.00  0.00     0.219 HD
ENDBRANCH  20  27
ENDBRANCH  17  19
ENDBRANCH  14  16
ENDBRANCH   3  14
BRANCH   1  29
HETATM   29  N2  UNL     1       7.203  36.310  41.810  1.00  0.00    -0.130 N 
ATOM     30  H2  UNL     1       6.662  36.746  42.557  1.00  0.00     0.205 HD
BRANCH  29  31
HETATM   31  C3  UNL     1       6.885  35.135  41.366  1.00  0.00     0.699 A 
HETATM   32  N1  UNL     1       6.822  34.941  40.017  1.00  0.00    -0.194 N 
HETATM   33  C2  UNL     1       6.502  33.751  39.502  1.00  0.00     0.033 A 
ATOM     34  H1  UNL     1       7.024  35.719  39.389  1.00  0.00     0.184 HD
HETATM   35  C1  UNL     1       6.458  33.624  38.026  1.00  0.00     0.069 C 
HETATM   36  C13 UNL     1       6.217  32.659  40.323  1.00  0.00     0.012 A 
HETATM   37  C12 UNL     1       6.281  32.859  41.672  1.00  0.00     0.163 A 
HETATM   38  C14 UNL     1       5.872  31.380  39.672  1.00  0.00     0.055 C 
HETATM   39  N12 UNL     1       6.610  34.080  42.147  1.00  0.00    -0.169 N 
ATOM     40  H12 UNL     1       6.652  34.207  43.157  1.00  0.00     0.186 HD
BRANCH  37  41
HETATM   41  O3  UNL     1       6.004  31.799  42.529  1.00  0.00    -0.345 OA
ATOM     42  H3  UNL     1       6.659  31.464  43.128  1.00  0.00     0.219 HD
ENDBRANCH  37  41
ENDBRANCH  29  31
ENDBRANCH   1  29
TORSDOF 10
ENDMDL
MODEL 5
REMARK VINA RESULT: -9.114372159      2.842      5.530
REMARK  10 active torsions:
REMARK  status: ('A' for Active; 'I' for Inactive)
REMARK    1  A    between atoms: C3_5  and  N2_6 
REMARK    2  A    between atoms: N2_6  and  N3_8 
REMARK    3  A    between atoms: C4_10  and  C5_11 
REMARK    4  A    between atoms: C4_10  and  N8_21 
REMARK    5  A    between atoms: C5_11  and  S1_12 
REMARK    6  A    between atoms: S1_12  and  C6_13 
REMARK    7  A    between atoms: N8_21  and  N9_23 
REMARK    8  A    between atoms: C7_25  and  C8_26 
REMARK    9  A    between atoms: C9_27  and  O1_28 
REMARK   10  A    between atoms: C12_38  and  O3_39 
ROOT
HETATM    1  N3  UNL     1       6.910  37.177  38.263  1.00  0.00    -0.273 N 
ATOM      2  H3  UNL     1       6.301  37.530  39.001  1.00  0.00     0.189 HD
HETATM    3  C4  UNL     1       7.491  37.989  37.504  1.00  0.00     0.120 C 
ENDROOT
BRANCH   3   4
HETATM    4  C5  UNL     1       8.380  37.563  36.419  1.00  0.00     0.161 C 
BRANCH   4   5
HETATM    5  S1  UNL     1      10.101  38.073  36.730  1.00  0.00    -0.084 SA
BRANCH   5   6
HETATM    6  C6  UNL     1      10.892  36.726  37.616  1.00  0.00     0.173 A 
HETATM    7  N4  UNL     1      11.850  35.969  37.108  1.00  0.00    -0.266 N 
HETATM    8  N5  UNL     1      12.206  35.080  38.013  1.00  0.00    -0.224 N 
ATOM      9  H4  UNL     1      12.248  36.060  36.174  1.00  0.00     0.190 HD
HETATM   10  N6  UNL     1      11.458  35.290  39.089  1.00  0.00    -0.005 NA
ATOM     11  H5  UNL     1      12.923  34.362  37.905  1.00  0.00     0.205 HD
HETATM   12  N7  UNL     1      10.623  36.311  38.879  1.00  0.00    -0.261 N 
ATOM     13  H7  UNL     1       9.934  36.694  39.527  1.00  0.00     0.186 HD
ENDBRANCH   5   6
ENDBRANCH   4   5
ENDBRANCH   3   4
BRANCH   3  14
HETATM   14  N8  UNL     1       7.302  39.406  37.701  1.00  0.00    -0.288 N 
ATOM     15  H8  UNL     1       7.905  40.042  37.180  1.00  0.00     0.188 HD
BRANCH  14  16
HETATM   16  N9  UNL     1       6.391  39.944  38.518  1.00  0.00    -0.308 N 
HETATM   17  C7  UNL     1       6.064  39.944  39.693  1.00  0.00     0.141 C 
ATOM     18  H9  UNL     1       5.768  40.551  37.986  1.00  0.00     0.186 HD
BRANCH  17  19
HETATM   19  C8  UNL     1       6.624  39.255  40.841  1.00  0.00     0.106 A 
HETATM   20  C9  UNL     1       7.879  38.780  41.058  1.00  0.00     0.173 A 
HETATM   21  N10 UNL     1       7.933  38.200  42.286  1.00  0.00    -0.287 N 
HETATM   22  C10 UNL     1       6.720  38.320  42.816  1.00  0.00     0.328 A 
ATOM     23  H10 UNL     1       8.746  37.758  42.716  1.00  0.00     0.172 HD
HETATM   24  O2  UNL     1       6.445  37.869  43.981  1.00  0.00    -0.246 OA
HETATM   25  N11 UNL     1       5.905  38.955  41.963  1.00  0.00    -0.299 N 
HETATM   26  C11 UNL     1       4.511  39.259  42.195  1.00  0.00     0.161 C 
BRANCH  20  27
HETATM   27  O1  UNL     1       8.985  38.822  40.245  1.00  0.00    -0.344 OA
ATOM     28  H1  UNL     1       9.848  39.185  40.413  1.00  0.00     0.219 HD
ENDBRANCH  20  27
ENDBRANCH  17  19
ENDBRANCH  14  16
ENDBRANCH   3  14
BRANCH   1  29
HETATM   29  N2  UNL     1       7.078  35.809  38.120  1.00  0.00    -0.130 N 
ATOM     30  H2  UNL     1       7.355  35.413  37.222  1.00  0.00     0.205 HD
BRANCH  29  31
HETATM   31  C3  UNL     1       6.878  35.043  39.146  1.00  0.00     0.699 A 
HETATM   32  N1  UNL     1       6.422  33.775  38.936  1.00  0.00    -0.194 N 
HETATM   33  C2  UNL     1       6.201  32.941  39.956  1.00  0.00     0.033 A 
ATOM     34  H1  UNL     1       6.248  33.457  37.983  1.00  0.00     0.184 HD
HETATM   35  C1  UNL     1       5.708  31.579  39.642  1.00  0.00     0.069 C 
HETATM   36  C13 UNL     1       6.425  33.334  41.276  1.00  0.00     0.012 A 
HETATM   37  C12 UNL     1       6.879  34.605  41.479  1.00  0.00     0.163 A 
HETATM   38  C14 UNL     1       6.154  32.350  42.342  1.00  0.00     0.055 C 
HETATM   39  N12 UNL     1       7.091  35.412  40.418  1.00  0.00    -0.169 N 
ATOM     40  H12 UNL     1       7.432  36.357  40.593  1.00  0.00     0.186 HD
BRANCH  37  41
HETATM   41  O3  UNL     1       7.116  35.041  42.780  1.00  0.00    -0.345 OA
ATOM     42  H3  UNL     1       7.544  34.483  43.418  1.00  0.00     0.219 HD
ENDBRANCH  37  41
ENDBRANCH  29  31
ENDBRANCH   1  29
TORSDOF 10
ENDMDL
