MODEL 1
REMARK VINA RESULT: -7.038419163      0.000      0.000
REMARK  13 active torsions:
REMARK  status: ('A' for Active; 'I' for Inactive)
REMARK    1  A    between atoms: N1_1  and  C1_4 
REMARK    2  A    between atoms: C4_12  and  N4_13 
REMARK    3  A    between atoms: N4_13  and  C5_15 
REMARK    4  A    between atoms: C6_17  and  C7_18 
REMARK    5  A    between atoms: C7_18  and  O3_19 
REMARK    6  A    between atoms: C8_21  and  O4_22 
REMARK    7  A    between atoms: C9_24  and  O5_25 
REMARK    8  A    between atoms: C9_24  and  C10_27 
REMARK    9  A    between atoms: C10_27  and  O6_28 
REMARK   10  A    between atoms: C11_30  and  N5_31 
REMARK   11  A    between atoms: N5_31  and  N6_33 
REMARK   12  A    between atoms: N6_33  and  C12_35 
REMARK   13  A    between atoms: N9_41  and  N10_42 
ROOT
HETATM    1  C1  UNL     1      23.798  37.598   5.287  1.00  0.00     0.679 A 
HETATM    2  N2  UNL     1      23.753  37.440   6.619  1.00  0.00    -0.154 N 
ATOM      3  H2  UNL     1      24.284  38.042   7.247  1.00  0.00     0.187 HD
HETATM    4  C2  UNL     1      22.973  36.451   7.084  1.00  0.00     0.288 A 
HETATM    5  O1  UNL     1      22.864  36.222   8.325  1.00  0.00    -0.265 OA
HETATM    6  C3  UNL     1      22.248  35.633   6.231  1.00  0.00     0.133 A 
HETATM    7  N3  UNL     1      21.426  34.615   6.448  1.00  0.00    -0.334 N 
ATOM      8  H3  UNL     1      21.196  34.264   7.377  1.00  0.00     0.168 HD
HETATM    9  C4  UNL     1      20.927  34.094   5.308  1.00  0.00     0.135 A 
HETATM   10  C11 UNL     1      21.494  34.865   4.295  1.00  0.00     0.122 A 
HETATM   11  C14 UNL     1      22.305  35.808   4.879  1.00  0.00     0.113 A 
HETATM   12  N11 UNL     1      23.098  36.810   4.428  1.00  0.00    -0.187 N 
ATOM     13  H11 UNL     1      23.171  36.976   3.424  1.00  0.00     0.184 HD
ENDROOT
BRANCH   9  14
HETATM   14  N4  UNL     1      20.006  33.028   5.114  1.00  0.00    -0.345 N 
ATOM     15  H4  UNL     1      19.084  33.284   4.761  1.00  0.00     0.163 HD
BRANCH  14  16
HETATM   16  C5  UNL     1      20.227  31.644   5.358  1.00  0.00     0.262 C 
HETATM   17  O2  UNL     1      19.317  31.235   6.344  1.00  0.00    -0.353 OA
HETATM   18  C6  UNL     1      18.339  30.483   5.778  1.00  0.00     0.179 C 
HETATM   19  C8  UNL     1      18.769  30.027   4.429  1.00  0.00     0.190 C 
HETATM   20  C9  UNL     1      20.106  30.697   4.243  1.00  0.00     0.150 C 
BRANCH  18  21
HETATM   21  C7  UNL     1      17.020  31.258   5.631  1.00  0.00     0.198 C 
BRANCH  21  22
HETATM   22  O3  UNL     1      17.046  32.458   6.297  1.00  0.00    -0.398 OA
ATOM     23  H3  UNL     1      17.532  33.122   5.822  1.00  0.00     0.209 HD
ENDBRANCH  21  22
ENDBRANCH  18  21
BRANCH  19  24
HETATM   24  O4  UNL     1      17.845  30.410   3.461  1.00  0.00    -0.390 OA
ATOM     25  H4  UNL     1      17.819  29.778   2.752  1.00  0.00     0.210 HD
ENDBRANCH  19  24
BRANCH  20  26
HETATM   26  O5  UNL     1      21.074  29.677   4.446  1.00  0.00    -0.380 OA
ATOM     27  H5  UNL     1      20.614  28.846   4.444  1.00  0.00     0.211 HD
ENDBRANCH  20  26
BRANCH  20  28
HETATM   28  C10 UNL     1      20.318  31.172   2.850  1.00  0.00     0.209 C 
BRANCH  28  29
HETATM   29  O6  UNL     1      19.601  32.258   2.445  1.00  0.00    -0.398 OA
ATOM     30  H6  UNL     1      18.662  32.150   2.355  1.00  0.00     0.209 HD
ENDBRANCH  28  29
ENDBRANCH  20  28
ENDBRANCH  14  16
ENDBRANCH   9  14
BRANCH  10  31
HETATM   31  N5  UNL     1      21.271  34.699   2.912  1.00  0.00    -0.281 N 
ATOM     32  H5  UNL     1      22.011  34.234   2.385  1.00  0.00     0.188 HD
BRANCH  31  33
HETATM   33  N6  UNL     1      20.168  35.096   2.199  1.00  0.00    -0.128 N 
ATOM     34  H6  UNL     1      19.443  34.402   2.019  1.00  0.00     0.205 HD
BRANCH  33  35
HETATM   35  C12 UNL     1      19.966  36.410   1.695  1.00  0.00     0.733 A 
HETATM   36  N7  UNL     1      20.688  37.469   2.069  1.00  0.00    -0.128 N 
HETATM   37  N8  UNL     1      20.255  38.531   1.423  1.00  0.00    -0.279 N 
ATOM     38  H7  UNL     1      21.451  37.457   2.745  1.00  0.00     0.205 HD
HETATM   39  C13 UNL     1      19.245  38.167   0.625  1.00  0.00     0.241 A 
ATOM     40  H8  UNL     1      20.627  39.476   1.516  1.00  0.00     0.188 HD
HETATM   41  N9  UNL     1      19.076  36.828   0.807  1.00  0.00    -0.085 N 
BRANCH  41  42
HETATM   42  N10 UNL     1      18.121  36.047   0.160  1.00  0.00    -0.323 N 
ATOM     43 2H10 UNL     1      17.119  36.070   0.350  1.00  0.00     0.178 HD
ATOM     44 1H10 UNL     1      18.294  35.362  -0.575  1.00  0.00     0.178 HD
ENDBRANCH  41  42
ENDBRANCH  33  35
ENDBRANCH  31  33
ENDBRANCH  10  31
BRANCH   1  45
HETATM   45  N1  UNL     1      24.535  38.536   4.794  1.00  0.00    -0.234 N 
ATOM     46  H12 UNL     1      25.268  38.935   5.382  1.00  0.00     0.174 HD
ATOM     47  H11 UNL     1      24.364  38.848   3.838  1.00  0.00     0.174 HD
ENDBRANCH   1  45
TORSDOF 13
ENDMDL
MODEL 2
REMARK VINA RESULT: -6.980929959      3.218      7.044
REMARK  13 active torsions:
REMARK  status: ('A' for Active; 'I' for Inactive)
REMARK    1  A    between atoms: N1_1  and  C1_4 
REMARK    2  A    between atoms: C4_12  and  N4_13 
REMARK    3  A    between atoms: N4_13  and  C5_15 
REMARK    4  A    between atoms: C6_17  and  C7_18 
REMARK    5  A    between atoms: C7_18  and  O3_19 
REMARK    6  A    between atoms: C8_21  and  O4_22 
REMARK    7  A    between atoms: C9_24  and  O5_25 
REMARK    8  A    between atoms: C9_24  and  C10_27 
REMARK    9  A    between atoms: C10_27  and  O6_28 
REMARK   10  A    between atoms: C11_30  and  N5_31 
REMARK   11  A    between atoms: N5_31  and  N6_33 
REMARK   12  A    between atoms: N6_33  and  C12_35 
REMARK   13  A    between atoms: N9_41  and  N10_42 
ROOT
HETATM    1  C1  UNL     1      19.523  29.606   4.445  1.00  0.00     0.679 A 
HETATM    2  N2  UNL     1      18.509  30.247   5.046  1.00  0.00    -0.154 N 
ATOM      3  H2  UNL     1      17.616  29.788   5.221  1.00  0.00     0.187 HD
HETATM    4  C2  UNL     1      18.728  31.521   5.406  1.00  0.00     0.288 A 
HETATM    5  O1  UNL     1      17.833  32.210   5.979  1.00  0.00    -0.265 OA
HETATM    6  C3  UNL     1      19.943  32.146   5.171  1.00  0.00     0.133 A 
HETATM    7  N3  UNL     1      20.388  33.368   5.430  1.00  0.00    -0.334 N 
ATOM      8  H3  UNL     1      19.829  34.087   5.889  1.00  0.00     0.168 HD
HETATM    9  C4  UNL     1      21.660  33.559   5.022  1.00  0.00     0.135 A 
HETATM   10  C11 UNL     1      22.032  32.339   4.460  1.00  0.00     0.122 A 
HETATM   11  C14 UNL     1      20.964  31.480   4.558  1.00  0.00     0.113 A 
HETATM   12  N11 UNL     1      20.725  30.195   4.201  1.00  0.00    -0.187 N 
ATOM     13  H11 UNL     1      21.460  29.659   3.741  1.00  0.00     0.184 HD
ENDROOT
BRANCH   9  14
HETATM   14  N4  UNL     1      22.497  34.703   5.137  1.00  0.00    -0.345 N 
ATOM     15  H4  UNL     1      22.676  35.221   4.277  1.00  0.00     0.163 HD
BRANCH  14  16
HETATM   16  C5  UNL     1      23.113  35.204   6.317  1.00  0.00     0.262 C 
HETATM   17  O2  UNL     1      24.444  35.516   6.002  1.00  0.00    -0.353 OA
HETATM   18  C6  UNL     1      24.592  36.864   5.935  1.00  0.00     0.179 C 
HETATM   19  C8  UNL     1      23.437  37.533   6.590  1.00  0.00     0.190 C 
HETATM   20  C9  UNL     1      22.539  36.384   6.972  1.00  0.00     0.150 C 
BRANCH  18  21
HETATM   21  C7  UNL     1      24.686  37.367   4.486  1.00  0.00     0.198 C 
BRANCH  21  22
HETATM   22  O3  UNL     1      24.032  36.542   3.605  1.00  0.00    -0.398 OA
ATOM     23  H3  UNL     1      24.632  36.072   3.038  1.00  0.00     0.209 HD
ENDBRANCH  21  22
ENDBRANCH  18  21
BRANCH  19  24
HETATM   24  O4  UNL     1      22.818  38.420   5.714  1.00  0.00    -0.390 OA
ATOM     25  H4  UNL     1      22.086  38.855   6.136  1.00  0.00     0.210 HD
ENDBRANCH  19  24
BRANCH  20  26
HETATM   26  O5  UNL     1      22.711  36.217   8.372  1.00  0.00    -0.380 OA
ATOM     27  H5  UNL     1      23.571  36.553   8.594  1.00  0.00     0.211 HD
ENDBRANCH  20  26
BRANCH  20  28
HETATM   28  C10 UNL     1      21.098  36.700   6.786  1.00  0.00     0.209 C 
BRANCH  28  29
HETATM   29  O6  UNL     1      20.195  35.778   7.223  1.00  0.00    -0.398 OA
ATOM     30  H6  UNL     1      19.996  35.054   6.641  1.00  0.00     0.209 HD
ENDBRANCH  28  29
ENDBRANCH  20  28
ENDBRANCH  14  16
ENDBRANCH   9  14
BRANCH  10  31
HETATM   31  N5  UNL     1      23.288  32.045   3.889  1.00  0.00    -0.281 N 
ATOM     32  H5  UNL     1      23.812  31.280   4.313  1.00  0.00     0.188 HD
BRANCH  31  33
HETATM   33  N6  UNL     1      23.881  32.677   2.825  1.00  0.00    -0.128 N 
ATOM     34  H6  UNL     1      23.450  32.568   1.907  1.00  0.00     0.205 HD
BRANCH  33  35
HETATM   35  C12 UNL     1      25.055  33.474   2.915  1.00  0.00     0.733 A 
HETATM   36  N7  UNL     1      25.617  33.841   4.068  1.00  0.00    -0.128 N 
HETATM   37  N8  UNL     1      26.683  34.569   3.811  1.00  0.00    -0.279 N 
ATOM     38  H7  UNL     1      25.275  33.598   4.998  1.00  0.00     0.205 HD
HETATM   39  C13 UNL     1      26.819  34.679   2.486  1.00  0.00     0.241 A 
ATOM     40  H8  UNL     1      27.303  34.981   4.508  1.00  0.00     0.188 HD
HETATM   41  N9  UNL     1      25.786  33.983   1.934  1.00  0.00    -0.085 N 
BRANCH  41  42
HETATM   42  N10 UNL     1      25.555  33.843   0.569  1.00  0.00    -0.323 N 
ATOM     43 2H10 UNL     1      26.280  33.786  -0.146  1.00  0.00     0.178 HD
ATOM     44 1H10 UNL     1      24.645  33.781   0.110  1.00  0.00     0.178 HD
ENDBRANCH  41  42
ENDBRANCH  33  35
ENDBRANCH  31  33
ENDBRANCH  10  31
BRANCH   1  45
HETATM   45  N1  UNL     1      19.359  28.378   4.080  1.00  0.00    -0.234 N 
ATOM     46  H12 UNL     1      18.453  28.105   3.700  1.00  0.00     0.174 HD
ATOM     47  H11 UNL     1      20.135  27.725   4.182  1.00  0.00     0.174 HD
ENDBRANCH   1  45
TORSDOF 13
ENDMDL
MODEL 3
REMARK VINA RESULT: -6.965540130      3.708      7.388
REMARK  13 active torsions:
REMARK  status: ('A' for Active; 'I' for Inactive)
REMARK    1  A    between atoms: N1_1  and  C1_4 
REMARK    2  A    between atoms: C4_12  and  N4_13 
REMARK    3  A    between atoms: N4_13  and  C5_15 
REMARK    4  A    between atoms: C6_17  and  C7_18 
REMARK    5  A    between atoms: C7_18  and  O3_19 
REMARK    6  A    between atoms: C8_21  and  O4_22 
REMARK    7  A    between atoms: C9_24  and  O5_25 
REMARK    8  A    between atoms: C9_24  and  C10_27 
REMARK    9  A    between atoms: C10_27  and  O6_28 
REMARK   10  A    between atoms: C11_30  and  N5_31 
REMARK   11  A    between atoms: N5_31  and  N6_33 
REMARK   12  A    between atoms: N6_33  and  C12_35 
REMARK   13  A    between atoms: N9_41  and  N10_42 
ROOT
HETATM    1  C1  UNL     1      21.461  29.501   1.606  1.00  0.00     0.679 A 
HETATM    2  N2  UNL     1      22.596  30.040   1.138  1.00  0.00    -0.154 N 
ATOM      3  H2  UNL     1      23.087  29.642   0.338  1.00  0.00     0.187 HD
HETATM    4  C2  UNL     1      23.056  31.130   1.773  1.00  0.00     0.288 A 
HETATM    5  O1  UNL     1      24.119  31.712   1.406  1.00  0.00    -0.265 OA
HETATM    6  C3  UNL     1      22.388  31.674   2.860  1.00  0.00     0.133 A 
HETATM    7  N3  UNL     1      22.638  32.722   3.633  1.00  0.00    -0.334 N 
ATOM      8  H3  UNL     1      23.447  33.332   3.512  1.00  0.00     0.168 HD
HETATM    9  C4  UNL     1      21.710  32.895   4.597  1.00  0.00     0.135 A 
HETATM   10  C11 UNL     1      20.803  31.856   4.396  1.00  0.00     0.122 A 
HETATM   11  C14 UNL     1      21.234  31.113   3.324  1.00  0.00     0.113 A 
HETATM   12  N11 UNL     1      20.787  30.013   2.671  1.00  0.00    -0.187 N 
ATOM     13  H11 UNL     1      19.928  29.561   2.984  1.00  0.00     0.184 HD
ENDROOT
BRANCH   9  14
HETATM   14  N4  UNL     1      21.602  33.901   5.595  1.00  0.00    -0.345 N 
ATOM     15  H4  UNL     1      22.000  33.678   6.508  1.00  0.00     0.163 HD
BRANCH  14  16
HETATM   16  C5  UNL     1      21.002  35.184   5.465  1.00  0.00     0.262 C 
HETATM   17  O2  UNL     1      20.204  35.398   6.599  1.00  0.00    -0.353 OA
HETATM   18  C6  UNL     1      20.806  36.299   7.417  1.00  0.00     0.179 C 
HETATM   19  C8  UNL     1      21.867  37.029   6.671  1.00  0.00     0.190 C 
HETATM   20  C9  UNL     1      21.866  36.362   5.320  1.00  0.00     0.150 C 
BRANCH  18  21
HETATM   21  C7  UNL     1      21.446  35.632   8.644  1.00  0.00     0.198 C 
BRANCH  21  22
HETATM   22  O3  UNL     1      20.634  35.691   9.750  1.00  0.00    -0.398 OA
ATOM     23  H3  UNL     1      21.120  35.584  10.559  1.00  0.00     0.209 HD
ENDBRANCH  21  22
ENDBRANCH  18  21
BRANCH  19  24
HETATM   24  O4  UNL     1      23.093  36.912   7.318  1.00  0.00    -0.390 OA
ATOM     25  H4  UNL     1      23.458  36.044   7.194  1.00  0.00     0.210 HD
ENDBRANCH  19  24
BRANCH  20  26
HETATM   26  O5  UNL     1      21.203  37.268   4.450  1.00  0.00    -0.380 OA
ATOM     27  H5  UNL     1      21.634  38.110   4.536  1.00  0.00     0.211 HD
ENDBRANCH  20  26
BRANCH  20  28
HETATM   28  C10 UNL     1      23.234  36.204   4.760  1.00  0.00     0.209 C 
BRANCH  28  29
HETATM   29  O6  UNL     1      24.039  35.266   5.333  1.00  0.00    -0.398 OA
ATOM     30  H6  UNL     1      24.473  34.653   4.752  1.00  0.00     0.209 HD
ENDBRANCH  28  29
ENDBRANCH  20  28
ENDBRANCH  14  16
ENDBRANCH   9  14
BRANCH  10  31
HETATM   31  N5  UNL     1      19.646  31.614   5.165  1.00  0.00    -0.281 N 
ATOM     32  H5  UNL     1      19.013  32.404   5.296  1.00  0.00     0.188 HD
BRANCH  31  33
HETATM   33  N6  UNL     1      19.278  30.432   5.758  1.00  0.00    -0.128 N 
ATOM     34  H6  UNL     1      19.906  29.635   5.657  1.00  0.00     0.205 HD
BRANCH  33  35
HETATM   35  C12 UNL     1      18.082  30.243   6.502  1.00  0.00     0.733 A 
HETATM   36  N7  UNL     1      17.106  31.150   6.583  1.00  0.00    -0.128 N 
HETATM   37  N8  UNL     1      16.142  30.674   7.343  1.00  0.00    -0.279 N 
ATOM     38  H7  UNL     1      17.106  32.063   6.129  1.00  0.00     0.205 HD
HETATM   39  C13 UNL     1      16.489  29.453   7.762  1.00  0.00     0.241 A 
ATOM     40  H8  UNL     1      15.275  31.157   7.574  1.00  0.00     0.188 HD
HETATM   41  N9  UNL     1      17.713  29.195   7.224  1.00  0.00    -0.085 N 
BRANCH  41  42
HETATM   42  N10 UNL     1      18.439  28.022   7.412  1.00  0.00    -0.323 N 
ATOM     43 2H10 UNL     1      18.353  27.181   6.841  1.00  0.00     0.178 HD
ATOM     44 1H10 UNL     1      19.140  27.851   8.133  1.00  0.00     0.178 HD
ENDBRANCH  41  42
ENDBRANCH  33  35
ENDBRANCH  31  33
ENDBRANCH  10  31
BRANCH   1  45
HETATM   45  N1  UNL     1      20.982  28.451   1.027  1.00  0.00    -0.234 N 
ATOM     46  H12 UNL     1      21.580  27.628   0.948  1.00  0.00     0.174 HD
ATOM     47  H11 UNL     1      20.027  28.476   0.670  1.00  0.00     0.174 HD
ENDBRANCH   1  45
TORSDOF 13
ENDMDL
MODEL 4
REMARK VINA RESULT: -6.946883936      3.141      5.880
REMARK  13 active torsions:
REMARK  status: ('A' for Active; 'I' for Inactive)
REMARK    1  A    between atoms: N1_1  and  C1_4 
REMARK    2  A    between atoms: C4_12  and  N4_13 
REMARK    3  A    between atoms: N4_13  and  C5_15 
REMARK    4  A    between atoms: C6_17  and  C7_18 
REMARK    5  A    between atoms: C7_18  and  O3_19 
REMARK    6  A    between atoms: C8_21  and  O4_22 
REMARK    7  A    between atoms: C9_24  and  O5_25 
REMARK    8  A    between atoms: C9_24  and  C10_27 
REMARK    9  A    between atoms: C10_27  and  O6_28 
REMARK   10  A    between atoms: C11_30  and  N5_31 
REMARK   11  A    between atoms: N5_31  and  N6_33 
REMARK   12  A    between atoms: N6_33  and  C12_35 
REMARK   13  A    between atoms: N9_41  and  N10_42 
ROOT
HETATM    1  C1  UNL     1      21.871  31.906  -0.390  1.00  0.00     0.679 A 
HETATM    2  N2  UNL     1      22.444  30.843   0.193  1.00  0.00    -0.154 N 
ATOM      3  H2  UNL     1      22.560  29.959  -0.303  1.00  0.00     0.187 HD
HETATM    4  C2  UNL     1      22.858  30.997   1.461  1.00  0.00     0.288 A 
HETATM    5  O1  UNL     1      23.410  30.051   2.097  1.00  0.00    -0.265 OA
HETATM    6  C3  UNL     1      22.703  32.198   2.136  1.00  0.00     0.133 A 
HETATM    7  N3  UNL     1      23.024  32.586   3.363  1.00  0.00    -0.334 N 
ATOM      8  H3  UNL     1      23.480  31.979   4.044  1.00  0.00     0.168 HD
HETATM    9  C4  UNL     1      22.685  33.867   3.613  1.00  0.00     0.135 A 
HETATM   10  C11 UNL     1      22.100  34.310   2.427  1.00  0.00     0.122 A 
HETATM   11  C14 UNL     1      22.118  33.271   1.528  1.00  0.00     0.113 A 
HETATM   12  N11 UNL     1      21.706  33.096   0.249  1.00  0.00    -0.187 N 
ATOM     13  H11 UNL     1      21.263  33.871  -0.244  1.00  0.00     0.184 HD
ENDROOT
BRANCH   9  14
HETATM   14  N4  UNL     1      22.879  34.656   4.780  1.00  0.00    -0.345 N 
ATOM     15  H4  UNL     1      23.660  35.312   4.758  1.00  0.00     0.163 HD
BRANCH  14  16
HETATM   16  C5  UNL     1      22.107  34.632   5.974  1.00  0.00     0.262 C 
HETATM   17  O2  UNL     1      22.965  34.288   7.029  1.00  0.00    -0.353 OA
HETATM   18  C6  UNL     1      23.215  35.386   7.789  1.00  0.00     0.179 C 
HETATM   19  C8  UNL     1      22.212  36.444   7.494  1.00  0.00     0.190 C 
HETATM   20  C9  UNL     1      21.389  35.845   6.381  1.00  0.00     0.150 C 
BRANCH  18  21
HETATM   21  C7  UNL     1      24.617  35.962   7.535  1.00  0.00     0.198 C 
BRANCH  21  22
HETATM   22  O3  UNL     1      25.231  36.365   8.695  1.00  0.00    -0.398 OA
ATOM     23  H3  UNL     1      25.878  35.738   8.996  1.00  0.00     0.209 HD
ENDBRANCH  21  22
ENDBRANCH  18  21
BRANCH  19  24
HETATM   24  O4  UNL     1      22.840  37.626   7.110  1.00  0.00    -0.390 OA
ATOM     25  H4  UNL     1      22.207  38.249   6.773  1.00  0.00     0.210 HD
ENDBRANCH  19  24
BRANCH  20  26
HETATM   26  O5  UNL     1      20.172  35.435   6.988  1.00  0.00    -0.380 OA
ATOM     27  H5  UNL     1      19.463  35.825   6.493  1.00  0.00     0.211 HD
ENDBRANCH  20  26
BRANCH  20  28
HETATM   28  C10 UNL     1      21.001  36.848   5.355  1.00  0.00     0.209 C 
BRANCH  28  29
HETATM   29  O6  UNL     1      21.978  37.292   4.515  1.00  0.00    -0.398 OA
ATOM     30  H6  UNL     1      21.928  38.196   4.229  1.00  0.00     0.209 HD
ENDBRANCH  28  29
ENDBRANCH  20  28
ENDBRANCH  14  16
ENDBRANCH   9  14
BRANCH  10  31
HETATM   31  N5  UNL     1      21.581  35.601   2.198  1.00  0.00    -0.281 N 
ATOM     32  H5  UNL     1      22.256  36.365   2.175  1.00  0.00     0.188 HD
BRANCH  31  33
HETATM   33  N6  UNL     1      20.265  35.941   2.004  1.00  0.00    -0.128 N 
ATOM     34  H6  UNL     1      19.554  35.261   2.271  1.00  0.00     0.205 HD
BRANCH  33  35
HETATM   35  C12 UNL     1      19.827  37.177   1.455  1.00  0.00     0.733 A 
HETATM   36  N7  UNL     1      20.414  38.349   1.701  1.00  0.00    -0.128 N 
HETATM   37  N8  UNL     1      19.772  39.295   1.048  1.00  0.00    -0.279 N 
ATOM     38  H7  UNL     1      21.228  38.491   2.299  1.00  0.00     0.205 HD
HETATM   39  C13 UNL     1      18.761  38.739   0.373  1.00  0.00     0.241 A 
ATOM     40  H8  UNL     1      20.007  40.287   1.055  1.00  0.00     0.188 HD
HETATM   41  N9  UNL     1      18.808  37.404   0.638  1.00  0.00    -0.085 N 
BRANCH  41  42
HETATM   42  N10 UNL     1      17.926  36.455   0.129  1.00  0.00    -0.323 N 
ATOM     43 2H10 UNL     1      18.100  35.450   0.098  1.00  0.00     0.178 HD
ATOM     44 1H10 UNL     1      17.006  36.635  -0.274  1.00  0.00     0.178 HD
ENDBRANCH  41  42
ENDBRANCH  33  35
ENDBRANCH  31  33
ENDBRANCH  10  31
BRANCH   1  45
HETATM   45  N1  UNL     1      21.457  31.805  -1.608  1.00  0.00    -0.234 N 
ATOM     46  H12 UNL     1      21.851  31.066  -2.192  1.00  0.00     0.174 HD
ATOM     47  H11 UNL     1      20.754  32.461  -1.948  1.00  0.00     0.174 HD
ENDBRANCH   1  45
TORSDOF 13
ENDMDL
MODEL 5
REMARK VINA RESULT: -6.845238471      2.697      6.379
REMARK  13 active torsions:
REMARK  status: ('A' for Active; 'I' for Inactive)
REMARK    1  A    between atoms: N1_1  and  C1_4 
REMARK    2  A    between atoms: C4_12  and  N4_13 
REMARK    3  A    between atoms: N4_13  and  C5_15 
REMARK    4  A    between atoms: C6_17  and  C7_18 
REMARK    5  A    between atoms: C7_18  and  O3_19 
REMARK    6  A    between atoms: C8_21  and  O4_22 
REMARK    7  A    between atoms: C9_24  and  O5_25 
REMARK    8  A    between atoms: C9_24  and  C10_27 
REMARK    9  A    between atoms: C10_27  and  O6_28 
REMARK   10  A    between atoms: C11_30  and  N5_31 
REMARK   11  A    between atoms: N5_31  and  N6_33 
REMARK   12  A    between atoms: N6_33  and  C12_35 
REMARK   13  A    between atoms: N9_41  and  N10_42 
ROOT
HETATM    1  C1  UNL     1      18.845  39.303  -0.051  1.00  0.00     0.679 A 
HETATM    2  N2  UNL     1      18.605  38.418  -1.030  1.00  0.00    -0.154 N 
ATOM      3  H2  UNL     1      18.116  38.686  -1.885  1.00  0.00     0.187 HD
HETATM    4  C2  UNL     1      19.039  37.163  -0.832  1.00  0.00     0.288 A 
HETATM    5  O1  UNL     1      18.860  36.256  -1.698  1.00  0.00    -0.265 OA
HETATM    6  C3  UNL     1      19.705  36.798   0.328  1.00  0.00     0.133 A 
HETATM    7  N3  UNL     1      20.218  35.648   0.743  1.00  0.00    -0.334 N 
ATOM      8  H3  UNL     1      20.185  34.787   0.199  1.00  0.00     0.168 HD
HETATM    9  C4  UNL     1      20.789  35.740   1.962  1.00  0.00     0.135 A 
HETATM   10  C11 UNL     1      20.611  37.072   2.331  1.00  0.00     0.122 A 
HETATM   11  C14 UNL     1      19.941  37.711   1.314  1.00  0.00     0.113 A 
HETATM   12  N11 UNL     1      19.495  38.972   1.097  1.00  0.00    -0.187 N 
ATOM     13  H11 UNL     1      19.650  39.686   1.808  1.00  0.00     0.184 HD
ENDROOT
BRANCH   9  14
HETATM   14  N4  UNL     1      21.463  34.755   2.735  1.00  0.00    -0.345 N 
ATOM     15  H4  UNL     1      21.130  34.622   3.690  1.00  0.00     0.163 HD
BRANCH  14  16
HETATM   16  C5  UNL     1      22.550  33.934   2.325  1.00  0.00     0.262 C 
HETATM   17  O2  UNL     1      23.670  34.763   2.160  1.00  0.00    -0.353 OA
HETATM   18  C6  UNL     1      24.539  34.563   3.185  1.00  0.00     0.179 C 
HETATM   19  C8  UNL     1      24.210  33.294   3.887  1.00  0.00     0.190 C 
HETATM   20  C9  UNL     1      22.963  32.819   3.186  1.00  0.00     0.150 C 
BRANCH  18  21
HETATM   21  C7  UNL     1      24.502  35.708   4.209  1.00  0.00     0.198 C 
BRANCH  21  22
HETATM   22  O3  UNL     1      23.915  36.841   3.702  1.00  0.00    -0.398 OA
ATOM     23  H3  UNL     1      24.556  37.467   3.384  1.00  0.00     0.209 HD
ENDBRANCH  21  22
ENDBRANCH  18  21
BRANCH  19  24
HETATM   24  O4  UNL     1      24.000  33.521   5.244  1.00  0.00    -0.390 OA
ATOM     25  H4  UNL     1      23.673  32.737   5.670  1.00  0.00     0.210 HD
ENDBRANCH  19  24
BRANCH  20  26
HETATM   26  O5  UNL     1      23.385  31.762   2.336  1.00  0.00    -0.380 OA
ATOM     27  H5  UNL     1      24.304  31.902   2.144  1.00  0.00     0.211 HD
ENDBRANCH  20  26
BRANCH  20  28
HETATM   28  C10 UNL     1      21.980  32.209   4.119  1.00  0.00     0.209 C 
BRANCH  28  29
HETATM   29  O6  UNL     1      21.308  33.050   4.955  1.00  0.00    -0.398 OA
ATOM     30  H6  UNL     1      21.820  33.521   5.601  1.00  0.00     0.209 HD
ENDBRANCH  28  29
ENDBRANCH  20  28
ENDBRANCH  14  16
ENDBRANCH   9  14
BRANCH  10  31
HETATM   31  N5  UNL     1      21.044  37.657   3.539  1.00  0.00    -0.281 N 
ATOM     32  H5  UNL     1      21.814  38.323   3.472  1.00  0.00     0.188 HD
BRANCH  31  33
HETATM   33  N6  UNL     1      20.542  37.426   4.795  1.00  0.00    -0.128 N 
ATOM     34  H6  UNL     1      19.620  37.802   5.015  1.00  0.00     0.205 HD
BRANCH  33  35
HETATM   35  C12 UNL     1      21.221  36.700   5.811  1.00  0.00     0.733 A 
HETATM   36  N7  UNL     1      20.842  35.494   6.242  1.00  0.00    -0.128 N 
HETATM   37  N8  UNL     1      21.673  35.096   7.182  1.00  0.00    -0.279 N 
ATOM     38  H7  UNL     1      20.039  34.967   5.898  1.00  0.00     0.205 HD
HETATM   39  C13 UNL     1      22.597  36.044   7.369  1.00  0.00     0.241 A 
ATOM     40  H8  UNL     1      21.620  34.211   7.685  1.00  0.00     0.188 HD
HETATM   41  N9  UNL     1      22.299  37.048   6.497  1.00  0.00    -0.085 N 
BRANCH  41  42
HETATM   42  N10 UNL     1      23.019  38.232   6.366  1.00  0.00    -0.323 N 
ATOM     43 2H10 UNL     1      24.024  38.327   6.511  1.00  0.00     0.178 HD
ATOM     44 1H10 UNL     1      22.643  39.146   6.112  1.00  0.00     0.178 HD
ENDBRANCH  41  42
ENDBRANCH  33  35
ENDBRANCH  31  33
ENDBRANCH  10  31
BRANCH   1  45
HETATM   45  N1  UNL     1      18.446  40.522  -0.197  1.00  0.00    -0.234 N 
ATOM     46  H12 UNL     1      18.746  41.032  -1.028  1.00  0.00     0.174 HD
ATOM     47  H11 UNL     1      17.846  40.935   0.518  1.00  0.00     0.174 HD
ENDBRANCH   1  45
TORSDOF 13
ENDMDL
