MODEL 1
REMARK VINA RESULT: -7.542983948      0.000      0.000
REMARK  14 active torsions:
REMARK  status: ('A' for Active; 'I' for Inactive)
REMARK    1  A    between atoms: N1_1  and  C1_4 
REMARK    2  A    between atoms: C2_7  and  N3_8 
REMARK    3  A    between atoms: N6_16  and  C4_17 
REMARK    4  A    between atoms: C5_19  and  C6_20 
REMARK    5  A    between atoms: C6_20  and  O2_21 
REMARK    6  A    between atoms: C6_20  and  C7_23 
REMARK    7  A    between atoms: C7_23  and  O3_24 
REMARK    8  A    between atoms: C7_23  and  C8_26 
REMARK    9  A    between atoms: C8_26  and  O4_27 
REMARK   10  A    between atoms: C9_30  and  O6_31 
REMARK   11  A    between atoms: C9_30  and  C10_33 
REMARK       I    between atoms: C10_33  and  N7_35 
REMARK   12  A    between atoms: N7_35  and  N8_37 
REMARK   13  A    between atoms: C11_40  and  O8_41 
REMARK   14  A    between atoms: C11_40  and  O9_43 
ROOT
HETATM    1  C4  UNL     1      24.527  35.910   5.701  1.00  0.00     0.319 C 
HETATM    2  O1  UNL     1      24.550  34.585   5.406  1.00  0.00    -0.326 OA
HETATM    3  C5  UNL     1      23.414  33.965   5.023  1.00  0.00     0.298 C 
HETATM    4  O5  UNL     1      22.223  34.432   5.517  1.00  0.00    -0.310 OA
HETATM    5  C9  UNL     1      22.434  35.185   6.658  1.00  0.00     0.312 C 
HETATM    6  C11 UNL     1      23.186  36.429   6.160  1.00  0.00     0.275 C 
ENDROOT
BRANCH   1   7
HETATM    7  N6  UNL     1      25.572  36.167   6.687  1.00  0.00    -0.224 N 
HETATM    8  N5  UNL     1      25.497  36.554   7.926  1.00  0.00    -0.236 N 
HETATM    9  N4  UNL     1      26.666  36.675   8.488  1.00  0.00    -0.279 N 
ATOM     10  H5  UNL     1      24.618  36.744   8.407  1.00  0.00     0.208 HD
HETATM   11  C3  UNL     1      27.579  36.346   7.559  1.00  0.00     0.140 A 
ATOM     12  H4  UNL     1      26.853  36.963   9.448  1.00  0.00     0.189 HD
HETATM   13  C2  UNL     1      28.948  36.292   7.583  1.00  0.00     0.147 A 
HETATM   14  C12 UNL     1      26.870  36.026   6.420  1.00  0.00     0.173 A 
HETATM   15  N2  UNL     1      29.639  35.929   6.513  1.00  0.00    -0.175 N 
HETATM   16  C1  UNL     1      28.950  35.615   5.394  1.00  0.00     0.679 A 
ATOM     17  H2  UNL     1      30.657  35.889   6.533  1.00  0.00     0.186 HD
HETATM   18  N9  UNL     1      27.606  35.659   5.342  1.00  0.00    -0.173 N 
ATOM     19  H9  UNL     1      27.132  35.413   4.473  1.00  0.00     0.186 HD
BRANCH  13  20
HETATM   20  N3  UNL     1      29.563  36.604   8.683  1.00  0.00    -0.383 N 
ATOM     21  H32 UNL     1      29.723  35.874   9.378  1.00  0.00     0.157 HD
ATOM     22  H31 UNL     1      29.879  37.561   8.842  1.00  0.00     0.157 HD
ENDBRANCH  13  20
BRANCH  16  23
HETATM   23  N1  UNL     1      29.642  35.265   4.364  1.00  0.00    -0.234 N 
ATOM     24  H12 UNL     1      30.580  34.878   4.470  1.00  0.00     0.174 HD
ATOM     25  H11 UNL     1      29.206  35.395   3.452  1.00  0.00     0.174 HD
ENDBRANCH  16  23
ENDBRANCH   1   7
BRANCH   6  26
HETATM   26  O8  UNL     1      22.471  36.889   5.055  1.00  0.00    -0.357 OA
ATOM     27  H8  UNL     1      22.435  36.202   4.400  1.00  0.00     0.213 HD
ENDBRANCH   6  26
BRANCH   6  28
HETATM   28  O9  UNL     1      23.247  37.422   7.089  1.00  0.00    -0.357 OA
ATOM     29  H9  UNL     1      22.985  37.163   7.965  1.00  0.00     0.213 HD
ENDBRANCH   6  28
BRANCH   3  30
HETATM   30  C6  UNL     1      23.261  33.898   3.495  1.00  0.00     0.204 C 
BRANCH  30  31
HETATM   31  O2  UNL     1      22.043  34.446   3.104  1.00  0.00    -0.388 OA
ATOM     32  H2  UNL     1      22.115  34.832   2.239  1.00  0.00     0.210 HD
ENDBRANCH  30  31
BRANCH  30  33
HETATM   33  C7  UNL     1      23.281  32.434   3.102  1.00  0.00     0.175 C 
BRANCH  33  34
HETATM   34  O3  UNL     1      24.013  31.777   4.119  1.00  0.00    -0.391 OA
ATOM     35  H3  UNL     1      23.404  31.660   4.838  1.00  0.00     0.210 HD
ENDBRANCH  33  34
BRANCH  33  36
HETATM   36  C8  UNL     1      21.913  31.826   3.099  1.00  0.00     0.198 C 
BRANCH  36  37
HETATM   37  O4  UNL     1      21.889  30.833   4.080  1.00  0.00    -0.398 OA
ATOM     38  H4  UNL     1      20.998  30.768   4.404  1.00  0.00     0.209 HD
ENDBRANCH  36  37
ENDBRANCH  33  36
ENDBRANCH  30  33
ENDBRANCH   3  30
BRANCH   5  39
HETATM   39  O6  UNL     1      23.341  34.452   7.448  1.00  0.00    -0.354 OA
ATOM     40  H6  UNL     1      23.634  35.044   8.131  1.00  0.00     0.213 HD
ENDBRANCH   5  39
BRANCH   5  41
HETATM   41  C10 UNL     1      21.223  35.515   7.416  1.00  0.00     0.304 C 
HETATM   42  O7  UNL     1      20.136  35.626   6.763  1.00  0.00    -0.265 OA
HETATM   43  N7  UNL     1      21.243  35.704   8.810  1.00  0.00    -0.272 N 
ATOM     44  H7  UNL     1      22.110  35.617   9.341  1.00  0.00     0.189 HD
BRANCH  43  45
HETATM   45  N8  UNL     1      20.023  36.017   9.449  1.00  0.00    -0.342 N 
ATOM     46  H82 UNL     1      19.152  35.599   9.124  1.00  0.00     0.176 HD
ATOM     47  H81 UNL     1      20.052  36.667  10.236  1.00  0.00     0.176 HD
ENDBRANCH  43  45
ENDBRANCH   5  41
TORSDOF 14
ENDMDL
MODEL 2
REMARK VINA RESULT: -7.274322052      2.431      4.341
REMARK  14 active torsions:
REMARK  status: ('A' for Active; 'I' for Inactive)
REMARK    1  A    between atoms: N1_1  and  C1_4 
REMARK    2  A    between atoms: C2_7  and  N3_8 
REMARK    3  A    between atoms: N6_16  and  C4_17 
REMARK    4  A    between atoms: C5_19  and  C6_20 
REMARK    5  A    between atoms: C6_20  and  O2_21 
REMARK    6  A    between atoms: C6_20  and  C7_23 
REMARK    7  A    between atoms: C7_23  and  O3_24 
REMARK    8  A    between atoms: C7_23  and  C8_26 
REMARK    9  A    between atoms: C8_26  and  O4_27 
REMARK   10  A    between atoms: C9_30  and  O6_31 
REMARK   11  A    between atoms: C9_30  and  C10_33 
REMARK       I    between atoms: C10_33  and  N7_35 
REMARK   12  A    between atoms: N7_35  and  N8_37 
REMARK   13  A    between atoms: C11_40  and  O8_41 
REMARK   14  A    between atoms: C11_40  and  O9_43 
ROOT
HETATM    1  C4  UNL     1      25.373  36.121   6.020  1.00  0.00     0.319 C 
HETATM    2  O1  UNL     1      24.516  37.168   6.131  1.00  0.00    -0.326 OA
HETATM    3  C5  UNL     1      23.185  36.953   6.065  1.00  0.00     0.298 C 
HETATM    4  O5  UNL     1      22.735  35.909   5.297  1.00  0.00    -0.310 OA
HETATM    5  C9  UNL     1      23.702  35.527   4.384  1.00  0.00     0.312 C 
HETATM    6  C11 UNL     1      24.831  34.944   5.248  1.00  0.00     0.275 C 
ENDROOT
BRANCH   1   7
HETATM    7  N6  UNL     1      26.618  36.620   5.441  1.00  0.00    -0.224 N 
HETATM    8  N5  UNL     1      26.896  37.020   4.236  1.00  0.00    -0.236 N 
HETATM    9  N4  UNL     1      28.135  37.398   4.104  1.00  0.00    -0.279 N 
ATOM     10  H5  UNL     1      26.217  37.035   3.475  1.00  0.00     0.208 HD
HETATM   11  C3  UNL     1      28.719  37.238   5.303  1.00  0.00     0.140 A 
ATOM     12  H4  UNL     1      28.577  37.748   3.254  1.00  0.00     0.189 HD
HETATM   13  C2  UNL     1      29.993  37.470   5.751  1.00  0.00     0.147 A 
HETATM   14  C12 UNL     1      27.744  36.744   6.142  1.00  0.00     0.173 A 
HETATM   15  N2  UNL     1      30.332  37.227   7.008  1.00  0.00    -0.175 N 
HETATM   16  C1  UNL     1      29.382  36.743   7.836  1.00  0.00     0.679 A 
ATOM     17  H2  UNL     1      31.281  37.401   7.341  1.00  0.00     0.186 HD
HETATM   18  N9  UNL     1      28.123  36.505   7.423  1.00  0.00    -0.173 N 
ATOM     19  H9  UNL     1      27.440  36.138   8.086  1.00  0.00     0.186 HD
BRANCH  13  20
HETATM   20  N3  UNL     1      30.871  37.937   4.916  1.00  0.00    -0.383 N 
ATOM     21  H32 UNL     1      31.678  37.359   4.681  1.00  0.00     0.157 HD
ATOM     22  H31 UNL     1      30.748  38.863   4.506  1.00  0.00     0.157 HD
ENDBRANCH  13  20
BRANCH  16  23
HETATM   23  N1  UNL     1      29.733  36.513   9.054  1.00  0.00    -0.234 N 
ATOM     24  H12 UNL     1      30.243  37.212   9.593  1.00  0.00     0.174 HD
ATOM     25  H11 UNL     1      29.476  35.606   9.444  1.00  0.00     0.174 HD
ENDBRANCH  16  23
ENDBRANCH   1   7
BRANCH   6  26
HETATM   26  O8  UNL     1      24.216  34.060   6.132  1.00  0.00    -0.357 OA
ATOM     27  H8  UNL     1      24.545  33.183   5.976  1.00  0.00     0.213 HD
ENDBRANCH   6  26
BRANCH   6  28
HETATM   28  O9  UNL     1      25.759  34.263   4.520  1.00  0.00    -0.357 OA
ATOM     29  H9  UNL     1      25.572  33.340   4.399  1.00  0.00     0.213 HD
ENDBRANCH   6  28
BRANCH   3  30
HETATM   30  C6  UNL     1      22.542  36.791   7.450  1.00  0.00     0.204 C 
BRANCH  30  31
HETATM   31  O2  UNL     1      23.457  36.257   8.352  1.00  0.00    -0.388 OA
ATOM     32  H2  UNL     1      23.016  35.980   9.148  1.00  0.00     0.210 HD
ENDBRANCH  30  31
BRANCH  30  33
HETATM   33  C7  UNL     1      21.387  35.819   7.302  1.00  0.00     0.175 C 
BRANCH  33  34
HETATM   34  O3  UNL     1      21.932  34.538   7.553  1.00  0.00    -0.391 OA
ATOM     35  H3  UNL     1      21.239  33.921   7.352  1.00  0.00     0.210 HD
ENDBRANCH  33  34
BRANCH  33  36
HETATM   36  C8  UNL     1      20.321  36.040   8.329  1.00  0.00     0.198 C 
BRANCH  36  37
HETATM   37  O4  UNL     1      20.841  35.658   9.567  1.00  0.00    -0.398 OA
ATOM     38  H4  UNL     1      20.124  35.315  10.088  1.00  0.00     0.209 HD
ENDBRANCH  36  37
ENDBRANCH  33  36
ENDBRANCH  30  33
ENDBRANCH   3  30
BRANCH   5  39
HETATM   39  O6  UNL     1      24.198  36.718   3.819  1.00  0.00    -0.354 OA
ATOM     40  H6  UNL     1      23.561  36.985   3.166  1.00  0.00     0.213 HD
ENDBRANCH   5  39
BRANCH   5  41
HETATM   41  C10 UNL     1      23.240  34.602   3.345  1.00  0.00     0.304 C 
HETATM   42  O7  UNL     1      23.726  34.743   2.177  1.00  0.00    -0.265 OA
HETATM   43  N7  UNL     1      22.297  33.593   3.609  1.00  0.00    -0.272 N 
ATOM     44  H7  UNL     1      21.901  33.473   4.543  1.00  0.00     0.189 HD
BRANCH  43  45
HETATM   45  N8  UNL     1      21.916  32.751   2.541  1.00  0.00    -0.342 N 
ATOM     46  H82 UNL     1      22.626  32.268   1.991  1.00  0.00     0.176 HD
ATOM     47  H81 UNL     1      20.919  32.649   2.348  1.00  0.00     0.176 HD
ENDBRANCH  43  45
ENDBRANCH   5  41
TORSDOF 14
ENDMDL
MODEL 3
REMARK VINA RESULT: -7.042373669      2.627      4.293
REMARK  14 active torsions:
REMARK  status: ('A' for Active; 'I' for Inactive)
REMARK    1  A    between atoms: N1_1  and  C1_4 
REMARK    2  A    between atoms: C2_7  and  N3_8 
REMARK    3  A    between atoms: N6_16  and  C4_17 
REMARK    4  A    between atoms: C5_19  and  C6_20 
REMARK    5  A    between atoms: C6_20  and  O2_21 
REMARK    6  A    between atoms: C6_20  and  C7_23 
REMARK    7  A    between atoms: C7_23  and  O3_24 
REMARK    8  A    between atoms: C7_23  and  C8_26 
REMARK    9  A    between atoms: C8_26  and  O4_27 
REMARK   10  A    between atoms: C9_30  and  O6_31 
REMARK   11  A    between atoms: C9_30  and  C10_33 
REMARK       I    between atoms: C10_33  and  N7_35 
REMARK   12  A    between atoms: N7_35  and  N8_37 
REMARK   13  A    between atoms: C11_40  and  O8_41 
REMARK   14  A    between atoms: C11_40  and  O9_43 
ROOT
HETATM    1  C4  UNL     1      25.348  36.109   5.784  1.00  0.00     0.319 C 
HETATM    2  O1  UNL     1      24.856  36.905   6.768  1.00  0.00    -0.326 OA
HETATM    3  C5  UNL     1      23.529  36.923   7.014  1.00  0.00     0.298 C 
HETATM    4  O5  UNL     1      22.673  36.693   5.966  1.00  0.00    -0.310 OA
HETATM    5  C9  UNL     1      23.315  36.910   4.760  1.00  0.00     0.312 C 
HETATM    6  C11 UNL     1      24.367  35.792   4.682  1.00  0.00     0.275 C 
ENDROOT
BRANCH   1   7
HETATM    7  N6  UNL     1      26.560  36.736   5.265  1.00  0.00    -0.224 N 
HETATM    8  N5  UNL     1      26.816  37.261   4.103  1.00  0.00    -0.236 N 
HETATM    9  N4  UNL     1      28.030  37.727   4.018  1.00  0.00    -0.279 N 
ATOM     10  H5  UNL     1      26.140  37.303   3.341  1.00  0.00     0.208 HD
HETATM   11  C3  UNL     1      28.618  37.495   5.203  1.00  0.00     0.140 A 
ATOM     12  H4  UNL     1      28.451  38.180   3.208  1.00  0.00     0.189 HD
HETATM   13  C2  UNL     1      29.874  37.764   5.682  1.00  0.00     0.147 A 
HETATM   14  C12 UNL     1      27.674  36.866   5.985  1.00  0.00     0.173 A 
HETATM   15  N2  UNL     1      30.223  37.430   6.915  1.00  0.00    -0.175 N 
HETATM   16  C1  UNL     1      29.302  36.813   7.686  1.00  0.00     0.679 A 
ATOM     17  H2  UNL     1      31.157  37.631   7.271  1.00  0.00     0.186 HD
HETATM   18  N9  UNL     1      28.062  36.535   7.242  1.00  0.00    -0.173 N 
ATOM     19  H9  UNL     1      27.402  36.067   7.863  1.00  0.00     0.186 HD
BRANCH  13  20
HETATM   20  N3  UNL     1      30.722  38.360   4.901  1.00  0.00    -0.383 N 
ATOM     21  H32 UNL     1      30.746  38.100   3.915  1.00  0.00     0.157 HD
ATOM     22  H31 UNL     1      31.349  39.074   5.273  1.00  0.00     0.157 HD
ENDBRANCH  13  20
BRANCH  16  23
HETATM   23  N1  UNL     1      29.663  36.495   8.882  1.00  0.00    -0.234 N 
ATOM     24  H12 UNL     1      30.592  36.117   9.065  1.00  0.00     0.174 HD
ATOM     25  H11 UNL     1      28.978  36.640   9.623  1.00  0.00     0.174 HD
ENDBRANCH  16  23
ENDBRANCH   1   7
BRANCH   6  26
HETATM   26  O8  UNL     1      23.693  34.613   4.995  1.00  0.00    -0.357 OA
ATOM     27  H8  UNL     1      22.794  34.679   4.695  1.00  0.00     0.213 HD
ENDBRANCH   6  26
BRANCH   6  28
HETATM   28  O9  UNL     1      24.920  35.668   3.445  1.00  0.00    -0.357 OA
ATOM     29  H9  UNL     1      24.305  35.456   2.753  1.00  0.00     0.213 HD
ENDBRANCH   6  28
BRANCH   3  30
HETATM   30  C6  UNL     1      23.121  35.956   8.136  1.00  0.00     0.204 C 
BRANCH  30  31
HETATM   31  O2  UNL     1      23.778  34.738   7.992  1.00  0.00    -0.388 OA
ATOM     32  H2  UNL     1      23.837  34.499   7.074  1.00  0.00     0.210 HD
ENDBRANCH  30  31
BRANCH  30  33
HETATM   33  C7  UNL     1      21.628  35.718   8.007  1.00  0.00     0.175 C 
BRANCH  33  34
HETATM   34  O3  UNL     1      21.497  34.466   7.362  1.00  0.00    -0.391 OA
ATOM     35  H3  UNL     1      21.306  33.841   8.051  1.00  0.00     0.210 HD
ENDBRANCH  33  34
BRANCH  33  36
HETATM   36  C8  UNL     1      20.956  35.585   9.338  1.00  0.00     0.198 C 
BRANCH  36  37
HETATM   37  O4  UNL     1      19.610  35.914   9.167  1.00  0.00    -0.398 OA
ATOM     38  H4  UNL     1      19.517  36.314   8.310  1.00  0.00     0.209 HD
ENDBRANCH  36  37
ENDBRANCH  33  36
ENDBRANCH  30  33
ENDBRANCH   3  30
BRANCH   5  39
HETATM   39  O6  UNL     1      24.019  38.121   4.904  1.00  0.00    -0.354 OA
ATOM     40  H6  UNL     1      24.911  37.882   5.128  1.00  0.00     0.213 HD
ENDBRANCH   5  39
BRANCH   5  41
HETATM   41  C10 UNL     1      22.434  36.949   3.589  1.00  0.00     0.304 C 
HETATM   42  O7  UNL     1      22.622  36.073   2.684  1.00  0.00    -0.265 OA
HETATM   43  N7  UNL     1      21.416  37.910   3.453  1.00  0.00    -0.272 N 
ATOM     44  H7  UNL     1      21.259  38.617   4.172  1.00  0.00     0.189 HD
BRANCH  43  45
HETATM   45  N8  UNL     1      20.619  37.865   2.288  1.00  0.00    -0.342 N 
ATOM     46  H82 UNL     1      19.820  37.233   2.237  1.00  0.00     0.176 HD
ATOM     47  H81 UNL     1      20.872  38.481   1.514  1.00  0.00     0.176 HD
ENDBRANCH  43  45
ENDBRANCH   5  41
TORSDOF 14
ENDMDL
MODEL 4
REMARK VINA RESULT: -7.032259805      2.315      3.324
REMARK  14 active torsions:
REMARK  status: ('A' for Active; 'I' for Inactive)
REMARK    1  A    between atoms: N1_1  and  C1_4 
REMARK    2  A    between atoms: C2_7  and  N3_8 
REMARK    3  A    between atoms: N6_16  and  C4_17 
REMARK    4  A    between atoms: C5_19  and  C6_20 
REMARK    5  A    between atoms: C6_20  and  O2_21 
REMARK    6  A    between atoms: C6_20  and  C7_23 
REMARK    7  A    between atoms: C7_23  and  O3_24 
REMARK    8  A    between atoms: C7_23  and  C8_26 
REMARK    9  A    between atoms: C8_26  and  O4_27 
REMARK   10  A    between atoms: C9_30  and  O6_31 
REMARK   11  A    between atoms: C9_30  and  C10_33 
REMARK       I    between atoms: C10_33  and  N7_35 
REMARK   12  A    between atoms: N7_35  and  N8_37 
REMARK   13  A    between atoms: C11_40  and  O8_41 
REMARK   14  A    between atoms: C11_40  and  O9_43 
ROOT
HETATM    1  C4  UNL     1      24.719  37.053   5.095  1.00  0.00     0.319 C 
HETATM    2  O1  UNL     1      24.094  36.324   4.135  1.00  0.00    -0.326 OA
HETATM    3  C5  UNL     1      22.757  36.148   4.192  1.00  0.00     0.298 C 
HETATM    4  O5  UNL     1      22.160  36.121   5.427  1.00  0.00    -0.310 OA
HETATM    5  C9  UNL     1      23.094  35.849   6.411  1.00  0.00     0.312 C 
HETATM    6  C11 UNL     1      24.004  37.087   6.423  1.00  0.00     0.275 C 
ENDROOT
BRANCH   1   7
HETATM    7  N6  UNL     1      26.081  36.545   5.227  1.00  0.00    -0.224 N 
HETATM    8  N5  UNL     1      26.540  35.481   5.815  1.00  0.00    -0.236 N 
HETATM    9  N4  UNL     1      27.834  35.369   5.716  1.00  0.00    -0.279 N 
ATOM     10  H5  UNL     1      25.950  34.806   6.302  1.00  0.00     0.208 HD
HETATM   11  C3  UNL     1      28.263  36.431   5.016  1.00  0.00     0.140 A 
ATOM     12  H4  UNL     1      28.410  34.619   6.098  1.00  0.00     0.189 HD
HETATM   13  C2  UNL     1      29.509  36.832   4.612  1.00  0.00     0.147 A 
HETATM   14  C12 UNL     1      27.140  37.170   4.712  1.00  0.00     0.173 A 
HETATM   15  N2  UNL     1      29.678  37.945   3.913  1.00  0.00    -0.175 N 
HETATM   16  C1  UNL     1      28.582  38.673   3.612  1.00  0.00     0.679 A 
ATOM     17  H2  UNL     1      30.606  38.242   3.612  1.00  0.00     0.186 HD
HETATM   18  N9  UNL     1      27.346  38.304   3.996  1.00  0.00    -0.173 N 
ATOM     19  H9  UNL     1      26.549  38.888   3.744  1.00  0.00     0.186 HD
BRANCH  13  20
HETATM   20  N3  UNL     1      30.532  36.097   4.926  1.00  0.00    -0.383 N 
ATOM     21  H32 UNL     1      31.268  36.504   5.503  1.00  0.00     0.157 HD
ATOM     22  H31 UNL     1      30.590  35.131   4.600  1.00  0.00     0.157 HD
ENDBRANCH  13  20
BRANCH  16  23
HETATM   23  N1  UNL     1      28.768  39.753   2.933  1.00  0.00    -0.234 N 
ATOM     24  H12 UNL     1      27.991  40.376   2.715  1.00  0.00     0.174 HD
ATOM     25  H11 UNL     1      29.723  39.947   2.631  1.00  0.00     0.174 HD
ENDBRANCH  16  23
ENDBRANCH   1   7
BRANCH   6  26
HETATM   26  O8  UNL     1      23.150  38.187   6.455  1.00  0.00    -0.357 OA
ATOM     27  H8  UNL     1      22.814  38.296   7.337  1.00  0.00     0.213 HD
ENDBRANCH   6  26
BRANCH   6  28
HETATM   28  O9  UNL     1      24.823  37.133   7.510  1.00  0.00    -0.357 OA
ATOM     29  H9  UNL     1      24.950  38.001   7.876  1.00  0.00     0.213 HD
ENDBRANCH   6  28
BRANCH   3  30
HETATM   30  C6  UNL     1      21.987  37.178   3.352  1.00  0.00     0.204 C 
BRANCH  30  31
HETATM   31  O2  UNL     1      21.163  37.950   4.166  1.00  0.00    -0.388 OA
ATOM     32  H2  UNL     1      21.491  38.840   4.223  1.00  0.00     0.210 HD
ENDBRANCH  30  31
BRANCH  30  33
HETATM   33  C7  UNL     1      21.119  36.408   2.376  1.00  0.00     0.175 C 
BRANCH  33  34
HETATM   34  O3  UNL     1      20.398  35.477   3.160  1.00  0.00    -0.391 OA
ATOM     35  H3  UNL     1      21.036  34.831   3.440  1.00  0.00     0.210 HD
ENDBRANCH  33  34
BRANCH  33  36
HETATM   36  C8  UNL     1      20.103  37.280   1.706  1.00  0.00     0.198 C 
BRANCH  36  37
HETATM   37  O4  UNL     1      20.772  38.392   1.194  1.00  0.00    -0.398 OA
ATOM     38  H4  UNL     1      20.148  39.107   1.145  1.00  0.00     0.209 HD
ENDBRANCH  36  37
ENDBRANCH  33  36
ENDBRANCH  30  33
ENDBRANCH   3  30
BRANCH   5  39
HETATM   39  O6  UNL     1      23.871  34.779   5.927  1.00  0.00    -0.354 OA
ATOM     40  H6  UNL     1      23.260  34.164   5.538  1.00  0.00     0.213 HD
ENDBRANCH   5  39
BRANCH   5  41
HETATM   41  C10 UNL     1      22.531  35.539   7.729  1.00  0.00     0.304 C 
HETATM   42  O7  UNL     1      23.204  34.769   8.487  1.00  0.00    -0.265 OA
HETATM   43  N7  UNL     1      21.297  36.062   8.155  1.00  0.00    -0.272 N 
ATOM     44  H7  UNL     1      20.750  36.679   7.553  1.00  0.00     0.189 HD
BRANCH  43  45
HETATM   45  N8  UNL     1      20.840  35.705   9.443  1.00  0.00    -0.342 N 
ATOM     46  H82 UNL     1      21.376  35.052  10.014  1.00  0.00     0.176 HD
ATOM     47  H81 UNL     1      19.967  36.121   9.770  1.00  0.00     0.176 HD
ENDBRANCH  43  45
ENDBRANCH   5  41
TORSDOF 14
ENDMDL
MODEL 5
REMARK VINA RESULT: -6.890855378      4.432      8.455
REMARK  14 active torsions:
REMARK  status: ('A' for Active; 'I' for Inactive)
REMARK    1  A    between atoms: N1_1  and  C1_4 
REMARK    2  A    between atoms: C2_7  and  N3_8 
REMARK    3  A    between atoms: N6_16  and  C4_17 
REMARK    4  A    between atoms: C5_19  and  C6_20 
REMARK    5  A    between atoms: C6_20  and  O2_21 
REMARK    6  A    between atoms: C6_20  and  C7_23 
REMARK    7  A    between atoms: C7_23  and  O3_24 
REMARK    8  A    between atoms: C7_23  and  C8_26 
REMARK    9  A    between atoms: C8_26  and  O4_27 
REMARK   10  A    between atoms: C9_30  and  O6_31 
REMARK   11  A    between atoms: C9_30  and  C10_33 
REMARK       I    between atoms: C10_33  and  N7_35 
REMARK   12  A    between atoms: N7_35  and  N8_37 
REMARK   13  A    between atoms: C11_40  and  O8_41 
REMARK   14  A    between atoms: C11_40  and  O9_43 
ROOT
HETATM    1  C4  UNL     1      20.087  33.040   4.889  1.00  0.00     0.319 C 
HETATM    2  O1  UNL     1      20.867  33.324   5.963  1.00  0.00    -0.326 OA
HETATM    3  C5  UNL     1      21.662  34.415   5.943  1.00  0.00     0.298 C 
HETATM    4  O5  UNL     1      22.158  34.832   4.734  1.00  0.00    -0.310 OA
HETATM    5  C9  UNL     1      22.103  33.806   3.808  1.00  0.00     0.312 C 
HETATM    6  C11 UNL     1      20.601  33.582   3.578  1.00  0.00     0.275 C 
ENDROOT
BRANCH   1   7
HETATM    7  N6  UNL     1      19.902  31.592   4.840  1.00  0.00    -0.224 N 
HETATM    8  N5  UNL     1      20.639  30.657   4.319  1.00  0.00    -0.236 N 
HETATM    9  N4  UNL     1      20.133  29.468   4.481  1.00  0.00    -0.279 N 
ATOM     10  H5  UNL     1      21.519  30.835   3.835  1.00  0.00     0.208 HD
HETATM   11  C3  UNL     1      18.982  29.625   5.156  1.00  0.00     0.140 A 
ATOM     12  H4  UNL     1      20.534  28.587   4.159  1.00  0.00     0.189 HD
HETATM   13  C2  UNL     1      18.040  28.734   5.598  1.00  0.00     0.147 A 
HETATM   14  C12 UNL     1      18.848  30.979   5.377  1.00  0.00     0.173 A 
HETATM   15  N2  UNL     1      16.965  29.144   6.256  1.00  0.00    -0.175 N 
HETATM   16  C1  UNL     1      16.828  30.470   6.476  1.00  0.00     0.679 A 
ATOM     17  H2  UNL     1      16.265  28.481   6.586  1.00  0.00     0.186 HD
HETATM   18  N9  UNL     1      17.737  31.366   6.052  1.00  0.00    -0.173 N 
ATOM     19  H9  UNL     1      17.588  32.358   6.242  1.00  0.00     0.186 HD
BRANCH  13  20
HETATM   20  N3  UNL     1      18.218  27.471   5.363  1.00  0.00    -0.383 N 
ATOM     21  H32 UNL     1      18.020  27.115   4.427  1.00  0.00     0.157 HD
ATOM     22  H31 UNL     1      18.552  26.852   6.102  1.00  0.00     0.157 HD
ENDBRANCH  13  20
BRANCH  16  23
HETATM   23  N1  UNL     1      15.775  30.847   7.117  1.00  0.00    -0.234 N 
ATOM     24  H12 UNL     1      15.343  30.243   7.816  1.00  0.00     0.174 HD
ATOM     25  H11 UNL     1      15.404  31.770   6.890  1.00  0.00     0.174 HD
ENDBRANCH  16  23
ENDBRANCH   1   7
BRANCH   6  26
HETATM   26  O8  UNL     1      20.056  34.845   3.360  1.00  0.00    -0.357 OA
ATOM     27  H8  UNL     1      19.111  34.796   3.439  1.00  0.00     0.213 HD
ENDBRANCH   6  26
BRANCH   6  28
HETATM   28  O9  UNL     1      20.341  32.797   2.496  1.00  0.00    -0.357 OA
ATOM     29  H9  UNL     1      20.823  33.029   1.710  1.00  0.00     0.213 HD
ENDBRANCH   6  28
BRANCH   3  30
HETATM   30  C6  UNL     1      21.003  35.640   6.595  1.00  0.00     0.204 C 
BRANCH  30  31
HETATM   31  O2  UNL     1      21.055  36.735   5.738  1.00  0.00    -0.388 OA
ATOM     32  H2  UNL     1      20.241  36.817   5.254  1.00  0.00     0.210 HD
ENDBRANCH  30  31
BRANCH  30  33
HETATM   33  C7  UNL     1      21.796  35.968   7.846  1.00  0.00     0.175 C 
BRANCH  33  34
HETATM   34  O3  UNL     1      21.826  34.773   8.602  1.00  0.00    -0.391 OA
ATOM     35  H3  UNL     1      21.851  35.046   9.511  1.00  0.00     0.210 HD
ENDBRANCH  33  34
BRANCH  33  36
HETATM   36  C8  UNL     1      23.219  36.318   7.543  1.00  0.00     0.198 C 
BRANCH  36  37
HETATM   37  O4  UNL     1      23.250  37.653   7.138  1.00  0.00    -0.398 OA
ATOM     38  H4  UNL     1      23.510  38.176   7.888  1.00  0.00     0.209 HD
ENDBRANCH  36  37
ENDBRANCH  33  36
ENDBRANCH  30  33
ENDBRANCH   3  30
BRANCH   5  39
HETATM   39  O6  UNL     1      22.589  32.660   4.466  1.00  0.00    -0.354 OA
ATOM     40  H6  UNL     1      21.947  32.447   5.133  1.00  0.00     0.213 HD
ENDBRANCH   5  39
BRANCH   5  41
HETATM   41  C10 UNL     1      22.842  34.054   2.566  1.00  0.00     0.304 C 
HETATM   42  O7  UNL     1      22.314  34.841   1.716  1.00  0.00    -0.265 OA
HETATM   43  N7  UNL     1      24.087  33.453   2.306  1.00  0.00    -0.272 N 
ATOM     44  H7  UNL     1      24.518  32.820   2.981  1.00  0.00     0.189 HD
BRANCH  43  45
HETATM   45  N8  UNL     1      24.722  33.755   1.081  1.00  0.00    -0.342 N 
ATOM     46  H82 UNL     1      24.845  34.726   0.794  1.00  0.00     0.176 HD
ATOM     47  H81 UNL     1      25.044  32.975   0.507  1.00  0.00     0.176 HD
ENDBRANCH  43  45
ENDBRANCH   5  41
TORSDOF 14
ENDMDL
