MODEL 1
REMARK VINA RESULT: -7.810902018      0.000      0.000
REMARK  11 active torsions:
REMARK  status: ('A' for Active; 'I' for Inactive)
REMARK    1  A    between atoms: N1_1  and  O1_4 
REMARK    2  A    between atoms: O1_4  and  C1_5 
REMARK       I    between atoms: C1_5  and  N2_7 
REMARK    3  A    between atoms: N2_7  and  C2_9 
REMARK    4  A    between atoms: N4_12  and  C3_13 
REMARK    5  A    between atoms: C4_17  and  O3_18 
REMARK    6  A    between atoms: N6_22  and  C6_24 
REMARK    7  A    between atoms: C7_27  and  C8_28 
REMARK       I    between atoms: C8_28  and  N9_30 
REMARK    8  A    between atoms: N9_30  and  C9_32 
REMARK    9  A    between atoms: C9_32  and  O6_33 
REMARK   10  A    between atoms: C9_32  and  C10_35 
REMARK   11  A    between atoms: C11_39  and  O10_40 
ROOT
HETATM    1  C2  UNL     1      29.813  36.307   8.311  1.00  0.00     0.162 A 
HETATM    2  N3  UNL     1      30.471  35.200   8.012  1.00  0.00    -0.275 N 
ATOM      3  H3  UNL     1      31.362  34.945   8.438  1.00  0.00     0.189 HD
HETATM    4  N4  UNL     1      29.870  34.470   7.123  1.00  0.00    -0.217 N 
HETATM    5  C5  UNL     1      28.712  35.112   6.779  1.00  0.00     0.163 A 
HETATM    6  N6  UNL     1      27.940  34.601   5.922  1.00  0.00    -0.332 N 
ATOM      7  H6  UNL     1      28.281  33.712   5.555  1.00  0.00     0.165 HD
HETATM    8  C11 UNL     1      28.652  36.272   7.511  1.00  0.00     0.157 A 
ENDROOT
BRANCH   4   9
HETATM    9  C3  UNL     1      30.345  33.185   6.583  1.00  0.00     0.461 C 
HETATM   10  N5  UNL     1      29.719  32.047   7.267  1.00  0.00     0.021 N 
HETATM   11  C4  UNL     1      30.959  31.919   7.997  1.00  0.00     0.475 C 
ATOM     12  H52 UNL     1      28.824  32.139   7.747  1.00  0.00     0.288 HD
ATOM     13  H51 UNL     1      29.323  31.263   6.747  1.00  0.00     0.288 HD
HETATM   14  O4  UNL     1      31.564  32.800   7.109  1.00  0.00    -0.287 OA
BRANCH  11  15
HETATM   15  O3  UNL     1      30.810  32.456   9.285  1.00  0.00    -0.349 OA
ATOM     16  H3  UNL     1      31.434  33.161   9.415  1.00  0.00     0.214 HD
ENDBRANCH  11  15
ENDBRANCH   4   9
BRANCH   6  17
HETATM   17  C6  UNL     1      26.714  34.993   5.365  1.00  0.00     0.340 C 
HETATM   18  N7  UNL     1      26.778  36.299   4.706  1.00  0.00    -0.092 NA
HETATM   19  N8  UNL     1      25.557  36.933   4.946  1.00  0.00    -0.102 NA
HETATM   20  C7  UNL     1      24.760  35.880   5.537  1.00  0.00     0.326 C 
HETATM   21  O9  UNL     1      25.718  35.241   6.341  1.00  0.00    -0.319 OA
BRANCH  20  22
HETATM   22  C8  UNL     1      23.659  36.450   6.295  1.00  0.00     0.266 C 
HETATM   23  O5  UNL     1      23.785  37.558   6.863  1.00  0.00    -0.269 OA
HETATM   24  N9  UNL     1      22.432  35.761   6.401  1.00  0.00    -0.323 N 
ATOM     25  H9  UNL     1      22.325  34.857   5.940  1.00  0.00     0.165 HD
BRANCH  24  26
HETATM   26  C9  UNL     1      21.327  36.311   7.150  1.00  0.00     0.323 C 
BRANCH  26  27
HETATM   27  O6  UNL     1      20.136  36.145   6.427  1.00  0.00    -0.367 OA
ATOM     28  H6  UNL     1      19.810  35.260   6.545  1.00  0.00     0.212 HD
ENDBRANCH  26  27
BRANCH  26  29
HETATM   29  C10 UNL     1      21.244  35.583   8.431  1.00  0.00     0.224 C 
HETATM   30  O7  UNL     1      20.369  35.895   9.257  1.00  0.00    -0.645 OA
HETATM   31  O8  UNL     1      22.125  34.569   8.707  1.00  0.00    -0.645 OA
ENDBRANCH  26  29
ENDBRANCH  24  26
ENDBRANCH  20  22
ENDBRANCH   6  17
BRANCH   8  32
HETATM   32  O10 UNL     1      27.670  37.251   7.510  1.00  0.00    -0.354 OA
ATOM     33  H10 UNL     1      27.236  37.577   8.290  1.00  0.00     0.218 HD
ENDBRANCH   8  32
BRANCH   1  34
HETATM   34  N2  UNL     1      30.125  37.350   9.215  1.00  0.00    -0.283 N 
HETATM   35  C1  UNL     1      30.590  38.631   8.825  1.00  0.00     0.388 C 
HETATM   36  O2  UNL     1      30.783  39.009   7.647  1.00  0.00    -0.236 OA
ATOM     37  H2  UNL     1      30.009  37.168  10.212  1.00  0.00     0.172 HD
BRANCH  35  38
HETATM   38  O1  UNL     1      30.878  39.614   9.801  1.00  0.00    -0.188 OA
BRANCH  38  39
HETATM   39  N1  UNL     1      32.156  39.900  10.182  1.00  0.00    -0.301 N 
ATOM     40  H12 UNL     1      32.626  40.685   9.731  1.00  0.00     0.184 HD
ATOM     41  H11 UNL     1      32.642  39.357  10.896  1.00  0.00     0.184 HD
ENDBRANCH  38  39
ENDBRANCH  35  38
ENDBRANCH   1  34
TORSDOF 11
ENDMDL
MODEL 2
REMARK VINA RESULT: -7.790398654      2.286      7.815
REMARK  11 active torsions:
REMARK  status: ('A' for Active; 'I' for Inactive)
REMARK    1  A    between atoms: N1_1  and  O1_4 
REMARK    2  A    between atoms: O1_4  and  C1_5 
REMARK       I    between atoms: C1_5  and  N2_7 
REMARK    3  A    between atoms: N2_7  and  C2_9 
REMARK    4  A    between atoms: N4_12  and  C3_13 
REMARK    5  A    between atoms: C4_17  and  O3_18 
REMARK    6  A    between atoms: N6_22  and  C6_24 
REMARK    7  A    between atoms: C7_27  and  C8_28 
REMARK       I    between atoms: C8_28  and  N9_30 
REMARK    8  A    between atoms: N9_30  and  C9_32 
REMARK    9  A    between atoms: C9_32  and  O6_33 
REMARK   10  A    between atoms: C9_32  and  C10_35 
REMARK   11  A    between atoms: C11_39  and  O10_40 
ROOT
HETATM    1  C2  UNL     1      24.168  35.932   7.323  1.00  0.00     0.162 A 
HETATM    2  N3  UNL     1      24.050  35.674   6.032  1.00  0.00    -0.275 N 
ATOM      3  H3  UNL     1      23.173  35.394   5.594  1.00  0.00     0.189 HD
HETATM    4  N4  UNL     1      25.163  35.813   5.377  1.00  0.00    -0.217 N 
HETATM    5  C5  UNL     1      26.122  36.196   6.275  1.00  0.00     0.163 A 
HETATM    6  N6  UNL     1      27.304  36.398   5.884  1.00  0.00    -0.332 N 
ATOM      7  H6  UNL     1      27.426  36.246   4.882  1.00  0.00     0.165 HD
HETATM    8  C11 UNL     1      25.523  36.277   7.507  1.00  0.00     0.157 A 
ENDROOT
BRANCH   4   9
HETATM    9  C3  UNL     1      25.359  35.600   3.934  1.00  0.00     0.461 C 
HETATM   10  N5  UNL     1      24.272  34.803   3.352  1.00  0.00     0.021 N 
HETATM   11  C4  UNL     1      25.189  33.687   3.393  1.00  0.00     0.475 C 
ATOM     12  H52 UNL     1      23.352  34.754   3.790  1.00  0.00     0.288 HD
ATOM     13  H51 UNL     1      23.809  35.081   2.487  1.00  0.00     0.288 HD
HETATM   14  O4  UNL     1      26.233  34.565   3.658  1.00  0.00    -0.287 OA
BRANCH  11  15
HETATM   15  O3  UNL     1      24.881  32.857   4.483  1.00  0.00    -0.349 OA
ATOM     16  H3  UNL     1      25.555  32.195   4.585  1.00  0.00     0.214 HD
ENDBRANCH  11  15
ENDBRANCH   4   9
BRANCH   6  17
HETATM   17  C6  UNL     1      28.486  36.787   6.531  1.00  0.00     0.340 C 
HETATM   18  N7  UNL     1      29.620  36.923   5.615  1.00  0.00    -0.092 NA
HETATM   19  N8  UNL     1      30.752  36.482   6.303  1.00  0.00    -0.102 NA
HETATM   20  C7  UNL     1      30.262  36.325   7.656  1.00  0.00     0.326 C 
HETATM   21  O9  UNL     1      28.983  35.798   7.416  1.00  0.00    -0.319 OA
BRANCH  20  22
HETATM   22  C8  UNL     1      31.126  35.422   8.399  1.00  0.00     0.266 C 
HETATM   23  O5  UNL     1      32.097  35.865   9.053  1.00  0.00    -0.269 OA
HETATM   24  N9  UNL     1      30.880  34.032   8.393  1.00  0.00    -0.323 N 
ATOM     25  H9  UNL     1      30.091  33.666   7.862  1.00  0.00     0.165 HD
BRANCH  24  26
HETATM   26  C9  UNL     1      31.727  33.120   9.125  1.00  0.00     0.323 C 
BRANCH  26  27
HETATM   27  O6  UNL     1      31.697  33.440  10.491  1.00  0.00    -0.367 OA
ATOM     28  H6  UNL     1      32.539  33.793  10.756  1.00  0.00     0.212 HD
ENDBRANCH  26  27
BRANCH  26  29
HETATM   29  C10 UNL     1      31.206  31.756   8.916  1.00  0.00     0.224 C 
HETATM   30  O7  UNL     1      30.072  31.601   8.430  1.00  0.00    -0.645 OA
HETATM   31  O8  UNL     1      31.967  30.666   9.255  1.00  0.00    -0.645 OA
ENDBRANCH  26  29
ENDBRANCH  24  26
ENDBRANCH  20  22
ENDBRANCH   6  17
BRANCH   8  32
HETATM   32  O10 UNL     1      26.085  36.626   8.727  1.00  0.00    -0.354 OA
ATOM     33  H10 UNL     1      26.778  37.267   8.835  1.00  0.00     0.218 HD
ENDBRANCH   8  32
BRANCH   1  34
HETATM   34  N2  UNL     1      23.207  35.896   8.362  1.00  0.00    -0.283 N 
HETATM   35  C1  UNL     1      21.972  35.205   8.282  1.00  0.00     0.388 C 
HETATM   36  O2  UNL     1      21.570  34.542   7.299  1.00  0.00    -0.236 OA
ATOM     37  H2  UNL     1      23.417  36.401   9.223  1.00  0.00     0.172 HD
BRANCH  35  38
HETATM   38  O1  UNL     1      21.071  35.225   9.372  1.00  0.00    -0.188 OA
BRANCH  38  39
HETATM   39  N1  UNL     1      19.963  36.019   9.379  1.00  0.00    -0.301 N 
ATOM     40  H12 UNL     1      19.051  35.569   9.465  1.00  0.00     0.184 HD
ATOM     41  H11 UNL     1      20.025  37.035   9.302  1.00  0.00     0.184 HD
ENDBRANCH  38  39
ENDBRANCH  35  38
ENDBRANCH   1  34
TORSDOF 11
ENDMDL
MODEL 3
REMARK VINA RESULT: -7.709617158      4.951      9.851
REMARK  11 active torsions:
REMARK  status: ('A' for Active; 'I' for Inactive)
REMARK    1  A    between atoms: N1_1  and  O1_4 
REMARK    2  A    between atoms: O1_4  and  C1_5 
REMARK       I    between atoms: C1_5  and  N2_7 
REMARK    3  A    between atoms: N2_7  and  C2_9 
REMARK    4  A    between atoms: N4_12  and  C3_13 
REMARK    5  A    between atoms: C4_17  and  O3_18 
REMARK    6  A    between atoms: N6_22  and  C6_24 
REMARK    7  A    between atoms: C7_27  and  C8_28 
REMARK       I    between atoms: C8_28  and  N9_30 
REMARK    8  A    between atoms: N9_30  and  C9_32 
REMARK    9  A    between atoms: C9_32  and  O6_33 
REMARK   10  A    between atoms: C9_32  and  C10_35 
REMARK   11  A    between atoms: C11_39  and  O10_40 
ROOT
HETATM    1  C2  UNL     1      20.203  37.026   1.857  1.00  0.00     0.162 A 
HETATM    2  N3  UNL     1      20.123  35.993   1.036  1.00  0.00    -0.275 N 
ATOM      3  H3  UNL     1      19.882  36.079   0.049  1.00  0.00     0.189 HD
HETATM    4  N4  UNL     1      20.383  34.858   1.611  1.00  0.00    -0.217 N 
HETATM    5  C5  UNL     1      20.665  35.119   2.924  1.00  0.00     0.163 A 
HETATM    6  N6  UNL     1      20.953  34.171   3.705  1.00  0.00    -0.332 N 
ATOM      7  H6  UNL     1      20.945  33.259   3.248  1.00  0.00     0.165 HD
HETATM    8  C11 UNL     1      20.558  36.475   3.106  1.00  0.00     0.157 A 
ENDROOT
BRANCH   4   9
HETATM    9  C3  UNL     1      20.378  33.533   0.969  1.00  0.00     0.461 C 
HETATM   10  N5  UNL     1      19.887  33.603  -0.413  1.00  0.00     0.021 N 
HETATM   11  C4  UNL     1      18.638  33.090   0.101  1.00  0.00     0.475 C 
ATOM     12  H52 UNL     1      19.927  34.469  -0.950  1.00  0.00     0.288 HD
ATOM     13  H51 UNL     1      20.379  33.143  -1.178  1.00  0.00     0.288 HD
HETATM   14  O4  UNL     1      19.266  32.781   1.301  1.00  0.00    -0.287 OA
BRANCH  11  15
HETATM   15  O3  UNL     1      17.707  34.133   0.222  1.00  0.00    -0.349 OA
ATOM     16  H3  UNL     1      16.838  33.776   0.362  1.00  0.00     0.214 HD
ENDBRANCH  11  15
ENDBRANCH   4   9
BRANCH   6  17
HETATM   17  C6  UNL     1      21.282  34.103   5.067  1.00  0.00     0.340 C 
HETATM   18  N7  UNL     1      20.277  34.729   5.929  1.00  0.00    -0.092 NA
HETATM   19  N8  UNL     1      20.967  35.341   6.976  1.00  0.00    -0.102 NA
HETATM   20  C7  UNL     1      22.318  34.852   6.799  1.00  0.00     0.326 C 
HETATM   21  O9  UNL     1      22.425  34.871   5.399  1.00  0.00    -0.319 OA
BRANCH  20  22
HETATM   22  C8  UNL     1      23.263  35.738   7.461  1.00  0.00     0.266 C 
HETATM   23  O5  UNL     1      22.896  36.461   8.413  1.00  0.00    -0.269 OA
HETATM   24  N9  UNL     1      24.607  35.791   7.036  1.00  0.00    -0.323 N 
ATOM     25  H9  UNL     1      24.911  35.203   6.261  1.00  0.00     0.165 HD
BRANCH  24  26
HETATM   26  C9  UNL     1      25.560  36.664   7.681  1.00  0.00     0.323 C 
BRANCH  26  27
HETATM   27  O6  UNL     1      25.551  36.435   9.065  1.00  0.00    -0.367 OA
ATOM     28  H6  UNL     1      24.770  36.819   9.448  1.00  0.00     0.212 HD
ENDBRANCH  26  27
BRANCH  26  29
HETATM   29  C10 UNL     1      26.895  36.360   7.129  1.00  0.00     0.224 C 
HETATM   30  O7  UNL     1      27.015  36.115   5.916  1.00  0.00    -0.645 OA
HETATM   31  O8  UNL     1      27.994  36.349   7.949  1.00  0.00    -0.645 OA
ENDBRANCH  26  29
ENDBRANCH  24  26
ENDBRANCH  20  22
ENDBRANCH   6  17
BRANCH   8  32
HETATM   32  O10 UNL     1      20.750  37.216   4.264  1.00  0.00    -0.354 OA
ATOM     33  H10 UNL     1      21.154  36.879   5.055  1.00  0.00     0.218 HD
ENDBRANCH   8  32
BRANCH   1  34
HETATM   34  N2  UNL     1      19.996  38.407   1.625  1.00  0.00    -0.283 N 
HETATM   35  C1  UNL     1      20.309  39.067   0.411  1.00  0.00     0.388 C 
HETATM   36  O2  UNL     1      20.802  38.528  -0.606  1.00  0.00    -0.236 OA
ATOM     37  H2  UNL     1      19.596  38.962   2.382  1.00  0.00     0.172 HD
BRANCH  35  38
HETATM   38  O1  UNL     1      20.067  40.453   0.269  1.00  0.00    -0.188 OA
BRANCH  38  39
HETATM   39  N1  UNL     1      20.863  41.251  -0.500  1.00  0.00    -0.301 N 
ATOM     40  H12 UNL     1      21.439  40.806  -1.215  1.00  0.00     0.184 HD
ATOM     41  H11 UNL     1      20.894  42.263  -0.377  1.00  0.00     0.184 HD
ENDBRANCH  38  39
ENDBRANCH  35  38
ENDBRANCH   1  34
TORSDOF 11
ENDMDL
MODEL 4
REMARK VINA RESULT: -7.680957296      1.690      4.213
REMARK  11 active torsions:
REMARK  status: ('A' for Active; 'I' for Inactive)
REMARK    1  A    between atoms: N1_1  and  O1_4 
REMARK    2  A    between atoms: O1_4  and  C1_5 
REMARK       I    between atoms: C1_5  and  N2_7 
REMARK    3  A    between atoms: N2_7  and  C2_9 
REMARK    4  A    between atoms: N4_12  and  C3_13 
REMARK    5  A    between atoms: C4_17  and  O3_18 
REMARK    6  A    between atoms: N6_22  and  C6_24 
REMARK    7  A    between atoms: C7_27  and  C8_28 
REMARK       I    between atoms: C8_28  and  N9_30 
REMARK    8  A    between atoms: N9_30  and  C9_32 
REMARK    9  A    between atoms: C9_32  and  O6_33 
REMARK   10  A    between atoms: C9_32  and  C10_35 
REMARK   11  A    between atoms: C11_39  and  O10_40 
ROOT
HETATM    1  C2  UNL     1      29.436  33.991   6.323  1.00  0.00     0.162 A 
HETATM    2  N3  UNL     1      30.262  35.006   6.509  1.00  0.00    -0.275 N 
ATOM      3  H3  UNL     1      31.177  34.910   6.949  1.00  0.00     0.189 HD
HETATM    4  N4  UNL     1      29.793  36.135   6.074  1.00  0.00    -0.217 N 
HETATM    5  C5  UNL     1      28.554  35.890   5.549  1.00  0.00     0.163 A 
HETATM    6  N6  UNL     1      27.882  36.837   5.056  1.00  0.00    -0.332 N 
ATOM      7  H6  UNL     1      28.361  37.736   5.104  1.00  0.00     0.165 HD
HETATM    8  C11 UNL     1      28.304  34.548   5.694  1.00  0.00     0.157 A 
ENDROOT
BRANCH   4   9
HETATM    9  C3  UNL     1      30.469  37.442   6.134  1.00  0.00     0.461 C 
HETATM   10  N5  UNL     1      31.492  37.475   7.186  1.00  0.00     0.021 N 
HETATM   11  C4  UNL     1      30.530  38.210   7.974  1.00  0.00     0.475 C 
ATOM     12  H52 UNL     1      31.926  36.620   7.535  1.00  0.00     0.288 HD
ATOM     13  H51 UNL     1      32.429  37.839   7.010  1.00  0.00     0.288 HD
HETATM   14  O4  UNL     1      29.748  38.387   6.839  1.00  0.00    -0.287 OA
BRANCH  11  15
HETATM   15  O3  UNL     1      29.939  37.359   8.920  1.00  0.00    -0.349 OA
ATOM     16  H3  UNL     1      29.070  37.107   8.629  1.00  0.00     0.214 HD
ENDBRANCH  11  15
ENDBRANCH   4   9
BRANCH   6  17
HETATM   17  C6  UNL     1      26.616  36.918   4.456  1.00  0.00     0.340 C 
HETATM   18  N7  UNL     1      26.287  38.269   3.998  1.00  0.00    -0.092 NA
HETATM   19  N8  UNL     1      24.920  38.449   4.218  1.00  0.00    -0.102 NA
HETATM   20  C7  UNL     1      24.477  37.120   4.581  1.00  0.00     0.326 C 
HETATM   21  O9  UNL     1      25.557  36.685   5.367  1.00  0.00    -0.319 OA
BRANCH  20  22
HETATM   22  C8  UNL     1      23.223  37.192   5.315  1.00  0.00     0.266 C 
HETATM   23  O5  UNL     1      22.328  37.992   4.965  1.00  0.00    -0.269 OA
HETATM   24  N9  UNL     1      23.002  36.359   6.432  1.00  0.00    -0.323 N 
ATOM     25  H9  UNL     1      23.729  35.706   6.721  1.00  0.00     0.165 HD
BRANCH  24  26
HETATM   26  C9  UNL     1      21.764  36.417   7.173  1.00  0.00     0.323 C 
BRANCH  26  27
HETATM   27  O6  UNL     1      20.711  35.946   6.373  1.00  0.00    -0.367 OA
ATOM     28  H6  UNL     1      20.380  35.129   6.729  1.00  0.00     0.212 HD
ENDBRANCH  26  27
BRANCH  26  29
HETATM   29  C10 UNL     1      21.912  35.560   8.365  1.00  0.00     0.224 C 
HETATM   30  O7  UNL     1      22.902  34.815   8.464  1.00  0.00    -0.645 OA
HETATM   31  O8  UNL     1      20.966  35.588   9.358  1.00  0.00    -0.645 OA
ENDBRANCH  26  29
ENDBRANCH  24  26
ENDBRANCH  20  22
ENDBRANCH   6  17
BRANCH   8  32
HETATM   32  O10 UNL     1      27.182  33.826   5.314  1.00  0.00    -0.354 OA
ATOM     33  H10 UNL     1      26.752  33.906   4.471  1.00  0.00     0.218 HD
ENDBRANCH   8  32
BRANCH   1  34
HETATM   34  N2  UNL     1      29.570  32.620   6.651  1.00  0.00    -0.283 N 
HETATM   35  C1  UNL     1      30.323  32.133   7.749  1.00  0.00     0.388 C 
HETATM   36  O2  UNL     1      30.960  32.836   8.566  1.00  0.00    -0.236 OA
ATOM     37  H2  UNL     1      29.096  31.939   6.058  1.00  0.00     0.172 HD
BRANCH  35  38
HETATM   38  O1  UNL     1      30.402  30.743   8.000  1.00  0.00    -0.188 OA
BRANCH  38  39
HETATM   39  N1  UNL     1      29.628  30.134   8.943  1.00  0.00    -0.301 N 
ATOM     40  H12 UNL     1      28.718  29.773   8.656  1.00  0.00     0.184 HD
ATOM     41  H11 UNL     1      29.935  30.033   9.911  1.00  0.00     0.184 HD
ENDBRANCH  38  39
ENDBRANCH  35  38
ENDBRANCH   1  34
TORSDOF 11
ENDMDL
MODEL 5
REMARK VINA RESULT: -7.617718408      5.248      8.372
REMARK  11 active torsions:
REMARK  status: ('A' for Active; 'I' for Inactive)
REMARK    1  A    between atoms: N1_1  and  O1_4 
REMARK    2  A    between atoms: O1_4  and  C1_5 
REMARK       I    between atoms: C1_5  and  N2_7 
REMARK    3  A    between atoms: N2_7  and  C2_9 
REMARK    4  A    between atoms: N4_12  and  C3_13 
REMARK    5  A    between atoms: C4_17  and  O3_18 
REMARK    6  A    between atoms: N6_22  and  C6_24 
REMARK    7  A    between atoms: C7_27  and  C8_28 
REMARK       I    between atoms: C8_28  and  N9_30 
REMARK    8  A    between atoms: N9_30  and  C9_32 
REMARK    9  A    between atoms: C9_32  and  O6_33 
REMARK   10  A    between atoms: C9_32  and  C10_35 
REMARK   11  A    between atoms: C11_39  and  O10_40 
ROOT
HETATM    1  C2  UNL     1      21.830  34.691   5.804  1.00  0.00     0.162 A 
HETATM    2  N3  UNL     1      22.919  34.985   5.115  1.00  0.00    -0.275 N 
ATOM      3  H3  UNL     1      23.552  35.745   5.364  1.00  0.00     0.189 HD
HETATM    4  N4  UNL     1      23.103  34.210   4.090  1.00  0.00    -0.217 N 
HETATM    5  C5  UNL     1      22.071  33.312   4.064  1.00  0.00     0.163 A 
HETATM    6  N6  UNL     1      22.018  32.441   3.154  1.00  0.00    -0.332 N 
ATOM      7  H6  UNL     1      22.795  32.501   2.496  1.00  0.00     0.165 HD
HETATM    8  C11 UNL     1      21.254  33.594   5.132  1.00  0.00     0.157 A 
ENDROOT
BRANCH   4   9
HETATM    9  C3  UNL     1      24.218  34.280   3.131  1.00  0.00     0.461 C 
HETATM   10  N5  UNL     1      25.332  33.413   3.533  1.00  0.00     0.021 N 
HETATM   11  C4  UNL     1      25.981  34.616   4.002  1.00  0.00     0.475 C 
ATOM     12  H52 UNL     1      25.190  32.610   4.145  1.00  0.00     0.288 HD
ATOM     13  H51 UNL     1      25.787  32.785   2.870  1.00  0.00     0.288 HD
HETATM   14  O4  UNL     1      25.031  35.379   3.334  1.00  0.00    -0.287 OA
BRANCH  11  15
HETATM   15  O3  UNL     1      25.871  34.703   5.399  1.00  0.00    -0.349 OA
ATOM     16  H3  UNL     1      26.719  34.553   5.799  1.00  0.00     0.214 HD
ENDBRANCH  11  15
ENDBRANCH   4   9
BRANCH   6  17
HETATM   17  C6  UNL     1      21.119  31.407   2.852  1.00  0.00     0.340 C 
HETATM   18  N7  UNL     1      19.764  31.889   2.584  1.00  0.00    -0.092 NA
HETATM   19  N8  UNL     1      18.885  30.940   3.110  1.00  0.00    -0.102 NA
HETATM   20  C7  UNL     1      19.766  29.846   3.456  1.00  0.00     0.326 C 
HETATM   21  O9  UNL     1      20.878  30.546   3.952  1.00  0.00    -0.319 OA
BRANCH  20  22
HETATM   22  C8  UNL     1      19.136  28.990   4.449  1.00  0.00     0.266 C 
HETATM   23  O5  UNL     1      18.903  27.787   4.195  1.00  0.00    -0.269 OA
HETATM   24  N9  UNL     1      18.780  29.506   5.713  1.00  0.00    -0.323 N 
ATOM     25  H9  UNL     1      18.968  30.486   5.925  1.00  0.00     0.165 HD
BRANCH  24  26
HETATM   26  C9  UNL     1      18.153  28.672   6.712  1.00  0.00     0.323 C 
BRANCH  26  27
HETATM   27  O6  UNL     1      18.960  28.621   7.859  1.00  0.00    -0.367 OA
ATOM     28  H6  UNL     1      18.474  28.226   8.575  1.00  0.00     0.212 HD
ENDBRANCH  26  27
BRANCH  26  29
HETATM   29  C10 UNL     1      16.845  29.270   7.042  1.00  0.00     0.224 C 
HETATM   30  O7  UNL     1      15.902  29.160   6.240  1.00  0.00    -0.645 OA
HETATM   31  O8  UNL     1      16.672  29.940   8.226  1.00  0.00    -0.645 OA
ENDBRANCH  26  29
ENDBRANCH  24  26
ENDBRANCH  20  22
ENDBRANCH   6  17
BRANCH   8  32
HETATM   32  O10 UNL     1      20.084  32.959   5.523  1.00  0.00    -0.354 OA
ATOM     33  H10 UNL     1      19.280  32.957   5.018  1.00  0.00     0.218 HD
ENDBRANCH   8  32
BRANCH   1  34
HETATM   34  N2  UNL     1      21.285  35.288   6.967  1.00  0.00    -0.283 N 
HETATM   35  C1  UNL     1      21.947  35.345   8.219  1.00  0.00     0.388 C 
HETATM   36  O2  UNL     1      23.085  34.884   8.463  1.00  0.00    -0.236 OA
ATOM     37  H2  UNL     1      20.355  35.703   6.899  1.00  0.00     0.172 HD
BRANCH  35  38
HETATM   38  O1  UNL     1      21.324  35.962   9.328  1.00  0.00    -0.188 OA
BRANCH  38  39
HETATM   39  N1  UNL     1      19.967  36.015   9.459  1.00  0.00    -0.301 N 
ATOM     40  H12 UNL     1      19.399  35.816   8.635  1.00  0.00     0.184 HD
ATOM     41  H11 UNL     1      19.518  36.244  10.346  1.00  0.00     0.184 HD
ENDBRANCH  38  39
ENDBRANCH  35  38
ENDBRANCH   1  34
TORSDOF 11
ENDMDL
