MODEL 1
REMARK VINA RESULT: -7.243289270      0.000      0.000
REMARK  10 active torsions:
REMARK  status: ('A' for Active; 'I' for Inactive)
REMARK    1  A    between atoms: C2_2  and  C4_12 
REMARK    2  A    between atoms: N1_3  and  N2_5 
REMARK       I    between atoms: N2_5  and  C3_7 
REMARK    3  A    between atoms: C4_12  and  O2_14 
REMARK    4  A    between atoms: O2_14  and  C5_15 
REMARK    5  A    between atoms: C5_15  and  C7_17 
REMARK    6  A    between atoms: C7_17  and  N7_25 
REMARK    7  A    between atoms: N5_18  and  O3_20 
REMARK    8  A    between atoms: O3_20  and  N6_21 
REMARK    9  A    between atoms: N6_21  and  O4_23 
REMARK   10  A    between atoms: N7_25  and  C8_27 
ROOT
HETATM    1  C7  UNL     1      20.523  44.162  -1.445  1.00  0.00     0.129 C 
HETATM    2  N5  UNL     1      21.150  43.990  -0.337  1.00  0.00    -0.225 N 
ATOM      3  H5  UNL     1      22.096  43.612  -0.382  1.00  0.00     0.198 HD
ENDROOT
BRANCH   1   4
HETATM    4  C5  UNL     1      21.138  43.824  -2.753  1.00  0.00     0.197 C 
HETATM    5  C6  UNL     1      22.458  44.485  -2.995  1.00  0.00     0.048 C 
BRANCH   4   6
HETATM    6  O2  UNL     1      21.264  42.410  -2.785  1.00  0.00    -0.304 OA
BRANCH   6   7
HETATM    7  C4  UNL     1      20.223  41.626  -3.196  1.00  0.00     0.307 C 
HETATM    8  O1  UNL     1      19.497  41.998  -4.147  1.00  0.00    -0.258 OA
BRANCH   7   9
HETATM    9  C2  UNL     1      19.938  40.360  -2.548  1.00  0.00     0.097 C 
HETATM   10  C1  UNL     1      21.088  39.445  -2.257  1.00  0.00     0.076 C 
HETATM   11  N1  UNL     1      18.735  40.054  -2.247  1.00  0.00    -0.297 N 
ATOM     12  H1  UNL     1      18.566  39.155  -1.795  1.00  0.00     0.187 HD
BRANCH  11  13
HETATM   13  N2  UNL     1      17.642  40.878  -2.501  1.00  0.00    -0.274 N 
HETATM   14  C3  UNL     1      16.677  41.193  -1.502  1.00  0.00     0.200 C 
HETATM   15  N3  UNL     1      15.538  41.642  -1.861  1.00  0.00    -0.372 N 
HETATM   16  N4  UNL     1      16.966  41.012  -0.120  1.00  0.00    -0.062 NA
ATOM     17  H32 UNL     1      15.330  41.771  -2.852  1.00  0.00     0.158 HD
ATOM     18  H31 UNL     1      14.846  41.867  -1.146  1.00  0.00     0.158 HD
ATOM     19  H2  UNL     1      17.528  41.270  -3.436  1.00  0.00     0.189 HD
ENDBRANCH  11  13
ENDBRANCH   7   9
ENDBRANCH   6   7
ENDBRANCH   4   6
ENDBRANCH   1   4
BRANCH   1  20
HETATM   20  N7  UNL     1      19.209  44.674  -1.406  1.00  0.00    -0.371 N 
ATOM     21  H7  UNL     1      18.667  44.560  -0.549  1.00  0.00     0.161 HD
BRANCH  20  22
HETATM   22  C8  UNL     1      18.600  45.345  -2.511  1.00  0.00     0.087 C 
HETATM   23  C9  UNL     1      18.473  46.811  -2.184  1.00  0.00     0.031 C 
HETATM   24  C10 UNL     1      17.822  47.576  -3.318  1.00  0.00     0.060 C 
HETATM   25  C11 UNL     1      16.441  47.028  -3.447  1.00  0.00     0.027 A 
HETATM   26  C12 UNL     1      16.241  45.712  -3.189  1.00  0.00     0.035 A 
HETATM   27  N9  UNL     1      15.458  47.892  -3.820  1.00  0.00    -0.307 N 
HETATM   28  C13 UNL     1      14.941  45.213  -3.314  1.00  0.00     0.257 A 
HETATM   29  C16 UNL     1      17.251  44.714  -2.779  1.00  0.00     0.071 C 
HETATM   30  O5  UNL     1      14.659  44.009  -3.097  1.00  0.00    -0.267 OA
HETATM   31  N8  UNL     1      13.977  46.072  -3.683  1.00  0.00    -0.275 N 
HETATM   32  C14 UNL     1      14.223  47.382  -3.931  1.00  0.00     0.329 A 
ATOM     33  H8  UNL     1      13.022  45.726  -3.780  1.00  0.00     0.173 HD
HETATM   34  O6  UNL     1      13.303  48.172  -4.275  1.00  0.00    -0.246 OA
HETATM   35  C15 UNL     1      15.789  49.267  -4.068  1.00  0.00     0.161 C 
ENDBRANCH  20  22
ENDBRANCH   1  20
BRANCH   2  36
HETATM   36  O3  UNL     1      20.643  44.278   0.897  1.00  0.00    -0.134 OA
BRANCH  36  37
HETATM   37  N6  UNL     1      20.763  45.555   1.436  1.00  0.00    -0.149 N 
ATOM     38  H6  UNL     1      21.512  45.754   2.098  1.00  0.00     0.226 HD
BRANCH  37  39
HETATM   39  O4  UNL     1      19.975  46.449   1.121  1.00  0.00    -0.268 OA
ATOM     40  H4  UNL     1      19.286  46.721   1.716  1.00  0.00     0.246 HD
ENDBRANCH  37  39
ENDBRANCH  36  37
ENDBRANCH   2  36
TORSDOF 10
ENDMDL
MODEL 2
REMARK VINA RESULT: -7.067705814      3.434      6.358
REMARK  10 active torsions:
REMARK  status: ('A' for Active; 'I' for Inactive)
REMARK    1  A    between atoms: C2_2  and  C4_12 
REMARK    2  A    between atoms: N1_3  and  N2_5 
REMARK       I    between atoms: N2_5  and  C3_7 
REMARK    3  A    between atoms: C4_12  and  O2_14 
REMARK    4  A    between atoms: O2_14  and  C5_15 
REMARK    5  A    between atoms: C5_15  and  C7_17 
REMARK    6  A    between atoms: C7_17  and  N7_25 
REMARK    7  A    between atoms: N5_18  and  O3_20 
REMARK    8  A    between atoms: O3_20  and  N6_21 
REMARK    9  A    between atoms: N6_21  and  O4_23 
REMARK   10  A    between atoms: N7_25  and  C8_27 
ROOT
HETATM    1  C7  UNL     1      20.850  40.890  -1.804  1.00  0.00     0.129 C 
HETATM    2  N5  UNL     1      21.032  39.805  -1.142  1.00  0.00    -0.225 N 
ATOM      3  H5  UNL     1      21.747  39.809  -0.414  1.00  0.00     0.198 HD
ENDROOT
BRANCH   1   4
HETATM    4  C5  UNL     1      21.644  42.115  -1.536  1.00  0.00     0.197 C 
HETATM    5  C6  UNL     1      23.017  42.093  -2.128  1.00  0.00     0.048 C 
BRANCH   4   6
HETATM    6  O2  UNL     1      20.887  43.204  -2.046  1.00  0.00    -0.304 OA
BRANCH   6   7
HETATM    7  C4  UNL     1      19.986  43.858  -1.255  1.00  0.00     0.307 C 
HETATM    8  O1  UNL     1      20.105  43.820  -0.008  1.00  0.00    -0.258 OA
BRANCH   7   9
HETATM    9  C2  UNL     1      18.884  44.602  -1.833  1.00  0.00     0.097 C 
HETATM   10  C1  UNL     1      19.081  46.066  -2.086  1.00  0.00     0.076 C 
HETATM   11  N1  UNL     1      17.787  44.010  -2.108  1.00  0.00    -0.297 N 
ATOM     12  H1  UNL     1      17.029  44.561  -2.510  1.00  0.00     0.187 HD
BRANCH  11  13
HETATM   13  N2  UNL     1      17.567  42.652  -1.887  1.00  0.00    -0.274 N 
HETATM   14  C3  UNL     1      16.272  42.066  -1.975  1.00  0.00     0.200 C 
HETATM   15  N3  UNL     1      16.068  40.930  -1.432  1.00  0.00    -0.372 N 
HETATM   16  N4  UNL     1      15.212  42.729  -2.657  1.00  0.00    -0.062 NA
ATOM     17  H32 UNL     1      16.828  40.455  -0.944  1.00  0.00     0.158 HD
ATOM     18  H31 UNL     1      15.141  40.510  -1.495  1.00  0.00     0.158 HD
ATOM     19  H2  UNL     1      18.362  42.056  -1.655  1.00  0.00     0.189 HD
ENDBRANCH  11  13
ENDBRANCH   7   9
ENDBRANCH   6   7
ENDBRANCH   4   6
ENDBRANCH   1   4
BRANCH   1  20
HETATM   20  N7  UNL     1      19.874  40.904  -2.824  1.00  0.00    -0.371 N 
ATOM     21  H7  UNL     1      18.893  40.993  -2.556  1.00  0.00     0.161 HD
BRANCH  20  22
HETATM   22  C8  UNL     1      20.193  40.800  -4.212  1.00  0.00     0.087 C 
HETATM   23  C9  UNL     1      19.499  41.910  -4.959  1.00  0.00     0.031 C 
HETATM   24  C10 UNL     1      19.793  41.845  -6.444  1.00  0.00     0.060 C 
HETATM   25  C11 UNL     1      19.215  40.557  -6.924  1.00  0.00     0.027 A 
HETATM   26  C12 UNL     1      19.229  39.490  -6.087  1.00  0.00     0.035 A 
HETATM   27  N9  UNL     1      18.703  40.533  -8.185  1.00  0.00    -0.307 N 
HETATM   28  C13 UNL     1      18.683  38.290  -6.551  1.00  0.00     0.257 A 
HETATM   29  C16 UNL     1      19.761  39.438  -4.710  1.00  0.00     0.071 C 
HETATM   30  O5  UNL     1      18.653  37.249  -5.849  1.00  0.00    -0.267 OA
HETATM   31  N8  UNL     1      18.181  38.273  -7.796  1.00  0.00    -0.275 N 
HETATM   32  C14 UNL     1      18.188  39.365  -8.599  1.00  0.00     0.329 A 
ATOM     33  H8  UNL     1      17.780  37.405  -8.152  1.00  0.00     0.173 HD
HETATM   34  O6  UNL     1      17.710  39.329  -9.765  1.00  0.00    -0.246 OA
HETATM   35  C15 UNL     1      18.743  41.726  -8.982  1.00  0.00     0.161 C 
ENDBRANCH  20  22
ENDBRANCH   1  20
BRANCH   2  36
HETATM   36  O3  UNL     1      20.339  38.646  -1.339  1.00  0.00    -0.134 OA
BRANCH  36  37
HETATM   37  N6  UNL     1      19.166  38.390  -0.636  1.00  0.00    -0.149 N 
ATOM     38  H6  UNL     1      19.204  37.853   0.230  1.00  0.00     0.226 HD
BRANCH  37  39
HETATM   39  O4  UNL     1      18.080  38.806  -1.048  1.00  0.00    -0.268 OA
ATOM     40  H4  UNL     1      17.451  38.213  -1.442  1.00  0.00     0.246 HD
ENDBRANCH  37  39
ENDBRANCH  36  37
ENDBRANCH   2  36
TORSDOF 10
ENDMDL
MODEL 3
REMARK VINA RESULT: -7.020216500      2.310      4.010
REMARK  10 active torsions:
REMARK  status: ('A' for Active; 'I' for Inactive)
REMARK    1  A    between atoms: C2_2  and  C4_12 
REMARK    2  A    between atoms: N1_3  and  N2_5 
REMARK       I    between atoms: N2_5  and  C3_7 
REMARK    3  A    between atoms: C4_12  and  O2_14 
REMARK    4  A    between atoms: O2_14  and  C5_15 
REMARK    5  A    between atoms: C5_15  and  C7_17 
REMARK    6  A    between atoms: C7_17  and  N7_25 
REMARK    7  A    between atoms: N5_18  and  O3_20 
REMARK    8  A    between atoms: O3_20  and  N6_21 
REMARK    9  A    between atoms: N6_21  and  O4_23 
REMARK   10  A    between atoms: N7_25  and  C8_27 
ROOT
HETATM    1  C7  UNL     1      17.750  44.272  -2.224  1.00  0.00     0.129 C 
HETATM    2  N5  UNL     1      17.186  43.166  -1.898  1.00  0.00    -0.225 N 
ATOM      3  H5  UNL     1      17.713  42.523  -1.305  1.00  0.00     0.198 HD
ENDROOT
BRANCH   1   4
HETATM    4  C5  UNL     1      19.119  44.620  -1.767  1.00  0.00     0.197 C 
HETATM    5  C6  UNL     1      19.219  45.960  -1.110  1.00  0.00     0.048 C 
BRANCH   4   6
HETATM    6  O2  UNL     1      19.521  43.586  -0.880  1.00  0.00    -0.304 OA
BRANCH   6   7
HETATM    7  C4  UNL     1      20.670  42.882  -1.103  1.00  0.00     0.307 C 
HETATM    8  O1  UNL     1      21.564  42.851  -0.226  1.00  0.00    -0.258 OA
BRANCH   7   9
HETATM    9  C2  UNL     1      20.880  42.165  -2.346  1.00  0.00     0.097 C 
HETATM   10  C1  UNL     1      21.894  42.706  -3.307  1.00  0.00     0.076 C 
HETATM   11  N1  UNL     1      20.207  41.109  -2.595  1.00  0.00    -0.297 N 
ATOM     12  H1  UNL     1      20.375  40.628  -3.478  1.00  0.00     0.187 HD
BRANCH  11  13
HETATM   13  N2  UNL     1      19.257  40.576  -1.727  1.00  0.00    -0.274 N 
HETATM   14  C3  UNL     1      19.267  39.207  -1.334  1.00  0.00     0.200 C 
HETATM   15  N3  UNL     1      18.207  38.696  -0.842  1.00  0.00    -0.372 N 
HETATM   16  N4  UNL     1      20.437  38.409  -1.486  1.00  0.00    -0.062 NA
ATOM     17  H32 UNL     1      17.369  39.268  -0.734  1.00  0.00     0.158 HD
ATOM     18  H31 UNL     1      18.214  37.716  -0.561  1.00  0.00     0.158 HD
ATOM     19  H2  UNL     1      18.529  41.187  -1.359  1.00  0.00     0.189 HD
ENDBRANCH  11  13
ENDBRANCH   7   9
ENDBRANCH   6   7
ENDBRANCH   4   6
ENDBRANCH   1   4
BRANCH   1  20
HETATM   20  N7  UNL     1      17.045  45.172  -3.052  1.00  0.00    -0.371 N 
ATOM     21  H7  UNL     1      17.352  45.287  -4.018  1.00  0.00     0.161 HD
BRANCH  20  22
HETATM   22  C8  UNL     1      15.920  45.929  -2.602  1.00  0.00     0.087 C 
HETATM   23  C9  UNL     1      14.792  45.764  -3.588  1.00  0.00     0.031 C 
HETATM   24  C10 UNL     1      13.570  46.555  -3.168  1.00  0.00     0.060 C 
HETATM   25  C11 UNL     1      13.977  47.989  -3.193  1.00  0.00     0.027 A 
HETATM   26  C12 UNL     1      15.253  48.305  -2.860  1.00  0.00     0.035 A 
HETATM   27  N9  UNL     1      13.033  48.901  -3.553  1.00  0.00    -0.307 N 
HETATM   28  C13 UNL     1      15.620  49.654  -2.889  1.00  0.00     0.257 A 
HETATM   29  C16 UNL     1      16.332  47.378  -2.463  1.00  0.00     0.071 C 
HETATM   30  O5  UNL     1      16.777  50.042  -2.596  1.00  0.00    -0.267 OA
HETATM   31  N8  UNL     1      14.682  50.547  -3.244  1.00  0.00    -0.275 N 
HETATM   32  C14 UNL     1      13.417  50.186  -3.570  1.00  0.00     0.329 A 
ATOM     33  H8  UNL     1      14.931  51.537  -3.270  1.00  0.00     0.173 HD
HETATM   34  O6  UNL     1      12.552  51.041  -3.902  1.00  0.00    -0.246 OA
HETATM   35  C15 UNL     1      11.711  48.449  -3.885  1.00  0.00     0.161 C 
ENDBRANCH  20  22
ENDBRANCH   1  20
BRANCH   2  36
HETATM   36  O3  UNL     1      15.934  42.786  -2.285  1.00  0.00    -0.134 OA
BRANCH  36  37
HETATM   37  N6  UNL     1      15.501  41.476  -2.106  1.00  0.00    -0.149 N 
ATOM     38  H6  UNL     1      14.679  41.143  -2.609  1.00  0.00     0.226 HD
BRANCH  37  39
HETATM   39  O4  UNL     1      16.101  40.711  -1.347  1.00  0.00    -0.268 OA
ATOM     40  H4  UNL     1      16.870  40.238  -1.641  1.00  0.00     0.246 HD
ENDBRANCH  37  39
ENDBRANCH  36  37
ENDBRANCH   2  36
TORSDOF 10
ENDMDL
MODEL 4
REMARK VINA RESULT: -6.948320242      2.049      3.107
REMARK  10 active torsions:
REMARK  status: ('A' for Active; 'I' for Inactive)
REMARK    1  A    between atoms: C2_2  and  C4_12 
REMARK    2  A    between atoms: N1_3  and  N2_5 
REMARK       I    between atoms: N2_5  and  C3_7 
REMARK    3  A    between atoms: C4_12  and  O2_14 
REMARK    4  A    between atoms: O2_14  and  C5_15 
REMARK    5  A    between atoms: C5_15  and  C7_17 
REMARK    6  A    between atoms: C7_17  and  N7_25 
REMARK    7  A    between atoms: N5_18  and  O3_20 
REMARK    8  A    between atoms: O3_20  and  N6_21 
REMARK    9  A    between atoms: N6_21  and  O4_23 
REMARK   10  A    between atoms: N7_25  and  C8_27 
ROOT
HETATM    1  C7  UNL     1      20.031  42.661  -1.354  1.00  0.00     0.129 C 
HETATM    2  N5  UNL     1      19.431  41.536  -1.201  1.00  0.00    -0.225 N 
ATOM      3  H5  UNL     1      19.963  40.686  -1.391  1.00  0.00     0.198 HD
ENDROOT
BRANCH   1   4
HETATM    4  C5  UNL     1      21.447  42.741  -1.794  1.00  0.00     0.197 C 
HETATM    5  C6  UNL     1      22.275  43.707  -1.008  1.00  0.00     0.048 C 
BRANCH   4   6
HETATM    6  O2  UNL     1      21.972  41.424  -1.699  1.00  0.00    -0.304 OA
BRANCH   6   7
HETATM    7  C4  UNL     1      22.789  40.926  -2.674  1.00  0.00     0.307 C 
HETATM    8  O1  UNL     1      23.117  41.650  -3.644  1.00  0.00    -0.258 OA
BRANCH   7   9
HETATM    9  C2  UNL     1      23.288  39.567  -2.612  1.00  0.00     0.097 C 
HETATM   10  C1  UNL     1      24.636  39.341  -1.998  1.00  0.00     0.076 C 
HETATM   11  N1  UNL     1      22.585  38.606  -3.075  1.00  0.00    -0.297 N 
ATOM     12  H1  UNL     1      22.965  37.662  -3.019  1.00  0.00     0.187 HD
BRANCH  11  13
HETATM   13  N2  UNL     1      21.329  38.777  -3.652  1.00  0.00    -0.274 N 
HETATM   14  C3  UNL     1      20.122  38.556  -2.929  1.00  0.00     0.200 C 
HETATM   15  N3  UNL     1      19.036  38.381  -3.575  1.00  0.00    -0.372 N 
HETATM   16  N4  UNL     1      20.115  38.528  -1.505  1.00  0.00    -0.062 NA
ATOM     17  H32 UNL     1      19.042  38.401  -4.595  1.00  0.00     0.158 HD
ATOM     18  H31 UNL     1      18.172  38.222  -3.057  1.00  0.00     0.158 HD
ATOM     19  H2  UNL     1      21.271  39.071  -4.627  1.00  0.00     0.189 HD
ENDBRANCH  11  13
ENDBRANCH   7   9
ENDBRANCH   6   7
ENDBRANCH   4   6
ENDBRANCH   1   4
BRANCH   1  20
HETATM   20  N7  UNL     1      19.312  43.850  -1.107  1.00  0.00    -0.371 N 
ATOM     21  H7  UNL     1      19.142  44.123  -0.139  1.00  0.00     0.161 HD
BRANCH  20  22
HETATM   22  C8  UNL     1      18.812  44.690  -2.149  1.00  0.00     0.087 C 
HETATM   23  C9  UNL     1      18.775  46.114  -1.655  1.00  0.00     0.031 C 
HETATM   24  C10 UNL     1      18.241  47.054  -2.717  1.00  0.00     0.060 C 
HETATM   25  C11 UNL     1      16.833  46.634  -2.970  1.00  0.00     0.027 A 
HETATM   26  C12 UNL     1      16.524  45.317  -2.880  1.00  0.00     0.035 A 
HETATM   27  N9  UNL     1      15.936  47.610  -3.278  1.00  0.00    -0.307 N 
HETATM   28  C13 UNL     1      15.200  44.939  -3.120  1.00  0.00     0.257 A 
HETATM   29  C16 UNL     1      17.437  44.202  -2.549  1.00  0.00     0.071 C 
HETATM   30  O5  UNL     1      14.821  43.743  -3.060  1.00  0.00    -0.267 OA
HETATM   31  N8  UNL     1      14.321  45.907  -3.424  1.00  0.00    -0.275 N 
HETATM   32  C14 UNL     1      14.674  47.213  -3.503  1.00  0.00     0.329 A 
ATOM     33  H8  UNL     1      13.350  45.650  -3.603  1.00  0.00     0.173 HD
HETATM   34  O6  UNL     1      13.832  48.107  -3.789  1.00  0.00    -0.246 OA
HETATM   35  C15 UNL     1      16.377  48.974  -3.346  1.00  0.00     0.161 C 
ENDBRANCH  20  22
ENDBRANCH   1  20
BRANCH   2  36
HETATM   36  O3  UNL     1      18.134  41.394  -0.801  1.00  0.00    -0.134 OA
BRANCH  36  37
HETATM   37  N6  UNL     1      17.422  40.235  -1.095  1.00  0.00    -0.149 N 
ATOM     38  H6  UNL     1      16.866  40.188  -1.948  1.00  0.00     0.226 HD
BRANCH  37  39
HETATM   39  O4  UNL     1      17.457  39.264  -0.336  1.00  0.00    -0.268 OA
ATOM     40  H4  UNL     1      17.402  38.379  -0.676  1.00  0.00     0.246 HD
ENDBRANCH  37  39
ENDBRANCH  36  37
ENDBRANCH   2  36
TORSDOF 10
ENDMDL
MODEL 5
REMARK VINA RESULT: -6.930584439      1.255      1.312
REMARK  10 active torsions:
REMARK  status: ('A' for Active; 'I' for Inactive)
REMARK    1  A    between atoms: C2_2  and  C4_12 
REMARK    2  A    between atoms: N1_3  and  N2_5 
REMARK       I    between atoms: N2_5  and  C3_7 
REMARK    3  A    between atoms: C4_12  and  O2_14 
REMARK    4  A    between atoms: O2_14  and  C5_15 
REMARK    5  A    between atoms: C5_15  and  C7_17 
REMARK    6  A    between atoms: C7_17  and  N7_25 
REMARK    7  A    between atoms: N5_18  and  O3_20 
REMARK    8  A    between atoms: O3_20  and  N6_21 
REMARK    9  A    between atoms: N6_21  and  O4_23 
REMARK   10  A    between atoms: N7_25  and  C8_27 
ROOT
HETATM    1  C7  UNL     1      21.212  43.736  -0.834  1.00  0.00     0.129 C 
HETATM    2  N5  UNL     1      21.957  43.892   0.201  1.00  0.00    -0.225 N 
ATOM      3  H5  UNL     1      22.899  43.503   0.169  1.00  0.00     0.198 HD
ENDROOT
BRANCH   1   4
HETATM    4  C5  UNL     1      21.688  43.016  -2.041  1.00  0.00     0.197 C 
HETATM    5  C6  UNL     1      23.166  42.784  -2.069  1.00  0.00     0.048 C 
BRANCH   4   6
HETATM    6  O2  UNL     1      20.979  41.786  -2.082  1.00  0.00    -0.304 OA
BRANCH   6   7
HETATM    7  C4  UNL     1      20.351  41.380  -3.225  1.00  0.00     0.307 C 
HETATM    8  O1  UNL     1      20.250  42.167  -4.196  1.00  0.00    -0.258 OA
BRANCH   7   9
HETATM    9  C2  UNL     1      19.793  40.047  -3.341  1.00  0.00     0.097 C 
HETATM   10  C1  UNL     1      20.638  38.984  -3.973  1.00  0.00     0.076 C 
HETATM   11  N1  UNL     1      18.613  39.809  -2.913  1.00  0.00    -0.297 N 
ATOM     12  H1  UNL     1      18.248  38.862  -3.012  1.00  0.00     0.187 HD
BRANCH  11  13
HETATM   13  N2  UNL     1      17.799  40.770  -2.320  1.00  0.00    -0.274 N 
HETATM   14  C3  UNL     1      17.156  40.556  -1.068  1.00  0.00     0.200 C 
HETATM   15  N3  UNL     1      16.166  41.294  -0.745  1.00  0.00    -0.372 N 
HETATM   16  N4  UNL     1      17.601  39.535  -0.180  1.00  0.00    -0.062 NA
ATOM     17  H32 UNL     1      15.847  42.025  -1.381  1.00  0.00     0.158 HD
ATOM     18  H31 UNL     1      15.706  41.140   0.152  1.00  0.00     0.158 HD
ATOM     19  H2  UNL     1      17.658  41.660  -2.799  1.00  0.00     0.189 HD
ENDBRANCH  11  13
ENDBRANCH   7   9
ENDBRANCH   6   7
ENDBRANCH   4   6
ENDBRANCH   1   4
BRANCH   1  20
HETATM   20  N7  UNL     1      19.900  44.256  -0.808  1.00  0.00    -0.371 N 
ATOM     21  H7  UNL     1      19.361  44.171   0.054  1.00  0.00     0.161 HD
BRANCH  20  22
HETATM   22  C8  UNL     1      19.292  44.896  -1.931  1.00  0.00     0.087 C 
HETATM   23  C9  UNL     1      19.031  46.340  -1.590  1.00  0.00     0.031 C 
HETATM   24  C10 UNL     1      18.374  47.071  -2.743  1.00  0.00     0.060 C 
HETATM   25  C11 UNL     1      17.051  46.417  -2.947  1.00  0.00     0.027 A 
HETATM   26  C12 UNL     1      16.946  45.084  -2.718  1.00  0.00     0.035 A 
HETATM   27  N9  UNL     1      16.019  47.205  -3.355  1.00  0.00    -0.307 N 
HETATM   28  C13 UNL     1      15.698  44.484  -2.914  1.00  0.00     0.257 A 
HETATM   29  C16 UNL     1      18.013  44.164  -2.274  1.00  0.00     0.071 C 
HETATM   30  O5  UNL     1      15.505  43.258  -2.728  1.00  0.00    -0.267 OA
HETATM   31  N8  UNL     1      14.686  45.269  -3.317  1.00  0.00    -0.275 N 
HETATM   32  C14 UNL     1      14.836  46.598  -3.534  1.00  0.00     0.329 A 
ATOM     33  H8  UNL     1      13.768  44.849  -3.466  1.00  0.00     0.173 HD
HETATM   34  O6  UNL     1      13.872  47.318  -3.911  1.00  0.00    -0.246 OA
HETATM   35  C15 UNL     1      16.248  48.607  -3.567  1.00  0.00     0.161 C 
ENDBRANCH  20  22
ENDBRANCH   1  20
BRANCH   2  36
HETATM   36  O3  UNL     1      21.580  44.541   1.341  1.00  0.00    -0.134 OA
BRANCH  36  37
HETATM   37  N6  UNL     1      22.527  44.941   2.278  1.00  0.00    -0.149 N 
ATOM     38  H6  UNL     1      22.436  44.637   3.247  1.00  0.00     0.226 HD
BRANCH  37  39
HETATM   39  O4  UNL     1      23.474  45.659   1.950  1.00  0.00    -0.268 OA
ATOM     40  H4  UNL     1      24.256  45.707   2.487  1.00  0.00     0.246 HD
ENDBRANCH  37  39
ENDBRANCH  36  37
ENDBRANCH   2  36
TORSDOF 10
ENDMDL
