MODEL 1
REMARK VINA RESULT: -7.944032946      0.000      0.000
REMARK  5 active torsions:
REMARK  status: ('A' for Active; 'I' for Inactive)
REMARK    1  A    between atoms: S1_3  and  C2_4 
REMARK    2  A    between atoms: C2_4  and  N3_8 
REMARK    3  A    between atoms: N3_8  and  N4_10 
REMARK    4  A    between atoms: C3_12  and  C4_13 
REMARK    5  A    between atoms: C8_17  and  N5_18 
ROOT
HETATM    1  N1  UNL     1      34.792  44.868  16.071  1.00  0.00    -0.184 NA
HETATM    2  C1  UNL     1      34.032  44.417  16.846  1.00  0.00     0.141 C 
HETATM    3  S1  UNL     1      32.893  43.748  18.009  1.00  0.00     0.027 SA
ENDROOT
BRANCH   3   4
HETATM    4  C2  UNL     1      32.538  44.918  19.298  1.00  0.00     0.167 C 
HETATM    5  N2  UNL     1      32.545  44.562  20.529  1.00  0.00    -0.378 N 
ATOM      6  H22 UNL     1      32.753  43.598  20.787  1.00  0.00     0.158 HD
ATOM      7  H21 UNL     1      32.341  45.234  21.269  1.00  0.00     0.158 HD
BRANCH   4   8
HETATM    8  N3  UNL     1      32.250  46.253  18.941  1.00  0.00    -0.280 N 
ATOM      9  H3  UNL     1      31.273  46.496  18.778  1.00  0.00     0.189 HD
BRANCH   8  10
HETATM   10  N4  UNL     1      33.188  47.252  18.796  1.00  0.00    -0.309 N 
HETATM   11  C3  UNL     1      33.435  47.912  17.737  1.00  0.00     0.118 C 
ATOM     12  H4  UNL     1      33.739  47.487  19.622  1.00  0.00     0.186 HD
BRANCH  11  13
HETATM   13  C4  UNL     1      34.464  48.934  17.770  1.00  0.00    -0.017 A 
HETATM   14  C5  UNL     1      35.623  48.781  17.051  1.00  0.00     0.013 A 
HETATM   15  C6  UNL     1      36.633  49.742  17.061  1.00  0.00     0.003 A 
HETATM   16  C7  UNL     1      36.419  50.857  17.823  1.00  0.00     0.036 A 
HETATM   17  C8  UNL     1      35.269  51.054  18.561  1.00  0.00     0.103 A 
HETATM   18  C9  UNL     1      34.299  50.071  18.519  1.00  0.00     0.048 A 
BRANCH  17  19
HETATM   19  N5  UNL     1      35.086  52.232  19.343  1.00  0.00    -0.116 N 
HETATM   20  O1  UNL     1      35.797  53.225  19.162  1.00  0.00    -0.532 OA
HETATM   21  O2  UNL     1      34.126  52.278  20.300  1.00  0.00    -0.532 OA
ENDBRANCH  17  19
ENDBRANCH  11  13
ENDBRANCH   8  10
ENDBRANCH   4   8
ENDBRANCH   3   4
TORSDOF 5
ENDMDL
MODEL 2
REMARK VINA RESULT: -7.775202298      1.103      2.107
REMARK  5 active torsions:
REMARK  status: ('A' for Active; 'I' for Inactive)
REMARK    1  A    between atoms: S1_3  and  C2_4 
REMARK    2  A    between atoms: C2_4  and  N3_8 
REMARK    3  A    between atoms: N3_8  and  N4_10 
REMARK    4  A    between atoms: C3_12  and  C4_13 
REMARK    5  A    between atoms: C8_17  and  N5_18 
ROOT
HETATM    1  N1  UNL     1      33.160  45.995  21.133  1.00  0.00    -0.184 NA
HETATM    2  C1  UNL     1      32.903  45.166  20.340  1.00  0.00     0.141 C 
HETATM    3  S1  UNL     1      32.524  43.927  19.149  1.00  0.00     0.027 SA
ENDROOT
BRANCH   3   4
HETATM    4  C2  UNL     1      33.448  44.179  17.652  1.00  0.00     0.167 C 
HETATM    5  N2  UNL     1      34.266  43.290  17.226  1.00  0.00    -0.378 N 
ATOM      6  H22 UNL     1      34.400  42.421  17.744  1.00  0.00     0.158 HD
ATOM      7  H21 UNL     1      34.796  43.434  16.367  1.00  0.00     0.158 HD
BRANCH   4   8
HETATM    8  N3  UNL     1      33.262  45.381  16.936  1.00  0.00    -0.280 N 
ATOM      9  H3  UNL     1      32.513  45.406  16.244  1.00  0.00     0.189 HD
BRANCH   8  10
HETATM   10  N4  UNL     1      34.016  46.523  17.099  1.00  0.00    -0.309 N 
HETATM   11  C3  UNL     1      33.632  47.617  17.622  1.00  0.00     0.118 C 
ATOM     12  H4  UNL     1      34.980  46.487  16.768  1.00  0.00     0.186 HD
BRANCH  11  13
HETATM   13  C4  UNL     1      34.568  48.721  17.711  1.00  0.00    -0.017 A 
HETATM   14  C5  UNL     1      35.718  48.723  16.960  1.00  0.00     0.013 A 
HETATM   15  C6  UNL     1      36.640  49.767  17.021  1.00  0.00     0.003 A 
HETATM   16  C7  UNL     1      36.349  50.801  17.868  1.00  0.00     0.036 A 
HETATM   17  C8  UNL     1      35.206  50.842  18.640  1.00  0.00     0.103 A 
HETATM   18  C9  UNL     1      34.324  49.782  18.544  1.00  0.00     0.048 A 
BRANCH  17  19
HETATM   19  N5  UNL     1      34.941  51.939  19.511  1.00  0.00    -0.116 N 
HETATM   20  O1  UNL     1      35.523  53.018  19.359  1.00  0.00    -0.532 OA
HETATM   21  O2  UNL     1      34.046  51.812  20.522  1.00  0.00    -0.532 OA
ENDBRANCH  17  19
ENDBRANCH  11  13
ENDBRANCH   8  10
ENDBRANCH   4   8
ENDBRANCH   3   4
TORSDOF 5
ENDMDL
MODEL 3
REMARK VINA RESULT: -7.760847214      1.392      2.211
REMARK  5 active torsions:
REMARK  status: ('A' for Active; 'I' for Inactive)
REMARK    1  A    between atoms: S1_3  and  C2_4 
REMARK    2  A    between atoms: C2_4  and  N3_8 
REMARK    3  A    between atoms: N3_8  and  N4_10 
REMARK    4  A    between atoms: C3_12  and  C4_13 
REMARK    5  A    between atoms: C8_17  and  N5_18 
ROOT
HETATM    1  N1  UNL     1      31.091  41.658  19.449  1.00  0.00    -0.184 NA
HETATM    2  C1  UNL     1      31.778  42.610  19.389  1.00  0.00     0.141 C 
HETATM    3  S1  UNL     1      32.806  44.035  19.293  1.00  0.00     0.027 SA
ENDROOT
BRANCH   3   4
HETATM    4  C2  UNL     1      33.553  44.175  17.687  1.00  0.00     0.167 C 
HETATM    5  N2  UNL     1      34.246  43.214  17.198  1.00  0.00    -0.378 N 
ATOM      6  H22 UNL     1      34.380  42.353  17.728  1.00  0.00     0.158 HD
ATOM      7  H21 UNL     1      34.675  43.295  16.276  1.00  0.00     0.158 HD
BRANCH   4   8
HETATM    8  N3  UNL     1      33.368  45.367  16.955  1.00  0.00    -0.280 N 
ATOM      9  H3  UNL     1      32.630  45.378  16.251  1.00  0.00     0.189 HD
BRANCH   8  10
HETATM   10  N4  UNL     1      34.108  46.518  17.119  1.00  0.00    -0.309 N 
HETATM   11  C3  UNL     1      33.699  47.621  17.604  1.00  0.00     0.118 C 
ATOM     12  H4  UNL     1      35.083  46.482  16.821  1.00  0.00     0.186 HD
BRANCH  11  13
HETATM   13  C4  UNL     1      34.625  48.732  17.700  1.00  0.00    -0.017 A 
HETATM   14  C5  UNL     1      35.772  48.754  16.945  1.00  0.00     0.013 A 
HETATM   15  C6  UNL     1      36.683  49.806  17.012  1.00  0.00     0.003 A 
HETATM   16  C7  UNL     1      36.385  50.829  17.870  1.00  0.00     0.036 A 
HETATM   17  C8  UNL     1      35.245  50.851  18.647  1.00  0.00     0.103 A 
HETATM   18  C9  UNL     1      34.373  49.783  18.544  1.00  0.00     0.048 A 
BRANCH  17  19
HETATM   19  N5  UNL     1      34.972  51.938  19.529  1.00  0.00    -0.116 N 
HETATM   20  O1  UNL     1      35.556  53.018  19.396  1.00  0.00    -0.532 OA
HETATM   21  O2  UNL     1      34.066  51.799  20.529  1.00  0.00    -0.532 OA
ENDBRANCH  17  19
ENDBRANCH  11  13
ENDBRANCH   8  10
ENDBRANCH   4   8
ENDBRANCH   3   4
TORSDOF 5
ENDMDL
MODEL 4
REMARK VINA RESULT: -7.562226436      3.047      3.976
REMARK  5 active torsions:
REMARK  status: ('A' for Active; 'I' for Inactive)
REMARK    1  A    between atoms: S1_3  and  C2_4 
REMARK    2  A    between atoms: C2_4  and  N3_8 
REMARK    3  A    between atoms: N3_8  and  N4_10 
REMARK    4  A    between atoms: C3_12  and  C4_13 
REMARK    5  A    between atoms: C8_17  and  N5_18 
ROOT
HETATM    1  N1  UNL     1      30.693  49.701  22.351  1.00  0.00    -0.184 NA
HETATM    2  C1  UNL     1      31.215  48.861  22.986  1.00  0.00     0.141 C 
HETATM    3  S1  UNL     1      31.998  47.601  23.932  1.00  0.00     0.027 SA
ENDROOT
BRANCH   3   4
HETATM    4  C2  UNL     1      32.178  46.110  22.982  1.00  0.00     0.167 C 
HETATM    5  N2  UNL     1      31.290  45.187  23.032  1.00  0.00    -0.378 N 
ATOM      6  H22 UNL     1      30.465  45.295  23.622  1.00  0.00     0.158 HD
ATOM      7  H21 UNL     1      31.394  44.331  22.487  1.00  0.00     0.158 HD
BRANCH   4   8
HETATM    8  N3  UNL     1      33.319  45.960  22.166  1.00  0.00    -0.280 N 
ATOM      9  H3  UNL     1      33.818  45.071  22.212  1.00  0.00     0.189 HD
BRANCH   8  10
HETATM   10  N4  UNL     1      33.812  46.924  21.312  1.00  0.00    -0.309 N 
HETATM   11  C3  UNL     1      33.293  47.300  20.214  1.00  0.00     0.118 C 
ATOM     12  H4  UNL     1      34.681  47.381  21.589  1.00  0.00     0.186 HD
BRANCH  11  13
HETATM   13  C4  UNL     1      33.956  48.333  19.442  1.00  0.00    -0.017 A 
HETATM   14  C5  UNL     1      34.546  48.036  18.238  1.00  0.00     0.013 A 
HETATM   15  C6  UNL     1      35.191  49.004  17.470  1.00  0.00     0.003 A 
HETATM   16  C7  UNL     1      35.214  50.277  17.970  1.00  0.00     0.036 A 
HETATM   17  C8  UNL     1      34.634  50.622  19.174  1.00  0.00     0.103 A 
HETATM   18  C9  UNL     1      34.007  49.626  19.898  1.00  0.00     0.048 A 
BRANCH  17  19
HETATM   19  N5  UNL     1      34.681  51.962  19.659  1.00  0.00    -0.116 N 
HETATM   20  O1  UNL     1      33.923  52.332  20.561  1.00  0.00    -0.532 OA
HETATM   21  O2  UNL     1      35.560  52.852  19.134  1.00  0.00    -0.532 OA
ENDBRANCH  17  19
ENDBRANCH  11  13
ENDBRANCH   8  10
ENDBRANCH   4   8
ENDBRANCH   3   4
TORSDOF 5
ENDMDL
MODEL 5
REMARK VINA RESULT: -7.540939163      1.561      2.486
REMARK  5 active torsions:
REMARK  status: ('A' for Active; 'I' for Inactive)
REMARK    1  A    between atoms: S1_3  and  C2_4 
REMARK    2  A    between atoms: C2_4  and  N3_8 
REMARK    3  A    between atoms: N3_8  and  N4_10 
REMARK    4  A    between atoms: C3_12  and  C4_13 
REMARK    5  A    between atoms: C8_17  and  N5_18 
ROOT
HETATM    1  N1  UNL     1      31.103  48.335  21.195  1.00  0.00    -0.184 NA
HETATM    2  C1  UNL     1      31.772  47.371  21.272  1.00  0.00     0.141 C 
HETATM    3  S1  UNL     1      32.774  45.928  21.379  1.00  0.00     0.027 SA
ENDROOT
BRANCH   3   4
HETATM    4  C2  UNL     1      32.645  44.951  19.900  1.00  0.00     0.167 C 
HETATM    5  N2  UNL     1      32.252  43.733  19.949  1.00  0.00    -0.378 N 
ATOM      6  H22 UNL     1      32.007  43.305  20.842  1.00  0.00     0.158 HD
ATOM      7  H21 UNL     1      32.178  43.173  19.100  1.00  0.00     0.158 HD
BRANCH   4   8
HETATM    8  N3  UNL     1      32.983  45.545  18.665  1.00  0.00    -0.280 N 
ATOM      9  H3  UNL     1      32.601  45.122  17.819  1.00  0.00     0.189 HD
BRANCH   8  10
HETATM   10  N4  UNL     1      33.789  46.653  18.515  1.00  0.00    -0.309 N 
HETATM   11  C3  UNL     1      33.470  47.754  17.966  1.00  0.00     0.118 C 
ATOM     12  H4  UNL     1      34.738  46.582  18.882  1.00  0.00     0.186 HD
BRANCH  11  13
HETATM   13  C4  UNL     1      34.454  48.817  17.897  1.00  0.00    -0.017 A 
HETATM   14  C5  UNL     1      35.567  48.687  17.103  1.00  0.00     0.013 A 
HETATM   15  C6  UNL     1      36.533  49.688  17.013  1.00  0.00     0.003 A 
HETATM   16  C7  UNL     1      36.325  50.817  17.756  1.00  0.00     0.036 A 
HETATM   17  C8  UNL     1      35.222  50.992  18.567  1.00  0.00     0.103 A 
HETATM   18  C9  UNL     1      34.293  49.970  18.622  1.00  0.00     0.048 A 
BRANCH  17  19
HETATM   19  N5  UNL     1      35.044  52.186  19.326  1.00  0.00    -0.116 N 
HETATM   20  O1  UNL     1      35.693  53.202  19.062  1.00  0.00    -0.532 OA
HETATM   21  O2  UNL     1      34.157  52.221  20.351  1.00  0.00    -0.532 OA
ENDBRANCH  17  19
ENDBRANCH  11  13
ENDBRANCH   8  10
ENDBRANCH   4   8
ENDBRANCH   3   4
TORSDOF 5
ENDMDL
