MODEL 1
REMARK VINA RESULT: -7.633648457      0.000      0.000
REMARK  3 active torsions:
REMARK  status: ('A' for Active; 'I' for Inactive)
REMARK       I    between atoms: C2_4  and  N2_5 
REMARK       I    between atoms: C2_4  and  N3_8 
REMARK    1  A    between atoms: N3_8  and  C4_10 
REMARK    2  A    between atoms: C7_13  and  N4_14 
REMARK    3  A    between atoms: C9_18  and  N5_19 
ROOT
HETATM    1  C4  UNL     1      32.963  48.633  20.017  1.00  0.00     0.082 A 
HETATM    2  C5  UNL     1      33.708  48.638  18.826  1.00  0.00     0.035 A 
HETATM    3  C6  UNL     1      34.589  49.623  18.502  1.00  0.00     0.038 A 
HETATM    4  C7  UNL     1      34.764  50.671  19.385  1.00  0.00     0.105 A 
HETATM    5  C8  UNL     1      34.064  50.703  20.549  1.00  0.00     0.074 A 
HETATM    6  C9  UNL     1      33.154  49.667  20.863  1.00  0.00     0.132 A 
ENDROOT
BRANCH   1   7
HETATM    7  N3  UNL     1      32.062  47.597  20.238  1.00  0.00    -0.190 N 
HETATM    8  C2  UNL     1      32.278  46.593  21.247  1.00  0.00     0.673 C 
HETATM    9  N1  UNL     1      32.555  45.415  20.879  1.00  0.00    -0.231 N 
HETATM   10  N2  UNL     1      32.175  46.953  22.591  1.00  0.00    -0.231 N 
HETATM   11  C1  UNL     1      32.687  44.931  19.540  1.00  0.00     0.165 C 
ATOM     12  H1  UNL     1      32.702  44.732  21.623  1.00  0.00     0.177 HD
HETATM   13  C3  UNL     1      32.312  46.013  23.700  1.00  0.00     0.165 C 
ATOM     14  H2  UNL     1      31.994  47.931  22.813  1.00  0.00     0.177 HD
ATOM     15  H3  UNL     1      31.219  47.546  19.666  1.00  0.00     0.184 HD
ENDBRANCH   1   7
BRANCH   6  16
HETATM   16  N5  UNL     1      32.489  49.803  22.083  1.00  0.00    -0.113 N 
HETATM   17  O3  UNL     1      33.184  49.803  23.146  1.00  0.00    -0.532 OA
HETATM   18  O4  UNL     1      31.146  49.939  22.194  1.00  0.00    -0.532 OA
ENDBRANCH   6  16
BRANCH   4  19
HETATM   19  N4  UNL     1      35.695  51.706  19.036  1.00  0.00    -0.116 N 
HETATM   20  O1  UNL     1      35.457  52.892  19.266  1.00  0.00    -0.532 OA
HETATM   21  O2  UNL     1      36.886  51.387  18.429  1.00  0.00    -0.532 OA
ENDBRANCH   4  19
TORSDOF 3
ENDMDL
MODEL 2
REMARK VINA RESULT: -7.513286014      2.004      2.699
REMARK  3 active torsions:
REMARK  status: ('A' for Active; 'I' for Inactive)
REMARK       I    between atoms: C2_4  and  N2_5 
REMARK       I    between atoms: C2_4  and  N3_8 
REMARK    1  A    between atoms: N3_8  and  C4_10 
REMARK    2  A    between atoms: C7_13  and  N4_14 
REMARK    3  A    between atoms: C9_18  and  N5_19 
ROOT
HETATM    1  C4  UNL     1      33.077  48.582  19.769  1.00  0.00     0.082 A 
HETATM    2  C5  UNL     1      33.290  49.654  20.652  1.00  0.00     0.035 A 
HETATM    3  C6  UNL     1      34.155  50.672  20.394  1.00  0.00     0.038 A 
HETATM    4  C7  UNL     1      34.859  50.656  19.205  1.00  0.00     0.105 A 
HETATM    5  C8  UNL     1      34.680  49.638  18.323  1.00  0.00     0.074 A 
HETATM    6  C9  UNL     1      33.775  48.592  18.615  1.00  0.00     0.132 A 
ENDROOT
BRANCH   1   7
HETATM    7  N3  UNL     1      32.196  47.572  20.144  1.00  0.00    -0.190 N 
HETATM    8  C2  UNL     1      32.362  46.821  21.360  1.00  0.00     0.673 C 
HETATM    9  N1  UNL     1      32.709  45.608  21.280  1.00  0.00    -0.231 N 
HETATM   10  N2  UNL     1      32.134  47.456  22.582  1.00  0.00    -0.231 N 
HETATM   11  C1  UNL     1      32.969  44.854  20.093  1.00  0.00     0.165 C 
ATOM     12  H1  UNL     1      32.816  45.109  22.164  1.00  0.00     0.177 HD
HETATM   13  C3  UNL     1      32.210  46.784  23.876  1.00  0.00     0.165 C 
ATOM     14  H2  UNL     1      31.901  48.448  22.570  1.00  0.00     0.177 HD
ATOM     15  H3  UNL     1      31.406  47.356  19.535  1.00  0.00     0.184 HD
ENDBRANCH   1   7
BRANCH   6  16
HETATM   16  N5  UNL     1      33.672  47.599  17.638  1.00  0.00    -0.113 N 
HETATM   17  O3  UNL     1      34.718  47.284  16.991  1.00  0.00    -0.532 OA
HETATM   18  O4  UNL     1      32.518  46.951  17.347  1.00  0.00    -0.532 OA
ENDBRANCH   6  16
BRANCH   4  19
HETATM   19  N4  UNL     1      35.769  51.733  18.939  1.00  0.00    -0.116 N 
HETATM   20  O1  UNL     1      35.501  52.895  19.247  1.00  0.00    -0.532 OA
HETATM   21  O2  UNL     1      36.975  51.483  18.328  1.00  0.00    -0.532 OA
ENDBRANCH   4  19
TORSDOF 3
ENDMDL
MODEL 3
REMARK VINA RESULT: -7.409740402      2.981      5.010
REMARK  3 active torsions:
REMARK  status: ('A' for Active; 'I' for Inactive)
REMARK       I    between atoms: C2_4  and  N2_5 
REMARK       I    between atoms: C2_4  and  N3_8 
REMARK    1  A    between atoms: N3_8  and  C4_10 
REMARK    2  A    between atoms: C7_13  and  N4_14 
REMARK    3  A    between atoms: C9_18  and  N5_19 
ROOT
HETATM    1  C4  UNL     1      34.879  48.965  19.714  1.00  0.00     0.082 A 
HETATM    2  C5  UNL     1      34.057  47.838  19.878  1.00  0.00     0.035 A 
HETATM    3  C6  UNL     1      33.791  46.955  18.877  1.00  0.00     0.038 A 
HETATM    4  C7  UNL     1      34.357  47.174  17.635  1.00  0.00     0.105 A 
HETATM    5  C8  UNL     1      35.159  48.253  17.435  1.00  0.00     0.074 A 
HETATM    6  C9  UNL     1      35.420  49.155  18.493  1.00  0.00     0.132 A 
ENDROOT
BRANCH   1   7
HETATM    7  N3  UNL     1      35.059  49.824  20.793  1.00  0.00    -0.190 N 
HETATM    8  C2  UNL     1      34.143  49.868  21.902  1.00  0.00     0.673 C 
HETATM    9  N1  UNL     1      33.405  50.886  22.038  1.00  0.00    -0.231 N 
HETATM   10  N2  UNL     1      34.100  48.788  22.785  1.00  0.00    -0.231 N 
HETATM   11  C1  UNL     1      33.360  52.045  21.203  1.00  0.00     0.165 C 
ATOM     12  H1  UNL     1      32.769  50.879  22.836  1.00  0.00     0.177 HD
HETATM   13  C3  UNL     1      33.259  48.743  23.977  1.00  0.00     0.165 C 
ATOM     14  H2  UNL     1      34.691  47.982  22.586  1.00  0.00     0.177 HD
ATOM     15  H3  UNL     1      35.869  50.445  20.798  1.00  0.00     0.184 HD
ENDBRANCH   1   7
BRANCH   6  16
HETATM   16  N5  UNL     1      36.257  50.226  18.174  1.00  0.00    -0.113 N 
HETATM   17  O3  UNL     1      37.084  50.077  17.222  1.00  0.00    -0.532 OA
HETATM   18  O4  UNL     1      36.231  51.416  18.821  1.00  0.00    -0.532 OA
ENDBRANCH   6  16
BRANCH   4  19
HETATM   19  N4  UNL     1      34.072  46.241  16.584  1.00  0.00    -0.116 N 
HETATM   20  O1  UNL     1      32.973  45.694  16.488  1.00  0.00    -0.532 OA
HETATM   21  O2  UNL     1      35.035  45.936  15.652  1.00  0.00    -0.532 OA
ENDBRANCH   4  19
TORSDOF 3
ENDMDL
MODEL 4
REMARK VINA RESULT: -7.194817805      1.366      2.257
REMARK  3 active torsions:
REMARK  status: ('A' for Active; 'I' for Inactive)
REMARK       I    between atoms: C2_4  and  N2_5 
REMARK       I    between atoms: C2_4  and  N3_8 
REMARK    1  A    between atoms: N3_8  and  C4_10 
REMARK    2  A    between atoms: C7_13  and  N4_14 
REMARK    3  A    between atoms: C9_18  and  N5_19 
ROOT
HETATM    1  C4  UNL     1      34.002  47.958  21.176  1.00  0.00     0.082 A 
HETATM    2  C5  UNL     1      34.689  48.103  19.960  1.00  0.00     0.035 A 
HETATM    3  C6  UNL     1      34.854  49.300  19.334  1.00  0.00     0.038 A 
HETATM    4  C7  UNL     1      34.321  50.432  19.920  1.00  0.00     0.105 A 
HETATM    5  C8  UNL     1      33.649  50.334  21.098  1.00  0.00     0.074 A 
HETATM    6  C9  UNL     1      33.492  49.078  21.728  1.00  0.00     0.132 A 
ENDROOT
BRANCH   1   7
HETATM    7  N3  UNL     1      33.859  46.684  21.716  1.00  0.00    -0.190 N 
HETATM    8  C2  UNL     1      32.921  45.727  21.190  1.00  0.00     0.673 C 
HETATM    9  N1  UNL     1      31.902  45.435  21.879  1.00  0.00    -0.231 N 
HETATM   10  N2  UNL     1      33.167  45.157  19.940  1.00  0.00    -0.231 N 
HETATM   11  C1  UNL     1      31.546  45.951  23.165  1.00  0.00     0.165 C 
ATOM     12  H1  UNL     1      31.261  44.754  21.473  1.00  0.00     0.177 HD
HETATM   13  C3  UNL     1      32.324  44.133  19.331  1.00  0.00     0.165 C 
ATOM     14  H2  UNL     1      33.985  45.474  19.421  1.00  0.00     0.177 HD
ATOM     15  H3  UNL     1      34.439  46.418  22.512  1.00  0.00     0.184 HD
ENDBRANCH   1   7
BRANCH   6  16
HETATM   16  N5  UNL     1      32.785  49.096  22.932  1.00  0.00    -0.113 N 
HETATM   17  O3  UNL     1      31.578  49.490  22.911  1.00  0.00    -0.532 OA
HETATM   18  O4  UNL     1      33.315  48.713  24.118  1.00  0.00    -0.532 OA
ENDBRANCH   6  16
BRANCH   4  19
HETATM   19  N4  UNL     1      34.497  51.690  19.255  1.00  0.00    -0.116 N 
HETATM   20  O1  UNL     1      35.123  52.613  19.776  1.00  0.00    -0.532 OA
HETATM   21  O2  UNL     1      33.963  51.890  18.004  1.00  0.00    -0.532 OA
ENDBRANCH   4  19
TORSDOF 3
ENDMDL
MODEL 5
REMARK VINA RESULT: -7.181197879      1.121      1.930
REMARK  3 active torsions:
REMARK  status: ('A' for Active; 'I' for Inactive)
REMARK       I    between atoms: C2_4  and  N2_5 
REMARK       I    between atoms: C2_4  and  N3_8 
REMARK    1  A    between atoms: N3_8  and  C4_10 
REMARK    2  A    between atoms: C7_13  and  N4_14 
REMARK    3  A    between atoms: C9_18  and  N5_19 
ROOT
HETATM    1  C4  UNL     1      34.263  48.347  21.206  1.00  0.00     0.082 A 
HETATM    2  C5  UNL     1      35.206  48.283  20.168  1.00  0.00     0.035 A 
HETATM    3  C6  UNL     1      35.604  49.370  19.453  1.00  0.00     0.038 A 
HETATM    4  C7  UNL     1      35.056  50.601  19.760  1.00  0.00     0.105 A 
HETATM    5  C8  UNL     1      34.141  50.706  20.759  1.00  0.00     0.074 A 
HETATM    6  C9  UNL     1      33.745  49.561  21.488  1.00  0.00     0.132 A 
ENDROOT
BRANCH   1   7
HETATM    7  N3  UNL     1      33.898  47.171  21.853  1.00  0.00    -0.190 N 
HETATM    8  C2  UNL     1      32.975  46.230  21.274  1.00  0.00     0.673 C 
HETATM    9  N1  UNL     1      31.827  46.114  21.790  1.00  0.00    -0.231 N 
HETATM   10  N2  UNL     1      33.378  45.483  20.167  1.00  0.00    -0.231 N 
HETATM   11  C1  UNL     1      31.304  46.821  22.918  1.00  0.00     0.165 C 
ATOM     12  H1  UNL     1      31.201  45.438  21.352  1.00  0.00     0.177 HD
HETATM   13  C3  UNL     1      32.554  44.458  19.532  1.00  0.00     0.165 C 
ATOM     14  H2  UNL     1      34.302  45.664  19.777  1.00  0.00     0.177 HD
ATOM     15  H3  UNL     1      34.299  46.967  22.769  1.00  0.00     0.184 HD
ENDBRANCH   1   7
BRANCH   6  16
HETATM   16  N5  UNL     1      32.799  49.786  22.490  1.00  0.00    -0.113 N 
HETATM   17  O3  UNL     1      33.147  49.593  23.696  1.00  0.00    -0.532 OA
HETATM   18  O4  UNL     1      31.534  50.203  22.247  1.00  0.00    -0.532 OA
ENDBRANCH   6  16
BRANCH   4  19
HETATM   19  N4  UNL     1      35.480  51.742  19.002  1.00  0.00    -0.116 N 
HETATM   20  O1  UNL     1      34.743  52.714  18.833  1.00  0.00    -0.532 OA
HETATM   21  O2  UNL     1      36.735  51.772  18.442  1.00  0.00    -0.532 OA
ENDBRANCH   4  19
TORSDOF 3
ENDMDL
