MODEL 1
REMARK VINA RESULT: -7.744122119      0.000      0.000
REMARK  5 active torsions:
REMARK  status: ('A' for Active; 'I' for Inactive)
REMARK    1  A    between atoms: C2_2  and  N1_5 
REMARK    2  A    between atoms: N1_5  and  N2_7 
REMARK    3  A    between atoms: C5_9  and  C6_10 
REMARK    4  A    between atoms: C8_12  and  N3_13 
REMARK    5  A    between atoms: C11_18  and  O3_19 
ROOT
HETATM    1  C6  UNL     1      34.415  48.657  17.688  1.00  0.00     0.016 A 
HETATM    2  C7  UNL     1      34.257  49.692  18.607  1.00  0.00     0.051 A 
HETATM    3  C8  UNL     1      35.094  50.778  18.697  1.00  0.00     0.103 A 
HETATM    4  C9  UNL     1      36.150  50.834  17.818  1.00  0.00     0.039 A 
HETATM    5  C10 UNL     1      36.324  49.831  16.909  1.00  0.00     0.040 A 
HETATM    6  C11 UNL     1      35.468  48.711  16.810  1.00  0.00     0.077 A 
ENDROOT
BRANCH   1   7
HETATM    7  C5  UNL     1      33.474  47.573  17.690  1.00  0.00     0.121 C 
HETATM    8  N2  UNL     1      33.616  46.368  17.371  1.00  0.00    -0.315 N 
ATOM      9  H2  UNL     1      34.556  46.122  17.060  1.00  0.00     0.185 HD
BRANCH   8  10
HETATM   10  N1  UNL     1      32.733  45.328  17.368  1.00  0.00    -0.328 N 
ATOM     11  H1  UNL     1      31.911  45.426  16.771  1.00  0.00     0.181 HD
BRANCH  10  12
HETATM   12  C2  UNL     1      32.845  44.098  18.127  1.00  0.00     0.035 C 
HETATM   13  C1  UNL     1      33.053  44.379  19.621  1.00  0.00     0.039 C 
HETATM   14  C3  UNL     1      34.073  43.353  17.625  1.00  0.00     0.039 C 
HETATM   15  C4  UNL     1      31.640  43.211  18.030  1.00  0.00     0.039 C 
ENDBRANCH  10  12
ENDBRANCH   8  10
ENDBRANCH   1   7
BRANCH   6  16
HETATM   16  O3  UNL     1      35.765  47.777  15.847  1.00  0.00    -0.360 OA
ATOM     17  H3  UNL     1      36.499  47.810  15.245  1.00  0.00     0.217 HD
ENDBRANCH   6  16
BRANCH   3  18
HETATM   18  N3  UNL     1      34.891  51.812  19.654  1.00  0.00    -0.116 N 
HETATM   19  O1  UNL     1      35.452  52.913  19.514  1.00  0.00    -0.532 OA
HETATM   20  O2  UNL     1      34.084  51.588  20.717  1.00  0.00    -0.532 OA
ENDBRANCH   3  18
TORSDOF 5
ENDMDL
MODEL 2
REMARK VINA RESULT: -7.703254163      0.081      1.034
REMARK  5 active torsions:
REMARK  status: ('A' for Active; 'I' for Inactive)
REMARK    1  A    between atoms: C2_2  and  N1_5 
REMARK    2  A    between atoms: N1_5  and  N2_7 
REMARK    3  A    between atoms: C5_9  and  C6_10 
REMARK    4  A    between atoms: C8_12  and  N3_13 
REMARK    5  A    between atoms: C11_18  and  O3_19 
ROOT
HETATM    1  C6  UNL     1      34.391  48.686  17.747  1.00  0.00     0.016 A 
HETATM    2  C7  UNL     1      34.245  49.746  18.638  1.00  0.00     0.051 A 
HETATM    3  C8  UNL     1      35.086  50.831  18.692  1.00  0.00     0.103 A 
HETATM    4  C9  UNL     1      36.135  50.859  17.804  1.00  0.00     0.039 A 
HETATM    5  C10 UNL     1      36.299  49.832  16.921  1.00  0.00     0.040 A 
HETATM    6  C11 UNL     1      35.438  48.712  16.858  1.00  0.00     0.077 A 
ENDROOT
BRANCH   1   7
HETATM    7  C5  UNL     1      33.447  47.606  17.785  1.00  0.00     0.121 C 
HETATM    8  N2  UNL     1      33.571  46.401  17.457  1.00  0.00    -0.315 N 
ATOM      9  H2  UNL     1      34.496  46.152  17.106  1.00  0.00     0.185 HD
BRANCH   8  10
HETATM   10  N1  UNL     1      32.683  45.365  17.488  1.00  0.00    -0.328 N 
ATOM     11  H1  UNL     1      31.804  45.499  16.989  1.00  0.00     0.181 HD
BRANCH  10  12
HETATM   12  C2  UNL     1      32.866  44.093  18.159  1.00  0.00     0.035 C 
HETATM   13  C1  UNL     1      31.631  43.195  18.005  1.00  0.00     0.039 C 
HETATM   14  C3  UNL     1      33.047  44.373  19.644  1.00  0.00     0.039 C 
HETATM   15  C4  UNL     1      34.030  43.298  17.648  1.00  0.00     0.039 C 
ENDBRANCH  10  12
ENDBRANCH   8  10
ENDBRANCH   1   7
BRANCH   6  16
HETATM   16  O3  UNL     1      35.724  47.752  15.919  1.00  0.00    -0.360 OA
ATOM     17  H3  UNL     1      35.248  46.939  15.789  1.00  0.00     0.217 HD
ENDBRANCH   6  16
BRANCH   3  18
HETATM   18  N3  UNL     1      34.894  51.891  19.622  1.00  0.00    -0.116 N 
HETATM   19  O1  UNL     1      35.512  52.962  19.487  1.00  0.00    -0.532 OA
HETATM   20  O2  UNL     1      34.035  51.726  20.655  1.00  0.00    -0.532 OA
ENDBRANCH   3  18
TORSDOF 5
ENDMDL
MODEL 3
REMARK VINA RESULT: -7.603577822      2.879      6.610
REMARK  5 active torsions:
REMARK  status: ('A' for Active; 'I' for Inactive)
REMARK    1  A    between atoms: C2_2  and  N1_5 
REMARK    2  A    between atoms: N1_5  and  N2_7 
REMARK    3  A    between atoms: C5_9  and  C6_10 
REMARK    4  A    between atoms: C8_12  and  N3_13 
REMARK    5  A    between atoms: C11_18  and  O3_19 
ROOT
HETATM    1  C6  UNL     1      33.640  46.536  17.478  1.00  0.00     0.016 A 
HETATM    2  C7  UNL     1      32.894  45.599  18.188  1.00  0.00     0.051 A 
HETATM    3  C8  UNL     1      32.884  44.252  17.915  1.00  0.00     0.103 A 
HETATM    4  C9  UNL     1      33.666  43.816  16.872  1.00  0.00     0.039 A 
HETATM    5  C10 UNL     1      34.406  44.716  16.161  1.00  0.00     0.040 A 
HETATM    6  C11 UNL     1      34.422  46.102  16.436  1.00  0.00     0.077 A 
ENDROOT
BRANCH   1   7
HETATM    7  C5  UNL     1      33.569  47.918  17.858  1.00  0.00     0.121 C 
HETATM    8  N2  UNL     1      34.215  48.913  17.446  1.00  0.00    -0.315 N 
ATOM      9  H2  UNL     1      34.902  48.699  16.723  1.00  0.00     0.185 HD
BRANCH   8  10
HETATM   10  N1  UNL     1      34.158  50.230  17.797  1.00  0.00    -0.328 N 
ATOM     11  H1  UNL     1      33.337  50.752  17.490  1.00  0.00     0.181 HD
BRANCH  10  12
HETATM   12  C2  UNL     1      35.147  50.962  18.564  1.00  0.00     0.035 C 
HETATM   13  C1  UNL     1      35.328  50.361  19.964  1.00  0.00     0.039 C 
HETATM   14  C3  UNL     1      34.640  52.385  18.737  1.00  0.00     0.039 C 
HETATM   15  C4  UNL     1      36.509  50.982  17.936  1.00  0.00     0.039 C 
ENDBRANCH  10  12
ENDBRANCH   8  10
ENDBRANCH   1   7
BRANCH   6  16
HETATM   16  O3  UNL     1      35.215  46.891  15.639  1.00  0.00    -0.360 OA
ATOM     17  H3  UNL     1      36.165  46.898  15.629  1.00  0.00     0.217 HD
ENDBRANCH   6  16
BRANCH   3  18
HETATM   18  N3  UNL     1      32.103  43.333  18.670  1.00  0.00    -0.116 N 
HETATM   19  O1  UNL     1      32.550  42.854  19.728  1.00  0.00    -0.532 OA
HETATM   20  O2  UNL     1      30.871  42.984  18.231  1.00  0.00    -0.532 OA
ENDBRANCH   3  18
TORSDOF 5
ENDMDL
MODEL 4
REMARK VINA RESULT: -7.595249915      2.870      6.618
REMARK  5 active torsions:
REMARK  status: ('A' for Active; 'I' for Inactive)
REMARK    1  A    between atoms: C2_2  and  N1_5 
REMARK    2  A    between atoms: N1_5  and  N2_7 
REMARK    3  A    between atoms: C5_9  and  C6_10 
REMARK    4  A    between atoms: C8_12  and  N3_13 
REMARK    5  A    between atoms: C11_18  and  O3_19 
ROOT
HETATM    1  C6  UNL     1      33.644  46.554  17.518  1.00  0.00     0.016 A 
HETATM    2  C7  UNL     1      32.903  45.595  18.203  1.00  0.00     0.051 A 
HETATM    3  C8  UNL     1      32.907  44.254  17.900  1.00  0.00     0.103 A 
HETATM    4  C9  UNL     1      33.698  43.848  16.852  1.00  0.00     0.039 A 
HETATM    5  C10 UNL     1      34.434  44.770  16.165  1.00  0.00     0.040 A 
HETATM    6  C11 UNL     1      34.436  46.150  16.470  1.00  0.00     0.077 A 
ENDROOT
BRANCH   1   7
HETATM    7  C5  UNL     1      33.558  47.927  17.927  1.00  0.00     0.121 C 
HETATM    8  N2  UNL     1      34.180  48.940  17.525  1.00  0.00    -0.315 N 
ATOM      9  H2  UNL     1      34.857  48.753  16.785  1.00  0.00     0.185 HD
BRANCH   8  10
HETATM   10  N1  UNL     1      34.108  50.249  17.904  1.00  0.00    -0.328 N 
ATOM     11  H1  UNL     1      33.252  50.749  17.666  1.00  0.00     0.181 HD
BRANCH  10  12
HETATM   12  C2  UNL     1      35.128  50.998  18.611  1.00  0.00     0.035 C 
HETATM   13  C1  UNL     1      36.486  50.903  17.903  1.00  0.00     0.039 C 
HETATM   14  C3  UNL     1      35.286  50.378  19.992  1.00  0.00     0.039 C 
HETATM   15  C4  UNL     1      34.825  52.461  18.745  1.00  0.00     0.039 C 
ENDBRANCH  10  12
ENDBRANCH   8  10
ENDBRANCH   1   7
BRANCH   6  16
HETATM   16  O3  UNL     1      35.225  46.964  15.695  1.00  0.00    -0.360 OA
ATOM     17  H3  UNL     1      36.164  47.078  15.782  1.00  0.00     0.217 HD
ENDBRANCH   6  16
BRANCH   3  18
HETATM   18  N3  UNL     1      32.131  43.312  18.631  1.00  0.00    -0.116 N 
HETATM   19  O1  UNL     1      32.602  42.765  19.644  1.00  0.00    -0.532 OA
HETATM   20  O2  UNL     1      30.877  43.015  18.217  1.00  0.00    -0.532 OA
ENDBRANCH   3  18
TORSDOF 5
ENDMDL
MODEL 5
REMARK VINA RESULT: -7.568996554      3.072      6.462
REMARK  5 active torsions:
REMARK  status: ('A' for Active; 'I' for Inactive)
REMARK    1  A    between atoms: C2_2  and  N1_5 
REMARK    2  A    between atoms: N1_5  and  N2_7 
REMARK    3  A    between atoms: C5_9  and  C6_10 
REMARK    4  A    between atoms: C8_12  and  N3_13 
REMARK    5  A    between atoms: C11_18  and  O3_19 
ROOT
HETATM    1  C6  UNL     1      33.774  46.466  17.485  1.00  0.00     0.016 A 
HETATM    2  C7  UNL     1      33.124  45.753  18.489  1.00  0.00     0.051 A 
HETATM    3  C8  UNL     1      33.014  44.383  18.515  1.00  0.00     0.103 A 
HETATM    4  C9  UNL     1      33.587  43.686  17.478  1.00  0.00     0.039 A 
HETATM    5  C10 UNL     1      34.230  44.364  16.482  1.00  0.00     0.040 A 
HETATM    6  C11 UNL     1      34.347  45.772  16.448  1.00  0.00     0.077 A 
ENDROOT
BRANCH   1   7
HETATM    7  C5  UNL     1      33.824  47.898  17.567  1.00  0.00     0.121 C 
HETATM    8  N2  UNL     1      34.765  48.697  17.342  1.00  0.00    -0.315 N 
ATOM      9  H2  UNL     1      35.636  48.252  17.053  1.00  0.00     0.185 HD
BRANCH   8  10
HETATM   10  N1  UNL     1      34.827  50.058  17.416  1.00  0.00    -0.328 N 
ATOM     11  H1  UNL     1      34.327  50.580  16.697  1.00  0.00     0.181 HD
BRANCH  10  12
HETATM   12  C2  UNL     1      35.531  50.836  18.416  1.00  0.00     0.035 C 
HETATM   13  C1  UNL     1      34.876  52.208  18.624  1.00  0.00     0.039 C 
HETATM   14  C3  UNL     1      36.945  51.075  17.907  1.00  0.00     0.039 C 
HETATM   15  C4  UNL     1      35.582  50.187  19.767  1.00  0.00     0.039 C 
ENDBRANCH  10  12
ENDBRANCH   8  10
ENDBRANCH   1   7
BRANCH   6  16
HETATM   16  O3  UNL     1      35.022  46.321  15.385  1.00  0.00    -0.360 OA
ATOM     17  H3  UNL     1      35.951  46.515  15.354  1.00  0.00     0.217 HD
ENDBRANCH   6  16
BRANCH   3  18
HETATM   18  N3  UNL     1      32.339  43.698  19.564  1.00  0.00    -0.116 N 
HETATM   19  O1  UNL     1      31.846  44.336  20.511  1.00  0.00    -0.532 OA
HETATM   20  O2  UNL     1      32.237  42.349  19.524  1.00  0.00    -0.532 OA
ENDBRANCH   3  18
TORSDOF 5
ENDMDL
