MODEL 1
REMARK VINA RESULT: -7.375133900      0.000      0.000
REMARK  5 active torsions:
REMARK  status: ('A' for Active; 'I' for Inactive)
REMARK    1  A    between atoms: C5_5  and  C6_6 
REMARK    2  A    between atoms: C6_6  and  N2_11 
REMARK    3  A    between atoms: N1_7  and  O1_9 
REMARK    4  A    between atoms: N2_11  and  N3_13 
REMARK    5  A    between atoms: C7_15  and  C8_16 
ROOT
HETATM    1  C6  UNL     1      33.228  45.607  17.320  1.00  0.00     0.174 C 
HETATM    2  N1  UNL     1      34.034  45.351  16.361  1.00  0.00    -0.249 N 
ATOM      3  H1  UNL     1      34.442  46.109  15.814  1.00  0.00     0.196 HD
ENDROOT
BRANCH   1   4
HETATM    4  C5  UNL     1      32.667  44.502  18.079  1.00  0.00     0.122 A 
HETATM    5  C4  UNL     1      32.611  44.341  19.456  1.00  0.00     0.043 A 
HETATM    6  C3  UNL     1      31.983  43.131  19.670  1.00  0.00     0.035 A 
HETATM    7  C2  UNL     1      31.685  42.605  18.434  1.00  0.00     0.050 A 
HETATM    8  C1  UNL     1      30.994  41.292  18.219  1.00  0.00     0.076 C 
HETATM    9  O3  UNL     1      32.103  43.440  17.541  1.00  0.00    -0.312 OA
ENDBRANCH   1   4
BRANCH   1  10
HETATM   10  N2  UNL     1      32.930  46.964  17.588  1.00  0.00    -0.282 N 
ATOM     11  H2  UNL     1      31.961  47.251  17.724  1.00  0.00     0.188 HD
BRANCH  10  12
HETATM   12  N3  UNL     1      33.939  47.905  17.665  1.00  0.00    -0.307 N 
HETATM   13  C7  UNL     1      33.754  49.136  18.004  1.00  0.00     0.144 C 
ATOM     14  H3  UNL     1      34.889  47.608  17.442  1.00  0.00     0.186 HD
BRANCH  13  15
HETATM   15  C8  UNL     1      34.930  50.015  18.039  1.00  0.00     0.091 A 
HETATM   16  C9  UNL     1      36.170  49.723  17.467  1.00  0.00     0.040 A 
HETATM   17  C10 UNL     1      37.008  50.779  17.705  1.00  0.00     0.027 A 
HETATM   18  C11 UNL     1      36.240  51.693  18.423  1.00  0.00     0.142 A 
HETATM   19  O2  UNL     1      35.042  51.192  18.586  1.00  0.00    -0.321 OA
ENDBRANCH  13  15
ENDBRANCH  10  12
ENDBRANCH   1  10
BRANCH   2  20
HETATM   20  O1  UNL     1      34.341  44.048  16.078  1.00  0.00    -0.288 OA
ATOM     21  H1  UNL     1      33.708  43.512  15.617  1.00  0.00     0.244 HD
ENDBRANCH   2  20
TORSDOF 5
ENDMDL
MODEL 2
REMARK VINA RESULT: -7.352525492      2.606      3.322
REMARK  5 active torsions:
REMARK  status: ('A' for Active; 'I' for Inactive)
REMARK    1  A    between atoms: C5_5  and  C6_6 
REMARK    2  A    between atoms: C6_6  and  N2_11 
REMARK    3  A    between atoms: N1_7  and  O1_9 
REMARK    4  A    between atoms: N2_11  and  N3_13 
REMARK    5  A    between atoms: C7_15  and  C8_16 
ROOT
HETATM    1  C6  UNL     1      33.327  46.434  21.471  1.00  0.00     0.174 C 
HETATM    2  N1  UNL     1      32.639  46.004  22.459  1.00  0.00    -0.249 N 
ATOM      3  H1  UNL     1      32.801  46.368  23.398  1.00  0.00     0.196 HD
ENDROOT
BRANCH   1   4
HETATM    4  C5  UNL     1      33.068  45.893  20.148  1.00  0.00     0.122 A 
HETATM    5  C4  UNL     1      32.594  46.554  19.023  1.00  0.00     0.043 A 
HETATM    6  C3  UNL     1      32.523  45.602  18.027  1.00  0.00     0.035 A 
HETATM    7  C2  UNL     1      32.949  44.413  18.572  1.00  0.00     0.050 A 
HETATM    8  C1  UNL     1      33.026  43.118  17.820  1.00  0.00     0.076 C 
HETATM    9  O3  UNL     1      33.255  44.635  19.808  1.00  0.00    -0.312 OA
ENDBRANCH   1   4
BRANCH   1  10
HETATM   10  N2  UNL     1      34.309  47.420  21.730  1.00  0.00    -0.282 N 
ATOM     11  H2  UNL     1      34.528  47.674  22.693  1.00  0.00     0.188 HD
BRANCH  10  12
HETATM   12  N3  UNL     1      34.973  48.042  20.689  1.00  0.00    -0.307 N 
HETATM   13  C7  UNL     1      34.825  49.286  20.381  1.00  0.00     0.144 C 
ATOM     14  H3  UNL     1      35.619  47.484  20.132  1.00  0.00     0.186 HD
BRANCH  13  15
HETATM   15  C8  UNL     1      35.602  49.800  19.245  1.00  0.00     0.091 A 
HETATM   16  C9  UNL     1      35.770  49.147  18.023  1.00  0.00     0.040 A 
HETATM   17  C10 UNL     1      36.552  49.935  17.222  1.00  0.00     0.027 A 
HETATM   18  C11 UNL     1      36.838  51.059  17.994  1.00  0.00     0.142 A 
HETATM   19  O2  UNL     1      36.259  50.922  19.159  1.00  0.00    -0.321 OA
ENDBRANCH  13  15
ENDBRANCH  10  12
ENDBRANCH   1  10
BRANCH   2  20
HETATM   20  O1  UNL     1      31.682  45.051  22.241  1.00  0.00    -0.288 OA
ATOM     21  H1  UNL     1      31.642  44.295  22.815  1.00  0.00     0.244 HD
ENDBRANCH   2  20
TORSDOF 5
ENDMDL
MODEL 3
REMARK VINA RESULT: -7.296422416      5.145      5.833
REMARK  5 active torsions:
REMARK  status: ('A' for Active; 'I' for Inactive)
REMARK    1  A    between atoms: C5_5  and  C6_6 
REMARK    2  A    between atoms: C6_6  and  N2_11 
REMARK    3  A    between atoms: N1_7  and  O1_9 
REMARK    4  A    between atoms: N2_11  and  N3_13 
REMARK    5  A    between atoms: C7_15  and  C8_16 
ROOT
HETATM    1  C6  UNL     1      33.100  50.039  22.591  1.00  0.00     0.174 C 
HETATM    2  N1  UNL     1      34.048  49.764  23.404  1.00  0.00    -0.249 N 
ATOM      3  H1  UNL     1      34.900  50.326  23.411  1.00  0.00     0.196 HD
ENDROOT
BRANCH   1   4
HETATM    4  C5  UNL     1      31.901  49.218  22.610  1.00  0.00     0.122 A 
HETATM    5  C4  UNL     1      31.206  48.681  21.535  1.00  0.00     0.043 A 
HETATM    6  C3  UNL     1      30.146  47.985  22.080  1.00  0.00     0.035 A 
HETATM    7  C2  UNL     1      30.231  48.121  23.446  1.00  0.00     0.050 A 
HETATM    8  C1  UNL     1      29.265  47.513  24.418  1.00  0.00     0.076 C 
HETATM    9  O3  UNL     1      31.269  48.848  23.704  1.00  0.00    -0.312 OA
ENDBRANCH   1   4
BRANCH   1  10
HETATM   10  N2  UNL     1      33.277  51.137  21.716  1.00  0.00    -0.282 N 
ATOM     11  H2  UNL     1      32.707  51.974  21.835  1.00  0.00     0.188 HD
BRANCH  10  12
HETATM   12  N3  UNL     1      34.214  51.085  20.702  1.00  0.00    -0.307 N 
HETATM   13  C7  UNL     1      34.362  50.081  19.906  1.00  0.00     0.144 C 
ATOM     14  H3  UNL     1      34.827  51.890  20.575  1.00  0.00     0.186 HD
BRANCH  13  15
HETATM   15  C8  UNL     1      35.406  50.177  18.878  1.00  0.00     0.091 A 
HETATM   16  C9  UNL     1      35.529  49.331  17.774  1.00  0.00     0.040 A 
HETATM   17  C10 UNL     1      36.617  49.734  17.047  1.00  0.00     0.027 A 
HETATM   18  C11 UNL     1      37.127  50.829  17.741  1.00  0.00     0.142 A 
HETATM   19  O2  UNL     1      36.381  51.037  18.796  1.00  0.00    -0.321 OA
ENDBRANCH  13  15
ENDBRANCH  10  12
ENDBRANCH   1  10
BRANCH   2  20
HETATM   20  O1  UNL     1      33.906  48.709  24.262  1.00  0.00    -0.288 OA
ATOM     21  H1  UNL     1      34.563  48.023  24.265  1.00  0.00     0.244 HD
ENDBRANCH   2  20
TORSDOF 5
ENDMDL
MODEL 4
REMARK VINA RESULT: -7.221197520      2.439      7.244
REMARK  5 active torsions:
REMARK  status: ('A' for Active; 'I' for Inactive)
REMARK    1  A    between atoms: C5_5  and  C6_6 
REMARK    2  A    between atoms: C6_6  and  N2_11 
REMARK    3  A    between atoms: N1_7  and  O1_9 
REMARK    4  A    between atoms: N2_11  and  N3_13 
REMARK    5  A    between atoms: C7_15  and  C8_16 
ROOT
HETATM    1  C6  UNL     1      33.715  48.844  21.041  1.00  0.00     0.174 C 
HETATM    2  N1  UNL     1      34.291  48.365  22.077  1.00  0.00    -0.249 N 
ATOM      3  H1  UNL     1      33.844  47.627  22.620  1.00  0.00     0.196 HD
ENDROOT
BRANCH   1   4
HETATM    4  C5  UNL     1      34.383  49.894  20.290  1.00  0.00     0.122 A 
HETATM    5  C4  UNL     1      34.155  51.262  20.331  1.00  0.00     0.043 A 
HETATM    6  C3  UNL     1      35.044  51.821  19.436  1.00  0.00     0.035 A 
HETATM    7  C2  UNL     1      35.770  50.788  18.888  1.00  0.00     0.050 A 
HETATM    8  C1  UNL     1      36.851  50.964  17.864  1.00  0.00     0.076 C 
HETATM    9  O3  UNL     1      35.348  49.687  19.418  1.00  0.00    -0.312 OA
ENDBRANCH   1   4
BRANCH   1  10
HETATM   10  N2  UNL     1      32.451  48.317  20.685  1.00  0.00    -0.282 N 
ATOM     11  H2  UNL     1      31.621  48.905  20.755  1.00  0.00     0.188 HD
BRANCH  10  12
HETATM   12  N3  UNL     1      32.331  47.013  20.243  1.00  0.00    -0.307 N 
HETATM   13  C7  UNL     1      32.911  46.553  19.187  1.00  0.00     0.144 C 
ATOM     14  H3  UNL     1      31.747  46.376  20.785  1.00  0.00     0.186 HD
BRANCH  13  15
HETATM   15  C8  UNL     1      32.683  45.142  18.848  1.00  0.00     0.091 A 
HETATM   16  C9  UNL     1      33.017  44.543  17.632  1.00  0.00     0.040 A 
HETATM   17  C10 UNL     1      32.653  43.224  17.692  1.00  0.00     0.027 A 
HETATM   18  C11 UNL     1      32.103  43.061  18.962  1.00  0.00     0.142 A 
HETATM   19  O2  UNL     1      32.149  44.211  19.586  1.00  0.00    -0.321 OA
ENDBRANCH  13  15
ENDBRANCH  10  12
ENDBRANCH   1  10
BRANCH   2  20
HETATM   20  O1  UNL     1      35.514  48.854  22.446  1.00  0.00    -0.288 OA
ATOM     21  H1  UNL     1      36.298  48.385  22.187  1.00  0.00     0.244 HD
ENDBRANCH   2  20
TORSDOF 5
ENDMDL
MODEL 5
REMARK VINA RESULT: -7.211252591      4.913      8.022
REMARK  5 active torsions:
REMARK  status: ('A' for Active; 'I' for Inactive)
REMARK    1  A    between atoms: C5_5  and  C6_6 
REMARK    2  A    between atoms: C6_6  and  N2_11 
REMARK    3  A    between atoms: N1_7  and  O1_9 
REMARK    4  A    between atoms: N2_11  and  N3_13 
REMARK    5  A    between atoms: C7_15  and  C8_16 
ROOT
HETATM    1  C6  UNL     1      34.324  49.665  21.830  1.00  0.00     0.174 C 
HETATM    2  N1  UNL     1      33.765  50.776  22.125  1.00  0.00    -0.249 N 
ATOM      3  H1  UNL     1      33.423  50.946  23.071  1.00  0.00     0.196 HD
ENDROOT
BRANCH   1   4
HETATM    4  C5  UNL     1      34.800  49.459  20.473  1.00  0.00     0.122 A 
HETATM    5  C4  UNL     1      34.502  48.420  19.603  1.00  0.00     0.043 A 
HETATM    6  C3  UNL     1      35.202  48.685  18.443  1.00  0.00     0.035 A 
HETATM    7  C2  UNL     1      35.891  49.858  18.645  1.00  0.00     0.050 A 
HETATM    8  C1  UNL     1      36.780  50.503  17.625  1.00  0.00     0.076 C 
HETATM    9  O3  UNL     1      35.624  50.269  19.842  1.00  0.00    -0.312 OA
ENDBRANCH   1   4
BRANCH   1  10
HETATM   10  N2  UNL     1      34.448  48.696  22.853  1.00  0.00    -0.282 N 
ATOM     11  H2  UNL     1      35.320  48.623  23.377  1.00  0.00     0.188 HD
BRANCH  10  12
HETATM   12  N3  UNL     1      33.399  47.846  23.149  1.00  0.00    -0.307 N 
HETATM   13  C7  UNL     1      32.620  47.989  24.167  1.00  0.00     0.144 C 
ATOM     14  H3  UNL     1      33.230  47.058  22.524  1.00  0.00     0.186 HD
BRANCH  13  15
HETATM   15  C8  UNL     1      31.549  47.000  24.346  1.00  0.00     0.091 A 
HETATM   16  C9  UNL     1      31.548  45.709  23.814  1.00  0.00     0.040 A 
HETATM   17  C10 UNL     1      30.387  45.092  24.197  1.00  0.00     0.027 A 
HETATM   18  C11 UNL     1      29.711  46.040  24.962  1.00  0.00     0.142 A 
HETATM   19  O2  UNL     1      30.436  47.127  25.012  1.00  0.00    -0.321 OA
ENDBRANCH  13  15
ENDBRANCH  10  12
ENDBRANCH   1  10
BRANCH   2  20
HETATM   20  O1  UNL     1      33.630  51.733  21.157  1.00  0.00    -0.288 OA
ATOM     21  H1  UNL     1      33.272  52.582  21.391  1.00  0.00     0.244 HD
ENDBRANCH   2  20
TORSDOF 5
ENDMDL
