MODEL 1
REMARK VINA RESULT: -8.360750452      0.000      0.000
REMARK  9 active torsions:
REMARK  status: ('A' for Active; 'I' for Inactive)
REMARK    1  A    between atoms: C2_2  and  C3_3 
REMARK    2  A    between atoms: C3_3  and  N1_4 
REMARK    3  A    between atoms: C11_12  and  C12_13 
REMARK    4  A    between atoms: C12_13  and  O1_14 
REMARK    5  A    between atoms: N2_17  and  C15_18 
REMARK    6  A    between atoms: C16_20  and  C17_21 
REMARK    7  A    between atoms: C17_21  and  O3_22 
REMARK    8  A    between atoms: C18_24  and  O4_25 
REMARK    9  A    between atoms: C22_30  and  O5_31 
ROOT
HETATM    1  N1  UNL     1       7.691  47.485  52.412  1.00  0.00    -0.336 N 
HETATM    2  C4  UNL     1       6.477  46.830  52.557  1.00  0.00     0.107 A 
HETATM    3  C5  UNL     1       6.522  45.663  51.897  1.00  0.00     0.022 A 
HETATM    4  C6  UNL     1       7.817  45.592  51.320  1.00  0.00     0.035 A 
HETATM    5  C7  UNL     1       8.162  44.540  50.503  1.00  0.00    -0.046 A 
HETATM    6  C8  UNL     1       9.530  44.414  49.953  1.00  0.00     0.049 C 
HETATM    7  C9  UNL     1       7.214  43.589  50.258  1.00  0.00     0.022 A 
HETATM    8  C10 UNL     1       5.946  43.671  50.828  1.00  0.00     0.002 A 
HETATM    9  C11 UNL     1       4.852  42.799  50.623  1.00  0.00    -0.006 A 
HETATM   10  C14 UNL     1       3.872  43.366  51.364  1.00  0.00     0.104 A 
HETATM   11  N2  UNL     1       4.282  44.511  52.005  1.00  0.00    -0.327 N 
HETATM   12  C21 UNL     1       5.586  44.686  51.647  1.00  0.00     0.060 A 
HETATM   13  C22 UNL     1       8.492  46.750  51.682  1.00  0.00     0.154 A 
ENDROOT
BRANCH  11  14
HETATM   14  C15 UNL     1       3.578  45.219  53.031  1.00  0.00     0.234 C 
HETATM   15  O2  UNL     1       2.238  45.411  52.959  1.00  0.00    -0.356 OA
HETATM   16  C16 UNL     1       1.890  45.810  54.290  1.00  0.00     0.176 C 
HETATM   17  C18 UNL     1       2.404  44.515  54.978  1.00  0.00     0.157 C 
HETATM   18  C19 UNL     1       3.775  44.427  54.375  1.00  0.00     0.062 C 
HETATM   19  C20 UNL     1       4.755  45.128  55.277  1.00  0.00     0.017 C 
BRANCH  16  20
HETATM   20  C17 UNL     1       0.422  45.965  54.460  1.00  0.00     0.198 C 
BRANCH  20  21
HETATM   21  O3  UNL     1      -0.260  46.205  53.249  1.00  0.00    -0.398 OA
ATOM     22  H3  UNL     1      -1.205  46.228  53.347  1.00  0.00     0.209 HD
ENDBRANCH  20  21
ENDBRANCH  16  20
BRANCH  17  23
HETATM   23  O4  UNL     1       1.601  43.436  54.571  1.00  0.00    -0.392 OA
ATOM     24  H4  UNL     1       2.093  42.631  54.677  1.00  0.00     0.210 HD
ENDBRANCH  17  23
ENDBRANCH  11  14
BRANCH   9  25
HETATM   25  C12 UNL     1       5.071  41.525  49.921  1.00  0.00     0.208 C 
BRANCH  25  26
HETATM   26  O1  UNL     1       4.364  41.200  48.812  1.00  0.00    -0.391 OA
HETATM   27  C13 UNL     1       5.253  41.567  47.714  1.00  0.00     0.201 C 
ENDBRANCH  25  26
ENDBRANCH   9  25
BRANCH   1  28
HETATM   28  C3  UNL     1       7.825  48.825  52.968  1.00  0.00     0.130 C 
BRANCH  28  29
HETATM   29  C2  UNL     1       7.969  48.565  54.499  1.00  0.00     0.016 C 
HETATM   30  C1  UNL     1       9.372  48.182  54.835  1.00  0.00     0.006 C 
ENDBRANCH  28  29
ENDBRANCH   1  28
BRANCH  13  31
HETATM   31  O5  UNL     1       9.811  47.035  51.300  1.00  0.00    -0.345 OA
ATOM     32  H5  UNL     1      10.447  47.571  51.758  1.00  0.00     0.219 HD
ENDBRANCH  13  31
TORSDOF 9
ENDMDL
MODEL 2
REMARK VINA RESULT: -8.230133317      1.925      5.226
REMARK  9 active torsions:
REMARK  status: ('A' for Active; 'I' for Inactive)
REMARK    1  A    between atoms: C2_2  and  C3_3 
REMARK    2  A    between atoms: C3_3  and  N1_4 
REMARK    3  A    between atoms: C11_12  and  C12_13 
REMARK    4  A    between atoms: C12_13  and  O1_14 
REMARK    5  A    between atoms: N2_17  and  C15_18 
REMARK    6  A    between atoms: C16_20  and  C17_21 
REMARK    7  A    between atoms: C17_21  and  O3_22 
REMARK    8  A    between atoms: C18_24  and  O4_25 
REMARK    9  A    between atoms: C22_30  and  O5_31 
ROOT
HETATM    1  N1  UNL     1       6.327  43.480  50.164  1.00  0.00    -0.336 N 
HETATM    2  C4  UNL     1       5.489  44.191  51.010  1.00  0.00     0.107 A 
HETATM    3  C5  UNL     1       6.166  45.219  51.544  1.00  0.00     0.022 A 
HETATM    4  C6  UNL     1       7.478  45.142  51.006  1.00  0.00     0.035 A 
HETATM    5  C7  UNL     1       8.455  46.018  51.416  1.00  0.00    -0.046 A 
HETATM    6  C8  UNL     1       9.806  45.998  50.812  1.00  0.00     0.049 C 
HETATM    7  C9  UNL     1       8.121  46.941  52.365  1.00  0.00     0.022 A 
HETATM    8  C10 UNL     1       6.832  47.006  52.887  1.00  0.00     0.002 A 
HETATM    9  C11 UNL     1       6.358  47.864  53.906  1.00  0.00    -0.006 A 
HETATM   10  C14 UNL     1       5.071  47.472  54.055  1.00  0.00     0.104 A 
HETATM   11  N2  UNL     1       4.723  46.447  53.207  1.00  0.00    -0.327 N 
HETATM   12  C21 UNL     1       5.848  46.166  52.489  1.00  0.00     0.060 A 
HETATM   13  C22 UNL     1       7.508  44.045  50.155  1.00  0.00     0.154 A 
ENDROOT
BRANCH  11  14
HETATM   14  C15 UNL     1       3.403  45.958  52.948  1.00  0.00     0.234 C 
HETATM   15  O2  UNL     1       3.156  45.118  51.913  1.00  0.00    -0.356 OA
HETATM   16  C16 UNL     1       1.856  44.598  52.214  1.00  0.00     0.176 C 
HETATM   17  C18 UNL     1       2.254  43.973  53.580  1.00  0.00     0.157 C 
HETATM   18  C19 UNL     1       2.941  45.147  54.213  1.00  0.00     0.062 C 
HETATM   19  C20 UNL     1       1.939  45.927  55.020  1.00  0.00     0.017 C 
BRANCH  16  20
HETATM   20  C17 UNL     1       1.436  43.552  51.245  1.00  0.00     0.198 C 
BRANCH  20  21
HETATM   21  O3  UNL     1       0.823  42.438  51.855  1.00  0.00    -0.398 OA
ATOM     22  H3  UNL     1       0.949  41.628  51.374  1.00  0.00     0.209 HD
ENDBRANCH  20  21
ENDBRANCH  16  20
BRANCH  17  23
HETATM   23  O4  UNL     1       3.155  42.919  53.352  1.00  0.00    -0.392 OA
ATOM     24  H4  UNL     1       3.688  42.798  54.129  1.00  0.00     0.210 HD
ENDBRANCH  17  23
ENDBRANCH  11  14
BRANCH   9  25
HETATM   25  C12 UNL     1       7.201  48.983  54.352  1.00  0.00     0.208 C 
BRANCH  25  26
HETATM   26  O1  UNL     1       7.763  48.996  55.585  1.00  0.00    -0.391 OA
HETATM   27  C13 UNL     1       9.164  48.674  55.330  1.00  0.00     0.201 C 
ENDBRANCH  25  26
ENDBRANCH   9  25
BRANCH   1  28
HETATM   28  C3  UNL     1       5.820  42.257  49.556  1.00  0.00     0.130 C 
BRANCH  28  29
HETATM   29  C2  UNL     1       4.852  41.692  50.640  1.00  0.00     0.016 C 
HETATM   30  C1  UNL     1       3.721  40.956  50.001  1.00  0.00     0.006 C 
ENDBRANCH  28  29
ENDBRANCH   1  28
BRANCH  13  31
HETATM   31  O5  UNL     1       8.644  43.652  49.431  1.00  0.00    -0.345 OA
ATOM     32  H5  UNL     1       9.286  44.208  49.008  1.00  0.00     0.219 HD
ENDBRANCH  13  31
TORSDOF 9
ENDMDL
MODEL 3
REMARK VINA RESULT: -8.176400363      1.823      5.476
REMARK  9 active torsions:
REMARK  status: ('A' for Active; 'I' for Inactive)
REMARK    1  A    between atoms: C2_2  and  C3_3 
REMARK    2  A    between atoms: C3_3  and  N1_4 
REMARK    3  A    between atoms: C11_12  and  C12_13 
REMARK    4  A    between atoms: C12_13  and  O1_14 
REMARK    5  A    between atoms: N2_17  and  C15_18 
REMARK    6  A    between atoms: C16_20  and  C17_21 
REMARK    7  A    between atoms: C17_21  and  O3_22 
REMARK    8  A    between atoms: C18_24  and  O4_25 
REMARK    9  A    between atoms: C22_30  and  O5_31 
ROOT
HETATM    1  N1  UNL     1       4.504  41.783  50.095  1.00  0.00    -0.336 N 
HETATM    2  C4  UNL     1       4.119  42.586  51.159  1.00  0.00     0.107 A 
HETATM    3  C5  UNL     1       4.994  43.594  51.293  1.00  0.00     0.022 A 
HETATM    4  C6  UNL     1       5.961  43.408  50.269  1.00  0.00     0.035 A 
HETATM    5  C7  UNL     1       7.053  44.240  50.178  1.00  0.00    -0.046 A 
HETATM    6  C8  UNL     1       8.029  44.105  49.075  1.00  0.00     0.049 C 
HETATM    7  C9  UNL     1       7.176  45.228  51.112  1.00  0.00     0.022 A 
HETATM    8  C10 UNL     1       6.223  45.398  52.113  1.00  0.00     0.002 A 
HETATM    9  C11 UNL     1       6.247  46.334  53.173  1.00  0.00    -0.006 A 
HETATM   10  C14 UNL     1       5.124  46.031  53.866  1.00  0.00     0.104 A 
HETATM   11  N2  UNL     1       4.418  44.990  53.311  1.00  0.00    -0.327 N 
HETATM   12  C21 UNL     1       5.132  44.604  52.215  1.00  0.00     0.060 A 
HETATM   13  C22 UNL     1       5.595  42.271  49.561  1.00  0.00     0.154 A 
ENDROOT
BRANCH  11  14
HETATM   14  C15 UNL     1       3.092  44.573  53.653  1.00  0.00     0.234 C 
HETATM   15  O2  UNL     1       2.631  44.674  54.924  1.00  0.00    -0.356 OA
HETATM   16  C16 UNL     1       1.215  44.512  54.774  1.00  0.00     0.176 C 
HETATM   17  C18 UNL     1       1.021  45.730  53.830  1.00  0.00     0.157 C 
HETATM   18  C19 UNL     1       2.089  45.447  52.816  1.00  0.00     0.062 C 
HETATM   19  C20 UNL     1       1.495  44.653  51.684  1.00  0.00     0.017 C 
BRANCH  16  20
HETATM   20  C17 UNL     1       0.492  44.704  56.058  1.00  0.00     0.198 C 
BRANCH  20  21
HETATM   21  O3  UNL     1       1.173  45.544  56.963  1.00  0.00    -0.398 OA
ATOM     22  H3  UNL     1       1.895  45.114  57.407  1.00  0.00     0.209 HD
ENDBRANCH  20  21
ENDBRANCH  16  20
BRANCH  17  23
HETATM   23  O4  UNL     1       1.299  46.908  54.545  1.00  0.00    -0.392 OA
ATOM     24  H4  UNL     1       2.179  47.195  54.331  1.00  0.00     0.210 HD
ENDBRANCH  17  23
ENDBRANCH  11  14
BRANCH   9  25
HETATM   25  C12 UNL     1       7.240  47.418  53.153  1.00  0.00     0.208 C 
BRANCH  25  26
HETATM   26  O1  UNL     1       8.081  47.625  54.195  1.00  0.00    -0.391 OA
HETATM   27  C13 UNL     1       9.407  47.464  53.608  1.00  0.00     0.201 C 
ENDBRANCH  25  26
ENDBRANCH   9  25
BRANCH   1  28
HETATM   28  C3  UNL     1       3.745  40.567  49.837  1.00  0.00     0.130 C 
BRANCH  28  29
HETATM   29  C2  UNL     1       2.343  41.102  49.412  1.00  0.00     0.016 C 
HETATM   30  C1  UNL     1       2.305  41.364  47.943  1.00  0.00     0.006 C 
ENDBRANCH  28  29
ENDBRANCH   1  28
BRANCH  13  31
HETATM   31  O5  UNL     1       6.313  41.772  48.463  1.00  0.00    -0.345 OA
ATOM     32  H5  UNL     1       6.227  42.020  47.551  1.00  0.00     0.219 HD
ENDBRANCH  13  31
TORSDOF 9
ENDMDL
MODEL 4
REMARK VINA RESULT: -8.152691557      2.091      5.296
REMARK  9 active torsions:
REMARK  status: ('A' for Active; 'I' for Inactive)
REMARK    1  A    between atoms: C2_2  and  C3_3 
REMARK    2  A    between atoms: C3_3  and  N1_4 
REMARK    3  A    between atoms: C11_12  and  C12_13 
REMARK    4  A    between atoms: C12_13  and  O1_14 
REMARK    5  A    between atoms: N2_17  and  C15_18 
REMARK    6  A    between atoms: C16_20  and  C17_21 
REMARK    7  A    between atoms: C17_21  and  O3_22 
REMARK    8  A    between atoms: C18_24  and  O4_25 
REMARK    9  A    between atoms: C22_30  and  O5_31 
ROOT
HETATM    1  N1  UNL     1       7.087  43.870  49.781  1.00  0.00    -0.336 N 
HETATM    2  C4  UNL     1       5.972  44.232  50.521  1.00  0.00     0.107 A 
HETATM    3  C5  UNL     1       6.312  45.194  51.394  1.00  0.00     0.022 A 
HETATM    4  C6  UNL     1       7.695  45.436  51.184  1.00  0.00     0.035 A 
HETATM    5  C7  UNL     1       8.379  46.323  51.982  1.00  0.00    -0.046 A 
HETATM    6  C8  UNL     1       9.801  46.642  51.731  1.00  0.00     0.049 C 
HETATM    7  C9  UNL     1       7.685  46.939  52.984  1.00  0.00     0.022 A 
HETATM    8  C10 UNL     1       6.329  46.691  53.181  1.00  0.00     0.002 A 
HETATM    9  C11 UNL     1       5.500  47.208  54.203  1.00  0.00    -0.006 A 
HETATM   10  C14 UNL     1       4.311  46.609  53.957  1.00  0.00     0.104 A 
HETATM   11  N2  UNL     1       4.350  45.773  52.866  1.00  0.00    -0.327 N 
HETATM   12  C21 UNL     1       5.630  45.835  52.400  1.00  0.00     0.060 A 
HETATM   13  C22 UNL     1       8.112  44.586  50.168  1.00  0.00     0.154 A 
ENDROOT
BRANCH  11  14
HETATM   14  C15 UNL     1       3.231  45.172  52.205  1.00  0.00     0.234 C 
HETATM   15  O2  UNL     1       3.336  43.958  51.612  1.00  0.00    -0.356 OA
HETATM   16  C16 UNL     1       1.971  43.573  51.407  1.00  0.00     0.176 C 
HETATM   17  C18 UNL     1       1.572  43.619  52.908  1.00  0.00     0.157 C 
HETATM   18  C19 UNL     1       2.097  44.975  53.275  1.00  0.00     0.062 C 
HETATM   19  C20 UNL     1       1.002  45.991  53.097  1.00  0.00     0.017 C 
BRANCH  16  20
HETATM   20  C17 UNL     1       1.856  42.196  50.860  1.00  0.00     0.198 C 
BRANCH  20  21
HETATM   21  O3  UNL     1       2.999  41.403  51.094  1.00  0.00    -0.398 OA
ATOM     22  H3  UNL     1       3.207  40.820  50.374  1.00  0.00     0.209 HD
ENDBRANCH  20  21
ENDBRANCH  16  20
BRANCH  17  23
HETATM   23  O4  UNL     1       2.263  42.604  53.592  1.00  0.00    -0.392 OA
ATOM     24  H4  UNL     1       1.684  41.858  53.699  1.00  0.00     0.210 HD
ENDBRANCH  17  23
ENDBRANCH  11  14
BRANCH   9  25
HETATM   25  C12 UNL     1       5.999  48.301  55.050  1.00  0.00     0.208 C 
BRANCH  25  26
HETATM   26  O1  UNL     1       5.954  49.591  54.639  1.00  0.00    -0.391 OA
HETATM   27  C13 UNL     1       4.592  50.009  54.956  1.00  0.00     0.201 C 
ENDBRANCH  25  26
ENDBRANCH   9  25
BRANCH   1  28
HETATM   28  C3  UNL     1       6.962  42.764  48.840  1.00  0.00     0.130 C 
BRANCH  28  29
HETATM   29  C2  UNL     1       5.592  42.123  49.219  1.00  0.00     0.016 C 
HETATM   30  C1  UNL     1       5.038  41.352  48.068  1.00  0.00     0.006 C 
ENDBRANCH  28  29
ENDBRANCH   1  28
BRANCH  13  31
HETATM   31  O5  UNL     1       9.426  44.544  49.677  1.00  0.00    -0.345 OA
ATOM     32  H5  UNL     1      10.085  45.226  49.719  1.00  0.00     0.219 HD
ENDBRANCH  13  31
TORSDOF 9
ENDMDL
MODEL 5
REMARK VINA RESULT: -8.152106883      1.952      5.376
REMARK  9 active torsions:
REMARK  status: ('A' for Active; 'I' for Inactive)
REMARK    1  A    between atoms: C2_2  and  C3_3 
REMARK    2  A    between atoms: C3_3  and  N1_4 
REMARK    3  A    between atoms: C11_12  and  C12_13 
REMARK    4  A    between atoms: C12_13  and  O1_14 
REMARK    5  A    between atoms: N2_17  and  C15_18 
REMARK    6  A    between atoms: C16_20  and  C17_21 
REMARK    7  A    between atoms: C17_21  and  O3_22 
REMARK    8  A    between atoms: C18_24  and  O4_25 
REMARK    9  A    between atoms: C22_30  and  O5_31 
ROOT
HETATM    1  N1  UNL     1       5.631  42.779  50.544  1.00  0.00    -0.336 N 
HETATM    2  C4  UNL     1       4.894  43.391  51.547  1.00  0.00     0.107 A 
HETATM    3  C5  UNL     1       5.476  44.554  51.878  1.00  0.00     0.022 A 
HETATM    4  C6  UNL     1       6.620  44.667  51.045  1.00  0.00     0.035 A 
HETATM    5  C7  UNL     1       7.489  45.724  51.188  1.00  0.00    -0.046 A 
HETATM    6  C8  UNL     1       8.644  45.896  50.281  1.00  0.00     0.049 C 
HETATM    7  C9  UNL     1       7.218  46.639  52.165  1.00  0.00     0.022 A 
HETATM    8  C10 UNL     1       6.094  46.516  52.978  1.00  0.00     0.002 A 
HETATM    9  C11 UNL     1       5.718  47.347  54.058  1.00  0.00    -0.006 A 
HETATM   10  C14 UNL     1       4.594  46.751  54.520  1.00  0.00     0.104 A 
HETATM   11  N2  UNL     1       4.254  45.626  53.806  1.00  0.00    -0.327 N 
HETATM   12  C21 UNL     1       5.216  45.495  52.847  1.00  0.00     0.060 A 
HETATM   13  C22 UNL     1       6.655  43.536  50.240  1.00  0.00     0.154 A 
ENDROOT
BRANCH  11  14
HETATM   14  C15 UNL     1       3.022  44.901  53.881  1.00  0.00     0.234 C 
HETATM   15  O2  UNL     1       2.359  44.764  55.055  1.00  0.00    -0.356 OA
HETATM   16  C16 UNL     1       1.059  44.320  54.649  1.00  0.00     0.176 C 
HETATM   17  C18 UNL     1       0.739  45.562  53.771  1.00  0.00     0.157 C 
HETATM   18  C19 UNL     1       1.988  45.623  52.943  1.00  0.00     0.062 C 
HETATM   19  C20 UNL     1       1.775  44.845  51.673  1.00  0.00     0.017 C 
BRANCH  16  20
HETATM   20  C17 UNL     1       0.121  44.216  55.797  1.00  0.00     0.198 C 
BRANCH  20  21
HETATM   21  O3  UNL     1       0.581  44.871  56.957  1.00  0.00    -0.398 OA
ATOM     22  H3  UNL     1       1.226  45.546  56.779  1.00  0.00     0.209 HD
ENDBRANCH  20  21
ENDBRANCH  16  20
BRANCH  17  23
HETATM   23  O4  UNL     1       0.627  46.689  54.604  1.00  0.00    -0.392 OA
ATOM     24  H4  UNL     1       1.305  47.311  54.370  1.00  0.00     0.210 HD
ENDBRANCH  17  23
ENDBRANCH  11  14
BRANCH   9  25
HETATM   25  C12 UNL     1       6.421  48.622  54.262  1.00  0.00     0.208 C 
BRANCH  25  26
HETATM   26  O1  UNL     1       7.063  48.896  55.424  1.00  0.00    -0.391 OA
HETATM   27  C13 UNL     1       8.468  48.968  55.035  1.00  0.00     0.201 C 
ENDBRANCH  25  26
ENDBRANCH   9  25
BRANCH   1  28
HETATM   28  C3  UNL     1       5.230  41.449  50.105  1.00  0.00     0.130 C 
BRANCH  28  29
HETATM   29  C2  UNL     1       3.759  41.333  50.611  1.00  0.00     0.016 C 
HETATM   30  C1  UNL     1       2.931  40.559  49.639  1.00  0.00     0.006 C 
ENDBRANCH  28  29
ENDBRANCH   1  28
BRANCH  13  31
HETATM   31  O5  UNL     1       7.646  43.296  49.276  1.00  0.00    -0.345 OA
ATOM     32  H5  UNL     1       8.032  43.918  48.670  1.00  0.00     0.219 HD
ENDBRANCH  13  31
TORSDOF 9
ENDMDL
