MODEL 1
REMARK VINA RESULT: -8.936503544      0.000      0.000
REMARK  7 active torsions:
REMARK  status: ('A' for Active; 'I' for Inactive)
REMARK    1  A    between atoms: C2_2  and  C3_3 
REMARK    2  A    between atoms: C3_3  and  C4_4 
REMARK    3  A    between atoms: C4_4  and  O1_6 
REMARK    4  A    between atoms: O1_6  and  C6_7 
REMARK    5  A    between atoms: C7_8  and  C8_9 
REMARK    6  A    between atoms: C9_13  and  C10_14 
REMARK    7  A    between atoms: C12_17  and  N1_18 
REMARK       I    between atoms: N1_18  and  C13_20 
ROOT
HETATM    1  N1  UNL     1       3.269  41.431  51.242  1.00  0.00    -0.310 N 
ATOM      2  H1  UNL     1       3.204  40.652  51.897  1.00  0.00     0.170 HD
HETATM    3  C13 UNL     1       3.633  41.234  49.891  1.00  0.00     0.203 C 
HETATM    4  N2  UNL     1       2.815  40.474  49.027  1.00  0.00    -0.062 NA
HETATM    5  N3  UNL     1       4.716  41.751  49.448  1.00  0.00    -0.267 N 
ATOM      6  H3  UNL     1       5.299  42.299  50.080  1.00  0.00     0.180 HD
HETATM    7  C14 UNL     1       5.124  41.586  48.115  1.00  0.00     0.184 C 
HETATM    8  N4  UNL     1       5.459  41.438  47.014  1.00  0.00    -0.172 NA
ENDROOT
BRANCH   1   9
HETATM    9  C12 UNL     1       3.014  42.680  51.620  1.00  0.00     0.151 A 
HETATM   10  S2  UNL     1       1.531  43.494  51.696  1.00  0.00    -0.063 SA
HETATM   11  C11 UNL     1       2.129  45.014  52.269  1.00  0.00     0.084 A 
HETATM   12  C10 UNL     1       3.473  44.786  52.365  1.00  0.00     0.059 A 
HETATM   13  N5  UNL     1       3.890  43.581  52.027  1.00  0.00    -0.335 N 
ATOM     14  H5  UNL     1       4.881  43.347  52.079  1.00  0.00     0.168 HD
BRANCH  12  15
HETATM   15  C9  UNL     1       4.439  45.853  52.782  1.00  0.00     0.056 A 
HETATM   16  S1  UNL     1       4.093  47.005  54.026  1.00  0.00    -0.077 SA
HETATM   17  C7  UNL     1       5.586  47.851  54.022  1.00  0.00     0.117 A 
HETATM   18  C6  UNL     1       6.302  47.206  53.056  1.00  0.00     0.115 A 
HETATM   19  C15 UNL     1       5.690  46.165  52.415  1.00  0.00     0.099 A 
HETATM   20  C16 UNL     1       6.388  45.443  51.345  1.00  0.00     0.104 C 
HETATM   21  N6  UNL     1       6.984  44.878  50.480  1.00  0.00    -0.191 NA
BRANCH  17  22
HETATM   22  C8  UNL     1       5.863  48.988  54.896  1.00  0.00     0.219 C 
HETATM   23  O2  UNL     1       6.917  49.205  55.473  1.00  0.00    -0.643 OA
HETATM   24  O3  UNL     1       4.830  49.935  55.106  1.00  0.00    -0.643 OA
ENDBRANCH  17  22
BRANCH  18  25
HETATM   25  O1  UNL     1       7.598  47.639  52.778  1.00  0.00    -0.343 OA
BRANCH  25  26
HETATM   26  C4  UNL     1       8.805  47.031  53.017  1.00  0.00     0.125 C 
HETATM   27  C5  UNL     1       9.560  47.805  54.081  1.00  0.00     0.040 C 
BRANCH  26  28
HETATM   28  C3  UNL     1       9.710  46.853  51.798  1.00  0.00     0.032 C 
BRANCH  28  29
HETATM   29  C2  UNL     1      10.434  45.511  51.894  1.00  0.00    -0.002 C 
HETATM   30  C1  UNL     1      10.125  44.715  50.648  1.00  0.00     0.005 C 
ENDBRANCH  28  29
ENDBRANCH  26  28
ENDBRANCH  25  26
ENDBRANCH  18  25
ENDBRANCH  12  15
ENDBRANCH   1   9
TORSDOF 7
ENDMDL
MODEL 2
REMARK VINA RESULT: -8.539835147      2.682      3.651
REMARK  7 active torsions:
REMARK  status: ('A' for Active; 'I' for Inactive)
REMARK    1  A    between atoms: C2_2  and  C3_3 
REMARK    2  A    between atoms: C3_3  and  C4_4 
REMARK    3  A    between atoms: C4_4  and  O1_6 
REMARK    4  A    between atoms: O1_6  and  C6_7 
REMARK    5  A    between atoms: C7_8  and  C8_9 
REMARK    6  A    between atoms: C9_13  and  C10_14 
REMARK    7  A    between atoms: C12_17  and  N1_18 
REMARK       I    between atoms: N1_18  and  C13_20 
ROOT
HETATM    1  N1  UNL     1      -0.072  41.952  53.896  1.00  0.00    -0.310 N 
ATOM      2  H1  UNL     1       0.145  41.149  54.486  1.00  0.00     0.170 HD
HETATM    3  C13 UNL     1      -0.831  41.817  52.712  1.00  0.00     0.203 C 
HETATM    4  N2  UNL     1      -2.176  41.392  52.763  1.00  0.00    -0.062 NA
HETATM    5  N3  UNL     1      -0.292  42.084  51.583  1.00  0.00    -0.267 N 
ATOM      6  H3  UNL     1       0.680  42.391  51.557  1.00  0.00     0.180 HD
HETATM    7  C14 UNL     1      -1.002  41.965  50.377  1.00  0.00     0.184 C 
HETATM    8  N4  UNL     1      -1.592  41.858  49.385  1.00  0.00    -0.172 NA
ENDROOT
BRANCH   1   9
HETATM    9  C12 UNL     1       0.347  43.175  54.205  1.00  0.00     0.151 A 
HETATM   10  S2  UNL     1      -0.524  44.469  54.865  1.00  0.00    -0.063 SA
HETATM   11  C11 UNL     1       0.772  45.617  54.922  1.00  0.00     0.084 A 
HETATM   12  C10 UNL     1       1.820  44.905  54.411  1.00  0.00     0.059 A 
HETATM   13  N5  UNL     1       1.567  43.659  54.056  1.00  0.00    -0.335 N 
ATOM     14  H5  UNL     1       2.308  43.075  53.670  1.00  0.00     0.168 HD
BRANCH  12  15
HETATM   15  C9  UNL     1       3.177  45.508  54.211  1.00  0.00     0.056 A 
HETATM   16  S1  UNL     1       3.724  46.906  55.072  1.00  0.00    -0.077 SA
HETATM   17  C7  UNL     1       5.310  47.008  54.423  1.00  0.00     0.117 A 
HETATM   18  C6  UNL     1       5.358  45.952  53.562  1.00  0.00     0.115 A 
HETATM   19  C15 UNL     1       4.236  45.177  53.460  1.00  0.00     0.099 A 
HETATM   20  C16 UNL     1       4.206  44.039  52.532  1.00  0.00     0.104 C 
HETATM   21  N6  UNL     1       4.215  43.123  51.769  1.00  0.00    -0.191 NA
BRANCH  17  22
HETATM   22  C8  UNL     1       6.258  48.056  54.793  1.00  0.00     0.219 C 
HETATM   23  O2  UNL     1       7.417  47.880  55.137  1.00  0.00    -0.643 OA
HETATM   24  O3  UNL     1       5.814  49.401  54.758  1.00  0.00    -0.643 OA
ENDBRANCH  17  22
BRANCH  18  25
HETATM   25  O1  UNL     1       6.531  45.724  52.843  1.00  0.00    -0.343 OA
BRANCH  25  26
HETATM   26  C4  UNL     1       6.972  46.285  51.670  1.00  0.00     0.125 C 
HETATM   27  C5  UNL     1       7.233  45.190  50.652  1.00  0.00     0.040 C 
BRANCH  26  28
HETATM   28  C3  UNL     1       8.220  47.162  51.784  1.00  0.00     0.032 C 
BRANCH  28  29
HETATM   29  C2  UNL     1       9.377  46.330  52.336  1.00  0.00    -0.002 C 
HETATM   30  C1  UNL     1       9.997  47.085  53.487  1.00  0.00     0.005 C 
ENDBRANCH  28  29
ENDBRANCH  26  28
ENDBRANCH  25  26
ENDBRANCH  18  25
ENDBRANCH  12  15
ENDBRANCH   1   9
TORSDOF 7
ENDMDL
MODEL 3
REMARK VINA RESULT: -8.473760831      3.622      5.514
REMARK  7 active torsions:
REMARK  status: ('A' for Active; 'I' for Inactive)
REMARK    1  A    between atoms: C2_2  and  C3_3 
REMARK    2  A    between atoms: C3_3  and  C4_4 
REMARK    3  A    between atoms: C4_4  and  O1_6 
REMARK    4  A    between atoms: O1_6  and  C6_7 
REMARK    5  A    between atoms: C7_8  and  C8_9 
REMARK    6  A    between atoms: C9_13  and  C10_14 
REMARK    7  A    between atoms: C12_17  and  N1_18 
REMARK       I    between atoms: N1_18  and  C13_20 
ROOT
HETATM    1  N1  UNL     1      -1.285  44.832  54.903  1.00  0.00    -0.310 N 
ATOM      2  H1  UNL     1      -2.160  44.728  54.390  1.00  0.00     0.170 HD
HETATM    3  C13 UNL     1      -1.255  45.348  56.219  1.00  0.00     0.203 C 
HETATM    4  N2  UNL     1      -1.886  44.660  57.278  1.00  0.00    -0.062 NA
HETATM    5  N3  UNL     1      -0.650  46.452  56.450  1.00  0.00    -0.267 N 
ATOM      6  H3  UNL     1      -0.197  46.940  55.678  1.00  0.00     0.180 HD
HETATM    7  C14 UNL     1      -0.592  47.008  57.737  1.00  0.00     0.184 C 
HETATM    8  N4  UNL     1      -0.555  47.466  58.802  1.00  0.00    -0.172 NA
ENDROOT
BRANCH   1   9
HETATM    9  C12 UNL     1      -0.118  44.489  54.367  1.00  0.00     0.151 A 
HETATM   10  S2  UNL     1       0.311  43.061  53.563  1.00  0.00    -0.063 SA
HETATM   11  C11 UNL     1       1.960  43.471  53.226  1.00  0.00     0.084 A 
HETATM   12  C10 UNL     1       2.073  44.717  53.774  1.00  0.00     0.059 A 
HETATM   13  N5  UNL     1       0.990  45.207  54.348  1.00  0.00    -0.335 N 
ATOM     14  H5  UNL     1       1.009  46.133  54.773  1.00  0.00     0.168 HD
BRANCH  12  15
HETATM   15  C9  UNL     1       3.364  45.478  53.776  1.00  0.00     0.056 A 
HETATM   16  S1  UNL     1       3.619  46.899  54.731  1.00  0.00    -0.077 SA
HETATM   17  C7  UNL     1       5.255  47.205  54.312  1.00  0.00     0.117 A 
HETATM   18  C6  UNL     1       5.545  46.191  53.447  1.00  0.00     0.115 A 
HETATM   19  C15 UNL     1       4.547  45.297  53.174  1.00  0.00     0.099 A 
HETATM   20  C16 UNL     1       4.778  44.196  52.231  1.00  0.00     0.104 C 
HETATM   21  N6  UNL     1       4.999  43.314  51.459  1.00  0.00    -0.191 NA
BRANCH  17  22
HETATM   22  C8  UNL     1       6.013  48.340  54.830  1.00  0.00     0.219 C 
HETATM   23  O2  UNL     1       7.185  48.319  55.172  1.00  0.00    -0.643 OA
HETATM   24  O3  UNL     1       5.349  49.585  54.956  1.00  0.00    -0.643 OA
ENDBRANCH  17  22
BRANCH  18  25
HETATM   25  O1  UNL     1       6.823  46.124  52.894  1.00  0.00    -0.343 OA
BRANCH  25  26
HETATM   26  C4  UNL     1       7.331  46.717  51.764  1.00  0.00     0.125 C 
HETATM   27  C5  UNL     1       7.697  45.647  50.753  1.00  0.00     0.040 C 
BRANCH  26  28
HETATM   28  C3  UNL     1       8.539  47.628  51.980  1.00  0.00     0.032 C 
BRANCH  28  29
HETATM   29  C2  UNL     1       9.677  46.823  52.608  1.00  0.00    -0.002 C 
HETATM   30  C1  UNL     1       9.967  47.397  53.974  1.00  0.00     0.005 C 
ENDBRANCH  28  29
ENDBRANCH  26  28
ENDBRANCH  25  26
ENDBRANCH  18  25
ENDBRANCH  12  15
ENDBRANCH   1   9
TORSDOF 7
ENDMDL
MODEL 4
REMARK VINA RESULT: -8.440873551      4.179      6.199
REMARK  7 active torsions:
REMARK  status: ('A' for Active; 'I' for Inactive)
REMARK    1  A    between atoms: C2_2  and  C3_3 
REMARK    2  A    between atoms: C3_3  and  C4_4 
REMARK    3  A    between atoms: C4_4  and  O1_6 
REMARK    4  A    between atoms: O1_6  and  C6_7 
REMARK    5  A    between atoms: C7_8  and  C8_9 
REMARK    6  A    between atoms: C9_13  and  C10_14 
REMARK    7  A    between atoms: C12_17  and  N1_18 
REMARK       I    between atoms: N1_18  and  C13_20 
ROOT
HETATM    1  N1  UNL     1      -0.069  45.473  56.867  1.00  0.00    -0.310 N 
ATOM      2  H1  UNL     1      -0.121  44.541  57.278  1.00  0.00     0.170 HD
HETATM    3  C13 UNL     1      -0.647  46.596  57.501  1.00  0.00     0.203 C 
HETATM    4  N2  UNL     1      -0.174  47.039  58.755  1.00  0.00    -0.062 NA
HETATM    5  N3  UNL     1      -1.610  47.216  56.930  1.00  0.00    -0.267 N 
ATOM      6  H3  UNL     1      -1.944  46.889  56.024  1.00  0.00     0.180 HD
HETATM    7  C14 UNL     1      -2.220  48.336  57.518  1.00  0.00     0.184 C 
HETATM    8  N4  UNL     1      -2.724  49.256  58.013  1.00  0.00    -0.172 NA
ENDROOT
BRANCH   1   9
HETATM    9  C12 UNL     1       0.545  45.688  55.708  1.00  0.00     0.151 A 
HETATM   10  S2  UNL     1      -0.061  45.545  54.133  1.00  0.00    -0.063 SA
HETATM   11  C11 UNL     1       1.380  46.000  53.287  1.00  0.00     0.084 A 
HETATM   12  C10 UNL     1       2.258  46.239  54.306  1.00  0.00     0.059 A 
HETATM   13  N5  UNL     1       1.797  46.071  55.530  1.00  0.00    -0.335 N 
ATOM     14  H5  UNL     1       2.402  46.235  56.334  1.00  0.00     0.168 HD
BRANCH  12  15
HETATM   15  C9  UNL     1       3.687  46.622  54.060  1.00  0.00     0.056 A 
HETATM   16  S1  UNL     1       4.380  48.098  54.640  1.00  0.00    -0.077 SA
HETATM   17  C7  UNL     1       5.984  47.872  54.074  1.00  0.00     0.117 A 
HETATM   18  C6  UNL     1       5.925  46.657  53.458  1.00  0.00     0.115 A 
HETATM   19  C15 UNL     1       4.717  46.015  53.456  1.00  0.00     0.099 A 
HETATM   20  C16 UNL     1       4.571  44.717  52.787  1.00  0.00     0.104 C 
HETATM   21  N6  UNL     1       4.487  43.664  52.234  1.00  0.00    -0.191 NA
BRANCH  17  22
HETATM   22  C8  UNL     1       7.046  48.856  54.270  1.00  0.00     0.219 C 
HETATM   23  O2  UNL     1       7.466  49.248  55.348  1.00  0.00    -0.643 OA
HETATM   24  O3  UNL     1       7.655  49.418  53.121  1.00  0.00    -0.643 OA
ENDBRANCH  17  22
BRANCH  18  25
HETATM   25  O1  UNL     1       7.080  46.144  52.869  1.00  0.00    -0.343 OA
BRANCH  25  26
HETATM   26  C4  UNL     1       7.690  46.473  51.684  1.00  0.00     0.125 C 
HETATM   27  C5  UNL     1       7.430  45.383  50.661  1.00  0.00     0.040 C 
BRANCH  26  28
HETATM   28  C3  UNL     1       9.196  46.729  51.763  1.00  0.00     0.032 C 
BRANCH  28  29
HETATM   29  C2  UNL     1       9.739  46.159  53.073  1.00  0.00    -0.002 C 
HETATM   30  C1  UNL     1      10.072  47.311  53.990  1.00  0.00     0.005 C 
ENDBRANCH  28  29
ENDBRANCH  26  28
ENDBRANCH  25  26
ENDBRANCH  18  25
ENDBRANCH  12  15
ENDBRANCH   1   9
TORSDOF 7
ENDMDL
MODEL 5
REMARK VINA RESULT: -8.430231338      1.892      2.512
REMARK  7 active torsions:
REMARK  status: ('A' for Active; 'I' for Inactive)
REMARK    1  A    between atoms: C2_2  and  C3_3 
REMARK    2  A    between atoms: C3_3  and  C4_4 
REMARK    3  A    between atoms: C4_4  and  O1_6 
REMARK    4  A    between atoms: O1_6  and  C6_7 
REMARK    5  A    between atoms: C7_8  and  C8_9 
REMARK    6  A    between atoms: C9_13  and  C10_14 
REMARK    7  A    between atoms: C12_17  and  N1_18 
REMARK       I    between atoms: N1_18  and  C13_20 
ROOT
HETATM    1  N1  UNL     1       0.040  42.866  50.297  1.00  0.00    -0.310 N 
ATOM      2  H1  UNL     1      -0.872  43.192  49.978  1.00  0.00     0.170 HD
HETATM    3  C13 UNL     1       0.814  41.965  49.531  1.00  0.00     0.203 C 
HETATM    4  N2  UNL     1       1.303  42.335  48.260  1.00  0.00    -0.062 NA
HETATM    5  N3  UNL     1       1.072  40.801  49.996  1.00  0.00    -0.267 N 
ATOM      6  H3  UNL     1       0.714  40.544  50.916  1.00  0.00     0.180 HD
HETATM    7  C14 UNL     1       1.835  39.869  49.276  1.00  0.00     0.184 C 
HETATM    8  N4  UNL     1       2.459  39.100  48.672  1.00  0.00    -0.172 NA
ENDROOT
BRANCH   1   9
HETATM    9  C12 UNL     1       0.557  43.269  51.453  1.00  0.00     0.151 A 
HETATM   10  S2  UNL     1      -0.001  42.996  53.028  1.00  0.00    -0.063 SA
HETATM   11  C11 UNL     1       1.244  43.857  53.869  1.00  0.00     0.084 A 
HETATM   12  C10 UNL     1       2.030  44.312  52.848  1.00  0.00     0.059 A 
HETATM   13  N5  UNL     1       1.650  43.991  51.626  1.00  0.00    -0.335 N 
ATOM     14  H5  UNL     1       2.195  44.299  50.821  1.00  0.00     0.168 HD
BRANCH  12  15
HETATM   15  C9  UNL     1       3.233  45.173  53.085  1.00  0.00     0.056 A 
HETATM   16  S1  UNL     1       3.195  46.596  54.070  1.00  0.00    -0.077 SA
HETATM   17  C7  UNL     1       4.850  47.037  53.955  1.00  0.00     0.117 A 
HETATM   18  C6  UNL     1       5.373  46.062  53.158  1.00  0.00     0.115 A 
HETATM   19  C15 UNL     1       4.517  45.095  52.709  1.00  0.00     0.099 A 
HETATM   20  C16 UNL     1       5.004  44.030  51.824  1.00  0.00     0.104 C 
HETATM   21  N6  UNL     1       5.432  43.179  51.107  1.00  0.00    -0.191 NA
BRANCH  17  22
HETATM   22  C8  UNL     1       5.407  48.222  54.602  1.00  0.00     0.219 C 
HETATM   23  O2  UNL     1       6.534  48.321  55.062  1.00  0.00    -0.643 OA
HETATM   24  O3  UNL     1       4.583  49.370  54.716  1.00  0.00    -0.643 OA
ENDBRANCH  17  22
BRANCH  18  25
HETATM   25  O1  UNL     1       6.732  46.105  52.847  1.00  0.00    -0.343 OA
BRANCH  25  26
HETATM   26  C4  UNL     1       7.382  46.713  51.801  1.00  0.00     0.125 C 
HETATM   27  C5  UNL     1       8.031  45.657  50.927  1.00  0.00     0.040 C 
BRANCH  26  28
HETATM   28  C3  UNL     1       8.435  47.751  52.190  1.00  0.00     0.032 C 
BRANCH  28  29
HETATM   29  C2  UNL     1       9.645  47.042  52.799  1.00  0.00    -0.002 C 
HETATM   30  C1  UNL     1       9.747  47.441  54.252  1.00  0.00     0.005 C 
ENDBRANCH  28  29
ENDBRANCH  26  28
ENDBRANCH  25  26
ENDBRANCH  18  25
ENDBRANCH  12  15
ENDBRANCH   1   9
TORSDOF 7
ENDMDL
