MODEL 1
REMARK VINA RESULT: -10.123043105      0.000      0.000
REMARK  13 active torsions:
REMARK  status: ('A' for Active; 'I' for Inactive)
REMARK    1  A    between atoms: C2_2  and  C4_4 
REMARK    2  A    between atoms: C4_4  and  N1_5 
REMARK       I    between atoms: N1_5  and  C5_7 
REMARK    3  A    between atoms: C5_7  and  C6_9 
REMARK    4  A    between atoms: C6_9  and  N2_10 
REMARK    5  A    between atoms: C6_9  and  C24_36 
REMARK       I    between atoms: N2_10  and  C7_12 
REMARK    6  A    between atoms: C7_12  and  C8_14 
REMARK    7  A    between atoms: C8_14  and  C9_15 
REMARK    8  A    between atoms: C8_14  and  N5_23 
REMARK    9  A    between atoms: C9_15  and  C10_16 
REMARK       I    between atoms: N5_23  and  C14_25 
REMARK   10  A    between atoms: C14_25  and  C15_27 
REMARK   11  A    between atoms: C15_27  and  C16_28 
REMARK   12  A    between atoms: C16_28  and  C17_29 
REMARK   13  A    between atoms: C17_29  and  C18_30 
ROOT
HETATM    1  C8  UNL     1       3.143  66.754  65.334  1.00  0.00     0.182 C 
ENDROOT
BRANCH   1   2
HETATM    2  C7  UNL     1       1.705  66.459  65.544  1.00  0.00     0.241 C 
HETATM    3  N2  UNL     1       1.010  67.193  66.508  1.00  0.00    -0.346 N 
ATOM      4  H2  UNL     1       1.503  67.910  67.040  1.00  0.00     0.163 HD
HETATM    5  O2  UNL     1       1.085  65.576  64.895  1.00  0.00    -0.271 OA
BRANCH   3   6
HETATM    6  C6  UNL     1      -0.429  66.953  66.773  1.00  0.00     0.180 C 
BRANCH   6   7
HETATM    7  C5  UNL     1      -0.588  66.415  68.130  1.00  0.00     0.240 C 
HETATM    8  N1  UNL     1       0.428  66.107  69.023  1.00  0.00    -0.359 N 
ATOM      9  H1  UNL     1       1.393  66.260  68.729  1.00  0.00     0.162 HD
HETATM   10  O1  UNL     1      -1.790  66.211  68.528  1.00  0.00    -0.271 OA
BRANCH   8  11
HETATM   11  C4  UNL     1       0.187  65.573  70.365  1.00  0.00     0.126 C 
BRANCH  11  12
HETATM   12  C2  UNL     1       0.730  64.192  70.563  1.00  0.00    -0.005 C 
HETATM   13  C1  UNL     1       0.884  63.976  72.072  1.00  0.00     0.011 C 
HETATM   14  C3  UNL     1      -0.297  63.139  70.122  1.00  0.00     0.011 C 
ENDBRANCH  11  12
ENDBRANCH   8  11
ENDBRANCH   6   7
BRANCH   6  15
HETATM   15  C24 UNL     1      -1.192  68.204  66.474  1.00  0.00     0.009 C 
HETATM   16  C25 UNL     1      -2.643  67.966  66.348  1.00  0.00     0.012 C 
HETATM   17  C26 UNL     1      -0.982  69.267  67.536  1.00  0.00     0.012 C 
ENDBRANCH   6  15
ENDBRANCH   3   6
ENDBRANCH   1   2
BRANCH   1  18
HETATM   18  C9  UNL     1       3.372  68.108  64.752  1.00  0.00     0.093 C 
BRANCH  18  19
HETATM   19  C10 UNL     1       3.366  68.086  63.273  1.00  0.00     0.029 A 
HETATM   20  C11 UNL     1       4.499  67.889  62.466  1.00  0.00     0.114 A 
HETATM   21  N3  UNL     1       4.157  67.904  61.167  1.00  0.00    -0.360 N 
HETATM   22  C12 UNL     1       2.840  68.105  61.147  1.00  0.00     0.182 A 
ATOM     23  H3  UNL     1       4.775  67.785  60.365  1.00  0.00     0.166 HD
HETATM   24  N4  UNL     1       2.351  68.217  62.413  1.00  0.00    -0.350 N 
HETATM   25  C13 UNL     1       0.957  68.429  62.778  1.00  0.00     0.156 C 
ENDBRANCH  18  19
ENDBRANCH   1  18
BRANCH   1  26
HETATM   26  N5  UNL     1       3.959  66.546  66.481  1.00  0.00    -0.347 N 
HETATM   27  C14 UNL     1       4.129  65.298  67.148  1.00  0.00     0.218 C 
HETATM   28  O3  UNL     1       3.527  64.319  66.704  1.00  0.00    -0.274 OA
ATOM     29  H5  UNL     1       4.461  67.351  66.854  1.00  0.00     0.163 HD
BRANCH  27  30
HETATM   30  C15 UNL     1       5.005  65.226  68.325  1.00  0.00     0.103 C 
BRANCH  30  31
HETATM   31  C16 UNL     1       4.331  64.909  69.624  1.00  0.00     0.014 C 
BRANCH  31  32
HETATM   32  C17 UNL     1       4.992  63.763  70.304  1.00  0.00     0.039 C 
BRANCH  32  33
HETATM   33  C18 UNL     1       4.113  62.558  70.360  1.00  0.00    -0.058 A 
HETATM   34  C19 UNL     1       3.409  62.088  69.271  1.00  0.00     0.007 A 
HETATM   35  C20 UNL     1       2.617  60.966  69.402  1.00  0.00     0.001 A 
HETATM   36  C21 UNL     1       2.511  60.292  70.617  1.00  0.00     0.000 A 
HETATM   37  C22 UNL     1       3.209  60.755  71.702  1.00  0.00     0.001 A 
HETATM   38  C23 UNL     1       4.001  61.891  71.541  1.00  0.00     0.007 A 
ENDBRANCH  32  33
ENDBRANCH  31  32
ENDBRANCH  30  31
ENDBRANCH  27  30
ENDBRANCH   1  26
TORSDOF 13
ENDMDL
MODEL 2
REMARK VINA RESULT: -9.706165783      1.955      4.259
REMARK  13 active torsions:
REMARK  status: ('A' for Active; 'I' for Inactive)
REMARK    1  A    between atoms: C2_2  and  C4_4 
REMARK    2  A    between atoms: C4_4  and  N1_5 
REMARK       I    between atoms: N1_5  and  C5_7 
REMARK    3  A    between atoms: C5_7  and  C6_9 
REMARK    4  A    between atoms: C6_9  and  N2_10 
REMARK    5  A    between atoms: C6_9  and  C24_36 
REMARK       I    between atoms: N2_10  and  C7_12 
REMARK    6  A    between atoms: C7_12  and  C8_14 
REMARK    7  A    between atoms: C8_14  and  C9_15 
REMARK    8  A    between atoms: C8_14  and  N5_23 
REMARK    9  A    between atoms: C9_15  and  C10_16 
REMARK       I    between atoms: N5_23  and  C14_25 
REMARK   10  A    between atoms: C14_25  and  C15_27 
REMARK   11  A    between atoms: C15_27  and  C16_28 
REMARK   12  A    between atoms: C16_28  and  C17_29 
REMARK   13  A    between atoms: C17_29  and  C18_30 
ROOT
HETATM    1  C8  UNL     1       3.844  66.253  66.692  1.00  0.00     0.182 C 
ENDROOT
BRANCH   1   2
HETATM    2  C7  UNL     1       2.715  67.211  66.768  1.00  0.00     0.241 C 
HETATM    3  N2  UNL     1       1.426  66.705  66.956  1.00  0.00    -0.346 N 
ATOM      4  H2  UNL     1       1.293  65.697  67.037  1.00  0.00     0.163 HD
HETATM    5  O2  UNL     1       2.866  68.458  66.669  1.00  0.00    -0.271 OA
BRANCH   3   6
HETATM    6  C6  UNL     1       0.249  67.603  67.042  1.00  0.00     0.180 C 
BRANCH   6   7
HETATM    7  C5  UNL     1      -0.290  67.824  65.694  1.00  0.00     0.240 C 
HETATM    8  N1  UNL     1       0.414  67.766  64.500  1.00  0.00    -0.359 N 
ATOM      9  H1  UNL     1       1.411  67.552  64.537  1.00  0.00     0.162 HD
HETATM   10  O1  UNL     1      -1.541  68.095  65.615  1.00  0.00    -0.271 OA
BRANCH   8  11
HETATM   11  C4  UNL     1      -0.198  67.998  63.191  1.00  0.00     0.126 C 
BRANCH  11  12
HETATM   12  C2  UNL     1       0.521  69.022  62.370  1.00  0.00    -0.005 C 
HETATM   13  C1  UNL     1       1.790  68.357  61.824  1.00  0.00     0.011 C 
HETATM   14  C3  UNL     1      -0.295  69.384  61.121  1.00  0.00     0.011 C 
ENDBRANCH  11  12
ENDBRANCH   8  11
ENDBRANCH   6   7
BRANCH   6  15
HETATM   15  C24 UNL     1      -0.711  67.049  68.045  1.00  0.00     0.009 C 
HETATM   16  C25 UNL     1      -1.698  66.133  67.440  1.00  0.00     0.012 C 
HETATM   17  C26 UNL     1      -0.002  66.304  69.161  1.00  0.00     0.012 C 
ENDBRANCH   6  15
ENDBRANCH   3   6
ENDBRANCH   1   2
BRANCH   1  18
HETATM   18  C9  UNL     1       4.977  66.766  65.867  1.00  0.00     0.093 C 
BRANCH  18  19
HETATM   19  C10 UNL     1       4.814  66.438  64.433  1.00  0.00     0.029 A 
HETATM   20  C11 UNL     1       4.478  65.170  63.931  1.00  0.00     0.114 A 
HETATM   21  N3  UNL     1       4.388  65.207  62.591  1.00  0.00    -0.360 N 
HETATM   22  C12 UNL     1       4.660  66.465  62.249  1.00  0.00     0.182 A 
ATOM     23  H3  UNL     1       4.159  64.434  61.966  1.00  0.00     0.166 HD
HETATM   24  N4  UNL     1       4.919  67.219  63.354  1.00  0.00    -0.350 N 
HETATM   25  C13 UNL     1       5.243  68.639  63.366  1.00  0.00     0.156 C 
ENDBRANCH  18  19
ENDBRANCH   1  18
BRANCH   1  26
HETATM   26  N5  UNL     1       4.302  65.783  67.954  1.00  0.00    -0.347 N 
HETATM   27  C14 UNL     1       3.990  64.512  68.516  1.00  0.00     0.218 C 
HETATM   28  O3  UNL     1       3.268  63.755  67.864  1.00  0.00    -0.274 OA
ATOM     29  H5  UNL     1       4.901  66.404  68.499  1.00  0.00     0.163 HD
BRANCH  27  30
HETATM   30  C15 UNL     1       4.533  64.155  69.833  1.00  0.00     0.103 C 
BRANCH  30  31
HETATM   31  C16 UNL     1       3.863  63.012  70.529  1.00  0.00     0.014 C 
BRANCH  31  32
HETATM   32  C17 UNL     1       4.863  62.062  71.085  1.00  0.00     0.039 C 
BRANCH  32  33
HETATM   33  C18 UNL     1       4.400  60.646  71.009  1.00  0.00    -0.058 A 
HETATM   34  C19 UNL     1       4.364  59.805  72.101  1.00  0.00     0.007 A 
HETATM   35  C20 UNL     1       3.922  58.506  71.951  1.00  0.00     0.001 A 
HETATM   36  C21 UNL     1       3.508  58.021  70.712  1.00  0.00     0.000 A 
HETATM   37  C22 UNL     1       3.541  58.853  69.623  1.00  0.00     0.001 A 
HETATM   38  C23 UNL     1       3.992  60.159  69.804  1.00  0.00     0.007 A 
ENDBRANCH  32  33
ENDBRANCH  31  32
ENDBRANCH  30  31
ENDBRANCH  27  30
ENDBRANCH   1  26
TORSDOF 13
ENDMDL
MODEL 3
REMARK VINA RESULT: -9.685565708      2.119      6.859
REMARK  13 active torsions:
REMARK  status: ('A' for Active; 'I' for Inactive)
REMARK    1  A    between atoms: C2_2  and  C4_4 
REMARK    2  A    between atoms: C4_4  and  N1_5 
REMARK       I    between atoms: N1_5  and  C5_7 
REMARK    3  A    between atoms: C5_7  and  C6_9 
REMARK    4  A    between atoms: C6_9  and  N2_10 
REMARK    5  A    between atoms: C6_9  and  C24_36 
REMARK       I    between atoms: N2_10  and  C7_12 
REMARK    6  A    between atoms: C7_12  and  C8_14 
REMARK    7  A    between atoms: C8_14  and  C9_15 
REMARK    8  A    between atoms: C8_14  and  N5_23 
REMARK    9  A    between atoms: C9_15  and  C10_16 
REMARK       I    between atoms: N5_23  and  C14_25 
REMARK   10  A    between atoms: C14_25  and  C15_27 
REMARK   11  A    between atoms: C15_27  and  C16_28 
REMARK   12  A    between atoms: C16_28  and  C17_29 
REMARK   13  A    between atoms: C17_29  and  C18_30 
ROOT
HETATM    1  C8  UNL     1       2.078  66.946  67.506  1.00  0.00     0.182 C 
ENDROOT
BRANCH   1   2
HETATM    2  C7  UNL     1       2.443  66.249  68.763  1.00  0.00     0.241 C 
HETATM    3  N2  UNL     1       2.432  64.852  68.774  1.00  0.00    -0.346 N 
ATOM      4  H2  UNL     1       2.176  64.348  67.925  1.00  0.00     0.163 HD
HETATM    5  O2  UNL     1       2.760  66.859  69.818  1.00  0.00    -0.271 OA
BRANCH   3   6
HETATM    6  C6  UNL     1       2.785  64.087  69.994  1.00  0.00     0.180 C 
BRANCH   6   7
HETATM    7  C5  UNL     1       1.679  63.184  70.337  1.00  0.00     0.240 C 
HETATM    8  N1  UNL     1       0.824  63.298  71.424  1.00  0.00    -0.359 N 
ATOM      9  H1  UNL     1       0.958  64.080  72.065  1.00  0.00     0.162 HD
HETATM   10  O1  UNL     1       1.484  62.191  69.549  1.00  0.00    -0.271 OA
BRANCH   8  11
HETATM   11  C4  UNL     1      -0.262  62.355  71.698  1.00  0.00     0.126 C 
BRANCH  11  12
HETATM   12  C2  UNL     1       0.037  61.414  72.823  1.00  0.00    -0.005 C 
HETATM   13  C1  UNL     1      -1.305  60.889  73.345  1.00  0.00     0.011 C 
HETATM   14  C3  UNL     1       0.767  60.167  72.305  1.00  0.00     0.011 C 
ENDBRANCH  11  12
ENDBRANCH   8  11
ENDBRANCH   6   7
BRANCH   6  15
HETATM   15  C24 UNL     1       4.116  63.438  69.791  1.00  0.00     0.009 C 
HETATM   16  C25 UNL     1       5.219  64.416  69.713  1.00  0.00     0.012 C 
HETATM   17  C26 UNL     1       4.443  62.450  70.895  1.00  0.00     0.012 C 
ENDBRANCH   6  15
ENDBRANCH   3   6
ENDBRANCH   1   2
BRANCH   1  18
HETATM   18  C9  UNL     1       1.118  68.066  67.729  1.00  0.00     0.093 C 
BRANCH  18  19
HETATM   19  C10 UNL     1      -0.265  67.696  67.355  1.00  0.00     0.029 A 
HETATM   20  C11 UNL     1      -0.958  68.194  66.240  1.00  0.00     0.114 A 
HETATM   21  N3  UNL     1      -2.184  67.647  66.168  1.00  0.00    -0.360 N 
HETATM   22  C12 UNL     1      -2.268  66.823  67.210  1.00  0.00     0.182 A 
ATOM     23  H3  UNL     1      -2.898  67.826  65.463  1.00  0.00     0.166 HD
HETATM   24  N4  UNL     1      -1.115  66.843  67.935  1.00  0.00    -0.350 N 
HETATM   25  C13 UNL     1      -0.842  66.061  69.134  1.00  0.00     0.156 C 
ENDBRANCH  18  19
ENDBRANCH   1  18
BRANCH   1  26
HETATM   26  N5  UNL     1       3.189  67.373  66.726  1.00  0.00    -0.347 N 
HETATM   27  C14 UNL     1       4.064  66.509  66.007  1.00  0.00     0.218 C 
HETATM   28  O3  UNL     1       3.848  65.296  66.059  1.00  0.00    -0.274 OA
ATOM     29  H5  UNL     1       3.374  68.375  66.679  1.00  0.00     0.163 HD
BRANCH  27  30
HETATM   30  C15 UNL     1       5.176  67.087  65.241  1.00  0.00     0.103 C 
BRANCH  30  31
HETATM   31  C16 UNL     1       4.847  68.295  64.421  1.00  0.00     0.014 C 
BRANCH  31  32
HETATM   32  C17 UNL     1       4.672  67.938  62.988  1.00  0.00     0.039 C 
BRANCH  32  33
HETATM   33  C18 UNL     1       3.267  68.130  62.525  1.00  0.00    -0.058 A 
HETATM   34  C19 UNL     1       2.923  68.271  61.197  1.00  0.00     0.007 A 
HETATM   35  C20 UNL     1       1.599  68.446  60.848  1.00  0.00     0.001 A 
HETATM   36  C21 UNL     1       0.595  68.483  61.813  1.00  0.00     0.000 A 
HETATM   37  C22 UNL     1       0.931  68.343  63.134  1.00  0.00     0.001 A 
HETATM   38  C23 UNL     1       2.275  68.168  63.458  1.00  0.00     0.007 A 
ENDBRANCH  32  33
ENDBRANCH  31  32
ENDBRANCH  30  31
ENDBRANCH  27  30
ENDBRANCH   1  26
TORSDOF 13
ENDMDL
MODEL 4
REMARK VINA RESULT: -9.664948069      1.108      1.401
REMARK  13 active torsions:
REMARK  status: ('A' for Active; 'I' for Inactive)
REMARK    1  A    between atoms: C2_2  and  C4_4 
REMARK    2  A    between atoms: C4_4  and  N1_5 
REMARK       I    between atoms: N1_5  and  C5_7 
REMARK    3  A    between atoms: C5_7  and  C6_9 
REMARK    4  A    between atoms: C6_9  and  N2_10 
REMARK    5  A    between atoms: C6_9  and  C24_36 
REMARK       I    between atoms: N2_10  and  C7_12 
REMARK    6  A    between atoms: C7_12  and  C8_14 
REMARK    7  A    between atoms: C8_14  and  C9_15 
REMARK    8  A    between atoms: C8_14  and  N5_23 
REMARK    9  A    between atoms: C9_15  and  C10_16 
REMARK       I    between atoms: N5_23  and  C14_25 
REMARK   10  A    between atoms: C14_25  and  C15_27 
REMARK   11  A    between atoms: C15_27  and  C16_28 
REMARK   12  A    between atoms: C16_28  and  C17_29 
REMARK   13  A    between atoms: C17_29  and  C18_30 
ROOT
HETATM    1  C8  UNL     1       2.807  66.755  65.582  1.00  0.00     0.182 C 
ENDROOT
BRANCH   1   2
HETATM    2  C7  UNL     1       1.483  66.388  66.140  1.00  0.00     0.241 C 
HETATM    3  N2  UNL     1       1.249  66.618  67.498  1.00  0.00    -0.346 N 
ATOM      4  H2  UNL     1       1.987  67.030  68.069  1.00  0.00     0.163 HD
HETATM    5  O2  UNL     1       0.564  65.879  65.446  1.00  0.00    -0.271 OA
BRANCH   3   6
HETATM    6  C6  UNL     1      -0.050  66.277  68.126  1.00  0.00     0.180 C 
BRANCH   6   7
HETATM    7  C5  UNL     1       0.185  65.788  69.490  1.00  0.00     0.240 C 
HETATM    8  N1  UNL     1      -0.094  64.518  69.974  1.00  0.00    -0.359 N 
ATOM      9  H1  UNL     1      -0.506  63.837  69.335  1.00  0.00     0.162 HD
HETATM   10  O1  UNL     1       0.702  66.621  70.317  1.00  0.00    -0.271 OA
BRANCH   8  11
HETATM   11  C4  UNL     1       0.172  64.103  71.353  1.00  0.00     0.126 C 
BRANCH  11  12
HETATM   12  C2  UNL     1       0.458  62.640  71.490  1.00  0.00    -0.005 C 
HETATM   13  C1  UNL     1       1.554  62.489  72.551  1.00  0.00     0.011 C 
HETATM   14  C3  UNL     1      -0.756  61.906  72.078  1.00  0.00     0.011 C 
ENDBRANCH  11  12
ENDBRANCH   8  11
ENDBRANCH   6   7
BRANCH   6  15
HETATM   15  C24 UNL     1      -0.970  67.449  68.004  1.00  0.00     0.009 C 
HETATM   16  C25 UNL     1      -0.288  68.656  67.497  1.00  0.00     0.012 C 
HETATM   17  C26 UNL     1      -2.146  67.158  67.091  1.00  0.00     0.012 C 
ENDBRANCH   6  15
ENDBRANCH   3   6
ENDBRANCH   1   2
BRANCH   1  18
HETATM   18  C9  UNL     1       2.838  68.145  65.042  1.00  0.00     0.093 C 
BRANCH  18  19
HETATM   19  C10 UNL     1       3.020  68.169  63.574  1.00  0.00     0.029 A 
HETATM   20  C11 UNL     1       4.261  68.127  62.917  1.00  0.00     0.114 A 
HETATM   21  N3  UNL     1       4.085  68.142  61.584  1.00  0.00    -0.360 N 
HETATM   22  C12 UNL     1       2.767  68.193  61.399  1.00  0.00     0.182 A 
ATOM     23  H3  UNL     1       4.809  68.120  60.866  1.00  0.00     0.166 HD
HETATM   24  N4  UNL     1       2.113  68.209  62.594  1.00  0.00    -0.350 N 
HETATM   25  C13 UNL     1       0.668  68.250  62.780  1.00  0.00     0.156 C 
ENDBRANCH  18  19
ENDBRANCH   1  18
BRANCH   1  26
HETATM   26  N5  UNL     1       3.901  66.524  66.462  1.00  0.00    -0.347 N 
HETATM   27  C14 UNL     1       4.231  65.266  67.044  1.00  0.00     0.218 C 
HETATM   28  O3  UNL     1       3.520  64.298  66.768  1.00  0.00    -0.274 OA
ATOM     29  H5  UNL     1       4.494  67.320  66.695  1.00  0.00     0.163 HD
BRANCH  27  30
HETATM   30  C15 UNL     1       5.392  65.170  67.939  1.00  0.00     0.103 C 
BRANCH  30  31
HETATM   31  C16 UNL     1       5.084  64.978  69.391  1.00  0.00     0.014 C 
BRANCH  31  32
HETATM   32  C17 UNL     1       3.771  64.304  69.575  1.00  0.00     0.039 C 
BRANCH  32  33
HETATM   33  C18 UNL     1       3.921  62.854  69.891  1.00  0.00    -0.058 A 
HETATM   34  C19 UNL     1       3.207  61.865  69.247  1.00  0.00     0.007 A 
HETATM   35  C20 UNL     1       3.401  60.544  69.595  1.00  0.00     0.001 A 
HETATM   36  C21 UNL     1       4.308  60.183  70.590  1.00  0.00     0.000 A 
HETATM   37  C22 UNL     1       5.019  61.162  71.233  1.00  0.00     0.001 A 
HETATM   38  C23 UNL     1       4.803  62.488  70.861  1.00  0.00     0.007 A 
ENDBRANCH  32  33
ENDBRANCH  31  32
ENDBRANCH  30  31
ENDBRANCH  27  30
ENDBRANCH   1  26
TORSDOF 13
ENDMDL
MODEL 5
REMARK VINA RESULT: -9.614073734      1.716      2.190
REMARK  13 active torsions:
REMARK  status: ('A' for Active; 'I' for Inactive)
REMARK    1  A    between atoms: C2_2  and  C4_4 
REMARK    2  A    between atoms: C4_4  and  N1_5 
REMARK       I    between atoms: N1_5  and  C5_7 
REMARK    3  A    between atoms: C5_7  and  C6_9 
REMARK    4  A    between atoms: C6_9  and  N2_10 
REMARK    5  A    between atoms: C6_9  and  C24_36 
REMARK       I    between atoms: N2_10  and  C7_12 
REMARK    6  A    between atoms: C7_12  and  C8_14 
REMARK    7  A    between atoms: C8_14  and  C9_15 
REMARK    8  A    between atoms: C8_14  and  N5_23 
REMARK    9  A    between atoms: C9_15  and  C10_16 
REMARK       I    between atoms: N5_23  and  C14_25 
REMARK   10  A    between atoms: C14_25  and  C15_27 
REMARK   11  A    between atoms: C15_27  and  C16_28 
REMARK   12  A    between atoms: C16_28  and  C17_29 
REMARK   13  A    between atoms: C17_29  and  C18_30 
ROOT
HETATM    1  C8  UNL     1       4.039  65.648  66.477  1.00  0.00     0.182 C 
ENDROOT
BRANCH   1   2
HETATM    2  C7  UNL     1       2.595  65.973  66.583  1.00  0.00     0.241 C 
HETATM    3  N2  UNL     1       2.162  66.719  67.681  1.00  0.00    -0.346 N 
ATOM      4  H2  UNL     1       2.842  67.021  68.379  1.00  0.00     0.163 HD
HETATM    5  O2  UNL     1       1.746  65.606  65.729  1.00  0.00    -0.271 OA
BRANCH   3   6
HETATM    6  C6  UNL     1       0.734  67.081  67.854  1.00  0.00     0.180 C 
BRANCH   6   7
HETATM    7  C5  UNL     1       0.084  66.088  68.719  1.00  0.00     0.240 C 
HETATM    8  N1  UNL     1       0.695  65.310  69.691  1.00  0.00    -0.359 N 
ATOM      9  H1  UNL     1       1.699  65.420  69.838  1.00  0.00     0.162 HD
HETATM   10  O1  UNL     1      -1.178  65.927  68.557  1.00  0.00    -0.271 OA
BRANCH   8  11
HETATM   11  C4  UNL     1      -0.025  64.339  70.517  1.00  0.00     0.126 C 
BRANCH  11  12
HETATM   12  C2  UNL     1       0.873  63.519  71.391  1.00  0.00    -0.005 C 
HETATM   13  C1  UNL     1       0.209  63.433  72.770  1.00  0.00     0.011 C 
HETATM   14  C3  UNL     1       0.929  62.067  70.896  1.00  0.00     0.011 C 
ENDBRANCH  11  12
ENDBRANCH   8  11
ENDBRANCH   6   7
BRANCH   6  15
HETATM   15  C24 UNL     1       0.646  68.501  68.312  1.00  0.00     0.009 C 
HETATM   16  C25 UNL     1       1.926  69.224  68.169  1.00  0.00     0.012 C 
HETATM   17  C26 UNL     1      -0.418  69.278  67.560  1.00  0.00     0.012 C 
ENDBRANCH   6  15
ENDBRANCH   3   6
ENDBRANCH   1   2
BRANCH   1  18
HETATM   18  C9  UNL     1       4.816  66.712  65.776  1.00  0.00     0.093 C 
BRANCH  18  19
HETATM   19  C10 UNL     1       4.757  66.566  64.305  1.00  0.00     0.029 A 
HETATM   20  C11 UNL     1       4.483  65.369  63.625  1.00  0.00     0.114 A 
HETATM   21  N3  UNL     1       4.482  65.575  62.297  1.00  0.00    -0.360 N 
HETATM   22  C12 UNL     1       4.749  66.869  62.136  1.00  0.00     0.182 A 
ATOM     23  H3  UNL     1       4.312  64.884  61.566  1.00  0.00     0.166 HD
HETATM   24  N4  UNL     1       4.918  67.480  63.342  1.00  0.00    -0.350 N 
HETATM   25  C13 UNL     1       5.209  68.891  63.556  1.00  0.00     0.156 C 
ENDBRANCH  18  19
ENDBRANCH   1  18
BRANCH   1  26
HETATM   26  N5  UNL     1       4.653  65.294  67.710  1.00  0.00    -0.347 N 
HETATM   27  C14 UNL     1       4.163  64.308  68.614  1.00  0.00     0.218 C 
HETATM   28  O3  UNL     1       3.128  63.711  68.312  1.00  0.00    -0.274 OA
ATOM     29  H5  UNL     1       5.511  65.783  67.967  1.00  0.00     0.163 HD
BRANCH  27  30
HETATM   30  C15 UNL     1       4.901  64.042  69.857  1.00  0.00     0.103 C 
BRANCH  30  31
HETATM   31  C16 UNL     1       4.237  63.114  70.826  1.00  0.00     0.014 C 
BRANCH  31  32
HETATM   32  C17 UNL     1       5.138  61.990  71.195  1.00  0.00     0.039 C 
BRANCH  32  33
HETATM   33  C18 UNL     1       4.509  60.659  70.954  1.00  0.00    -0.058 A 
HETATM   34  C19 UNL     1       3.988  60.282  69.734  1.00  0.00     0.007 A 
HETATM   35  C20 UNL     1       3.421  59.032  69.590  1.00  0.00     0.001 A 
HETATM   36  C21 UNL     1       3.362  58.136  70.656  1.00  0.00     0.000 A 
HETATM   37  C22 UNL     1       3.878  58.507  71.870  1.00  0.00     0.001 A 
HETATM   38  C23 UNL     1       4.445  59.775  71.987  1.00  0.00     0.007 A 
ENDBRANCH  32  33
ENDBRANCH  31  32
ENDBRANCH  30  31
ENDBRANCH  27  30
ENDBRANCH   1  26
TORSDOF 13
ENDMDL
