MODEL 1
REMARK VINA RESULT: -9.069619402      0.000      0.000
REMARK  13 active torsions:
REMARK  status: ('A' for Active; 'I' for Inactive)
REMARK       I    between atoms: C2_2  and  N1_4 
REMARK    1  A    between atoms: N1_4  and  C3_6 
REMARK    2  A    between atoms: C3_6  and  C4_7 
REMARK    3  A    between atoms: C3_6  and  C24_33 
REMARK    4  A    between atoms: C4_7  and  C5_8 
REMARK    5  A    between atoms: C5_8  and  C6_9 
REMARK    6  A    between atoms: C8_13  and  C9_14 
REMARK    7  A    between atoms: C13_18  and  C14_19 
REMARK    8  A    between atoms: C14_19  and  C15_20 
REMARK    9  A    between atoms: C15_20  and  N3_21 
REMARK   10  A    between atoms: N3_21  and  C18_24 
REMARK   11  A    between atoms: C18_24  and  C19_25 
REMARK   12  A    between atoms: C19_25  and  C20_26 
REMARK   13  A    between atoms: C20_26  and  N4_27 
REMARK       I    between atoms: N4_27  and  C23_30 
ROOT
HETATM    1  C6  UNL     1       2.061  65.099  69.771  1.00  0.00    -0.034 A 
HETATM    2  C7  UNL     1       0.706  64.813  70.008  1.00  0.00     0.095 A 
HETATM    3  N2  UNL     1      -0.062  65.651  69.305  1.00  0.00    -0.368 N 
ATOM      4  H2  UNL     1      -1.082  65.644  69.309  1.00  0.00     0.165 HD
HETATM    5  C8  UNL     1       0.697  66.505  68.592  1.00  0.00     0.023 A 
HETATM    6  C13 UNL     1       2.009  66.153  68.887  1.00  0.00    -0.026 A 
ENDROOT
BRANCH   6   7
HETATM    7  C14 UNL     1       3.194  66.819  68.312  1.00  0.00     0.069 C 
BRANCH   7   8
HETATM    8  C15 UNL     1       4.095  65.870  67.558  1.00  0.00     0.241 C 
BRANCH   8   9
HETATM    9  N3  UNL     1       4.134  66.246  66.156  1.00  0.00    -0.074 N 
HETATM   10  C16 UNL     1       3.274  65.349  65.422  1.00  0.00     0.272 C 
HETATM   11  C17 UNL     1       5.491  66.219  65.729  1.00  0.00     0.272 C 
BRANCH   9  12
HETATM   12  C18 UNL     1       3.574  67.572  65.958  1.00  0.00     0.238 C 
BRANCH  12  13
HETATM   13  C19 UNL     1       4.235  68.215  64.779  1.00  0.00     0.056 C 
BRANCH  13  14
HETATM   14  C20 UNL     1       3.401  68.273  63.544  1.00  0.00     0.249 C 
BRANCH  14  15
HETATM   15  N4  UNL     1       4.061  68.061  62.302  1.00  0.00     0.004 N 
HETATM   16  C21 UNL     1       4.423  66.622  62.254  1.00  0.00     0.284 C 
HETATM   17  C22 UNL     1       5.280  68.778  62.098  1.00  0.00     0.284 C 
HETATM   18  C23 UNL     1       3.156  68.247  61.251  1.00  0.00     0.427 C 
HETATM   19  N5  UNL     1       3.622  68.696  59.992  1.00  0.00    -0.033 NA
HETATM   20  O2  UNL     1       1.943  68.017  61.421  1.00  0.00    -0.243 OA
ENDBRANCH  14  15
ENDBRANCH  13  14
ENDBRANCH  12  13
ENDBRANCH   9  12
ENDBRANCH   8   9
ENDBRANCH   7   8
ENDBRANCH   6   7
BRANCH   1  21
HETATM   21  C5  UNL     1       3.211  64.389  70.393  1.00  0.00     0.042 C 
BRANCH  21  22
HETATM   22  C4  UNL     1       3.550  63.141  69.579  1.00  0.00     0.030 C 
BRANCH  22  23
HETATM   23  C3  UNL     1       2.990  61.903  70.226  1.00  0.00     0.088 C 
BRANCH  23  24
HETATM   24  N1  UNL     1       2.848  62.121  71.653  1.00  0.00    -0.356 N 
HETATM   25  C2  UNL     1       1.620  61.858  72.327  1.00  0.00     0.213 C 
HETATM   26  C1  UNL     1       1.505  62.087  73.769  1.00  0.00     0.117 C 
HETATM   27  O1  UNL     1       0.642  61.428  71.661  1.00  0.00    -0.274 OA
ATOM     28  H1  UNL     1       3.645  62.470  72.185  1.00  0.00     0.162 HD
ENDBRANCH  23  24
BRANCH  23  29
HETATM   29  C24 UNL     1       3.995  60.793  70.031  1.00  0.00     0.000 C 
HETATM   30  C25 UNL     1       5.023  60.726  71.118  1.00  0.00     0.011 C 
HETATM   31  C26 UNL     1       3.333  59.437  69.909  1.00  0.00     0.011 C 
ENDBRANCH  23  29
ENDBRANCH  22  23
ENDBRANCH  21  22
ENDBRANCH   1  21
BRANCH   5  32
HETATM   32  C9  UNL     1       0.141  67.557  67.727  1.00  0.00    -0.008 C 
HETATM   33  C10 UNL     1       0.668  68.947  68.066  1.00  0.00     0.021 C 
HETATM   34  C11 UNL     1      -1.369  67.622  67.981  1.00  0.00     0.021 C 
HETATM   35  C12 UNL     1       0.319  67.357  66.269  1.00  0.00     0.021 C 
ENDBRANCH   5  32
TORSDOF 13
ENDMDL
MODEL 2
REMARK VINA RESULT: -8.993992312      1.003      1.941
REMARK  13 active torsions:
REMARK  status: ('A' for Active; 'I' for Inactive)
REMARK       I    between atoms: C2_2  and  N1_4 
REMARK    1  A    between atoms: N1_4  and  C3_6 
REMARK    2  A    between atoms: C3_6  and  C4_7 
REMARK    3  A    between atoms: C3_6  and  C24_33 
REMARK    4  A    between atoms: C4_7  and  C5_8 
REMARK    5  A    between atoms: C5_8  and  C6_9 
REMARK    6  A    between atoms: C8_13  and  C9_14 
REMARK    7  A    between atoms: C13_18  and  C14_19 
REMARK    8  A    between atoms: C14_19  and  C15_20 
REMARK    9  A    between atoms: C15_20  and  N3_21 
REMARK   10  A    between atoms: N3_21  and  C18_24 
REMARK   11  A    between atoms: C18_24  and  C19_25 
REMARK   12  A    between atoms: C19_25  and  C20_26 
REMARK   13  A    between atoms: C20_26  and  N4_27 
REMARK       I    between atoms: N4_27  and  C23_30 
ROOT
HETATM    1  C6  UNL     1       1.575  65.250  69.771  1.00  0.00    -0.034 A 
HETATM    2  C7  UNL     1       0.187  65.083  69.915  1.00  0.00     0.095 A 
HETATM    3  N2  UNL     1      -0.455  65.949  69.126  1.00  0.00    -0.368 N 
ATOM      4  H2  UNL     1      -1.470  66.024  69.053  1.00  0.00     0.165 HD
HETATM    5  C8  UNL     1       0.421  66.709  68.442  1.00  0.00     0.023 A 
HETATM    6  C13 UNL     1       1.675  66.266  68.849  1.00  0.00    -0.026 A 
ENDROOT
BRANCH   6   7
HETATM    7  C14 UNL     1       2.949  66.811  68.342  1.00  0.00     0.069 C 
BRANCH   7   8
HETATM    8  C15 UNL     1       3.818  65.764  67.687  1.00  0.00     0.241 C 
BRANCH   8   9
HETATM    9  N3  UNL     1       4.018  66.101  66.288  1.00  0.00    -0.074 N 
HETATM   10  C16 UNL     1       3.170  65.250  65.490  1.00  0.00     0.272 C 
HETATM   11  C17 UNL     1       5.404  65.969  65.997  1.00  0.00     0.272 C 
BRANCH   9  12
HETATM   12  C18 UNL     1       3.577  67.459  66.015  1.00  0.00     0.238 C 
BRANCH  12  13
HETATM   13  C19 UNL     1       4.330  67.993  64.836  1.00  0.00     0.056 C 
BRANCH  13  14
HETATM   14  C20 UNL     1       3.493  68.293  63.638  1.00  0.00     0.249 C 
BRANCH  14  15
HETATM   15  N4  UNL     1       4.077  68.063  62.361  1.00  0.00     0.004 N 
HETATM   16  C21 UNL     1       4.474  66.632  62.329  1.00  0.00     0.284 C 
HETATM   17  C22 UNL     1       5.259  68.805  62.059  1.00  0.00     0.284 C 
HETATM   18  C23 UNL     1       3.100  68.195  61.368  1.00  0.00     0.427 C 
HETATM   19  N5  UNL     1       3.471  68.620  60.069  1.00  0.00    -0.033 NA
HETATM   20  O2  UNL     1       1.907  67.939  61.623  1.00  0.00    -0.243 OA
ENDBRANCH  14  15
ENDBRANCH  13  14
ENDBRANCH  12  13
ENDBRANCH   9  12
ENDBRANCH   8   9
ENDBRANCH   7   8
ENDBRANCH   6   7
BRANCH   1  21
HETATM   21  C5  UNL     1       2.614  64.477  70.504  1.00  0.00     0.042 C 
BRANCH  21  22
HETATM   22  C4  UNL     1       2.624  63.030  70.014  1.00  0.00     0.030 C 
BRANCH  22  23
HETATM   23  C3  UNL     1       2.820  62.072  71.158  1.00  0.00     0.088 C 
BRANCH  23  24
HETATM   24  N1  UNL     1       2.653  60.711  70.688  1.00  0.00    -0.356 N 
HETATM   25  C2  UNL     1       3.735  59.782  70.698  1.00  0.00     0.213 C 
HETATM   26  C1  UNL     1       3.538  58.413  70.216  1.00  0.00     0.117 C 
HETATM   27  O1  UNL     1       4.857  60.161  71.126  1.00  0.00    -0.274 OA
ATOM     28  H1  UNL     1       1.742  60.411  70.342  1.00  0.00     0.162 HD
ENDBRANCH  23  24
BRANCH  23  29
HETATM   29  C24 UNL     1       1.733  62.343  72.171  1.00  0.00     0.000 C 
HETATM   30  C25 UNL     1       0.394  61.815  71.757  1.00  0.00     0.011 C 
HETATM   31  C26 UNL     1       2.071  61.784  73.537  1.00  0.00     0.011 C 
ENDBRANCH  23  29
ENDBRANCH  22  23
ENDBRANCH  21  22
ENDBRANCH   1  21
BRANCH   5  32
HETATM   32  C9  UNL     1       0.018  67.765  67.501  1.00  0.00    -0.008 C 
HETATM   33  C10 UNL     1       0.541  69.143  67.892  1.00  0.00     0.021 C 
HETATM   34  C11 UNL     1      -1.509  67.881  67.552  1.00  0.00     0.021 C 
HETATM   35  C12 UNL     1       0.380  67.539  66.081  1.00  0.00     0.021 C 
ENDBRANCH   5  32
TORSDOF 13
ENDMDL
MODEL 3
REMARK VINA RESULT: -8.804640485      2.117      5.524
REMARK  13 active torsions:
REMARK  status: ('A' for Active; 'I' for Inactive)
REMARK       I    between atoms: C2_2  and  N1_4 
REMARK    1  A    between atoms: N1_4  and  C3_6 
REMARK    2  A    between atoms: C3_6  and  C4_7 
REMARK    3  A    between atoms: C3_6  and  C24_33 
REMARK    4  A    between atoms: C4_7  and  C5_8 
REMARK    5  A    between atoms: C5_8  and  C6_9 
REMARK    6  A    between atoms: C8_13  and  C9_14 
REMARK    7  A    between atoms: C13_18  and  C14_19 
REMARK    8  A    between atoms: C14_19  and  C15_20 
REMARK    9  A    between atoms: C15_20  and  N3_21 
REMARK   10  A    between atoms: N3_21  and  C18_24 
REMARK   11  A    between atoms: C18_24  and  C19_25 
REMARK   12  A    between atoms: C19_25  and  C20_26 
REMARK   13  A    between atoms: C20_26  and  N4_27 
REMARK       I    between atoms: N4_27  and  C23_30 
ROOT
HETATM    1  C6  UNL     1       0.787  64.574  70.426  1.00  0.00    -0.034 A 
HETATM    2  C7  UNL     1       0.025  63.475  70.858  1.00  0.00     0.095 A 
HETATM    3  N2  UNL     1       0.798  62.386  70.916  1.00  0.00    -0.368 N 
ATOM      4  H2  UNL     1       0.476  61.462  71.202  1.00  0.00     0.165 HD
HETATM    5  C8  UNL     1       2.059  62.677  70.544  1.00  0.00     0.023 A 
HETATM    6  C13 UNL     1       2.041  64.035  70.244  1.00  0.00    -0.026 A 
ENDROOT
BRANCH   6   7
HETATM    7  C14 UNL     1       3.222  64.801  69.801  1.00  0.00     0.069 C 
BRANCH   7   8
HETATM    8  C15 UNL     1       2.990  65.549  68.510  1.00  0.00     0.241 C 
BRANCH   8   9
HETATM    9  N3  UNL     1       4.139  65.383  67.637  1.00  0.00    -0.074 N 
HETATM   10  C16 UNL     1       3.773  64.480  66.572  1.00  0.00     0.272 C 
HETATM   11  C17 UNL     1       5.231  64.930  68.427  1.00  0.00     0.272 C 
BRANCH   9  12
HETATM   12  C18 UNL     1       4.479  66.637  66.986  1.00  0.00     0.238 C 
BRANCH  12  13
HETATM   13  C19 UNL     1       4.761  66.379  65.538  1.00  0.00     0.056 C 
BRANCH  13  14
HETATM   14  C20 UNL     1       4.593  67.561  64.644  1.00  0.00     0.249 C 
BRANCH  14  15
HETATM   15  N4  UNL     1       4.440  67.308  63.252  1.00  0.00     0.004 N 
HETATM   16  C21 UNL     1       4.418  65.833  63.089  1.00  0.00     0.284 C 
HETATM   17  C22 UNL     1       5.486  67.781  62.401  1.00  0.00     0.284 C 
HETATM   18  C23 UNL     1       3.178  67.742  62.832  1.00  0.00     0.427 C 
HETATM   19  N5  UNL     1       2.992  68.176  61.497  1.00  0.00    -0.033 NA
HETATM   20  O2  UNL     1       2.219  67.747  63.628  1.00  0.00    -0.243 OA
ENDBRANCH  14  15
ENDBRANCH  13  14
ENDBRANCH  12  13
ENDBRANCH   9  12
ENDBRANCH   8   9
ENDBRANCH   7   8
ENDBRANCH   6   7
BRANCH   1  21
HETATM   21  C5  UNL     1       0.268  65.953  70.220  1.00  0.00     0.042 C 
BRANCH  21  22
HETATM   22  C4  UNL     1      -0.667  65.978  69.012  1.00  0.00     0.030 C 
BRANCH  22  23
HETATM   23  C3  UNL     1      -0.233  67.017  68.013  1.00  0.00     0.088 C 
BRANCH  23  24
HETATM   24  N1  UNL     1       0.448  68.098  68.698  1.00  0.00    -0.356 N 
HETATM   25  C2  UNL     1       1.519  68.811  68.084  1.00  0.00     0.213 C 
HETATM   26  C1  UNL     1       2.189  69.898  68.800  1.00  0.00     0.117 C 
HETATM   27  O1  UNL     1       1.875  68.488  66.920  1.00  0.00    -0.274 OA
ATOM     28  H1  UNL     1       0.154  68.353  69.641  1.00  0.00     0.162 HD
ENDBRANCH  23  24
BRANCH  23  29
HETATM   29  C24 UNL     1      -1.480  67.590  67.381  1.00  0.00     0.000 C 
HETATM   30  C25 UNL     1      -1.283  68.009  65.957  1.00  0.00     0.011 C 
HETATM   31  C26 UNL     1      -2.647  66.627  67.444  1.00  0.00     0.011 C 
ENDBRANCH  23  29
ENDBRANCH  22  23
ENDBRANCH  21  22
ENDBRANCH   1  21
BRANCH   5  32
HETATM   32  C9  UNL     1       3.141  61.682  70.492  1.00  0.00    -0.008 C 
HETATM   33  C10 UNL     1       4.476  62.226  70.989  1.00  0.00     0.021 C 
HETATM   34  C11 UNL     1       3.373  61.321  69.020  1.00  0.00     0.021 C 
HETATM   35  C12 UNL     1       2.884  60.409  71.207  1.00  0.00     0.021 C 
ENDBRANCH   5  32
TORSDOF 13
ENDMDL
MODEL 4
REMARK VINA RESULT: -8.700739702      1.644      8.348
REMARK  13 active torsions:
REMARK  status: ('A' for Active; 'I' for Inactive)
REMARK       I    between atoms: C2_2  and  N1_4 
REMARK    1  A    between atoms: N1_4  and  C3_6 
REMARK    2  A    between atoms: C3_6  and  C4_7 
REMARK    3  A    between atoms: C3_6  and  C24_33 
REMARK    4  A    between atoms: C4_7  and  C5_8 
REMARK    5  A    between atoms: C5_8  and  C6_9 
REMARK    6  A    between atoms: C8_13  and  C9_14 
REMARK    7  A    between atoms: C13_18  and  C14_19 
REMARK    8  A    between atoms: C14_19  and  C15_20 
REMARK    9  A    between atoms: C15_20  and  N3_21 
REMARK   10  A    between atoms: N3_21  and  C18_24 
REMARK   11  A    between atoms: C18_24  and  C19_25 
REMARK   12  A    between atoms: C19_25  and  C20_26 
REMARK   13  A    between atoms: C20_26  and  N4_27 
REMARK       I    between atoms: N4_27  and  C23_30 
ROOT
HETATM    1  C6  UNL     1       2.755  65.613  65.274  1.00  0.00    -0.034 A 
HETATM    2  C7  UNL     1       1.451  65.573  64.751  1.00  0.00     0.095 A 
HETATM    3  N2  UNL     1       0.621  66.240  65.558  1.00  0.00    -0.368 N 
ATOM      4  H2  UNL     1      -0.380  66.354  65.394  1.00  0.00     0.165 HD
HETATM    5  C8  UNL     1       1.286  66.741  66.616  1.00  0.00     0.023 A 
HETATM    6  C13 UNL     1       2.607  66.347  66.429  1.00  0.00    -0.026 A 
ENDROOT
BRANCH   6   7
HETATM    7  C14 UNL     1       3.710  66.689  67.347  1.00  0.00     0.069 C 
BRANCH   7   8
HETATM    8  C15 UNL     1       4.496  65.481  67.799  1.00  0.00     0.241 C 
BRANCH   8   9
HETATM    9  N3  UNL     1       4.066  65.089  69.129  1.00  0.00    -0.074 N 
HETATM   10  C16 UNL     1       3.501  66.244  69.783  1.00  0.00     0.272 C 
HETATM   11  C17 UNL     1       5.186  64.534  69.809  1.00  0.00     0.272 C 
BRANCH   9  12
HETATM   12  C18 UNL     1       2.990  64.114  69.060  1.00  0.00     0.238 C 
BRANCH  12  13
HETATM   13  C19 UNL     1       3.573  62.736  69.068  1.00  0.00     0.056 C 
BRANCH  13  14
HETATM   14  C20 UNL     1       2.593  61.640  69.321  1.00  0.00     0.249 C 
BRANCH  14  15
HETATM   15  N4  UNL     1       2.935  60.675  70.310  1.00  0.00     0.004 N 
HETATM   16  C21 UNL     1       4.169  61.167  70.973  1.00  0.00     0.284 C 
HETATM   17  C22 UNL     1       3.241  59.362  69.838  1.00  0.00     0.284 C 
HETATM   18  C23 UNL     1       1.959  60.664  71.312  1.00  0.00     0.427 C 
HETATM   19  N5  UNL     1       1.707  59.473  72.035  1.00  0.00    -0.033 NA
HETATM   20  O2  UNL     1       1.313  61.698  71.570  1.00  0.00    -0.243 OA
ENDBRANCH  14  15
ENDBRANCH  13  14
ENDBRANCH  12  13
ENDBRANCH   9  12
ENDBRANCH   8   9
ENDBRANCH   7   8
ENDBRANCH   6   7
BRANCH   1  21
HETATM   21  C5  UNL     1       3.946  64.965  64.663  1.00  0.00     0.042 C 
BRANCH  21  22
HETATM   22  C4  UNL     1       4.344  65.708  63.389  1.00  0.00     0.030 C 
BRANCH  22  23
HETATM   23  C3  UNL     1       3.930  67.154  63.453  1.00  0.00     0.088 C 
BRANCH  23  24
HETATM   24  N1  UNL     1       3.208  67.508  62.247  1.00  0.00    -0.356 N 
HETATM   25  C2  UNL     1       1.953  68.182  62.302  1.00  0.00     0.213 C 
HETATM   26  C1  UNL     1       1.245  68.527  61.067  1.00  0.00     0.117 C 
HETATM   27  O1  UNL     1       1.468  68.473  63.427  1.00  0.00    -0.274 OA
ATOM     28  H1  UNL     1       3.606  67.269  61.339  1.00  0.00     0.162 HD
ENDBRANCH  23  24
BRANCH  23  29
HETATM   29  C24 UNL     1       5.190  67.987  63.493  1.00  0.00     0.000 C 
HETATM   30  C25 UNL     1       5.463  68.708  62.210  1.00  0.00     0.011 C 
HETATM   31  C26 UNL     1       5.172  68.996  64.621  1.00  0.00     0.011 C 
ENDBRANCH  23  29
ENDBRANCH  22  23
ENDBRANCH  21  22
ENDBRANCH   1  21
BRANCH   5  32
HETATM   32  C9  UNL     1       0.642  67.514  67.689  1.00  0.00    -0.008 C 
HETATM   33  C10 UNL     1       0.312  66.670  68.915  1.00  0.00     0.021 C 
HETATM   34  C11 UNL     1      -0.709  68.010  67.162  1.00  0.00     0.021 C 
HETATM   35  C12 UNL     1       1.382  68.710  68.158  1.00  0.00     0.021 C 
ENDBRANCH   5  32
TORSDOF 13
ENDMDL
MODEL 5
REMARK VINA RESULT: -8.692389273      3.264     10.529
REMARK  13 active torsions:
REMARK  status: ('A' for Active; 'I' for Inactive)
REMARK       I    between atoms: C2_2  and  N1_4 
REMARK    1  A    between atoms: N1_4  and  C3_6 
REMARK    2  A    between atoms: C3_6  and  C4_7 
REMARK    3  A    between atoms: C3_6  and  C24_33 
REMARK    4  A    between atoms: C4_7  and  C5_8 
REMARK    5  A    between atoms: C5_8  and  C6_9 
REMARK    6  A    between atoms: C8_13  and  C9_14 
REMARK    7  A    between atoms: C13_18  and  C14_19 
REMARK    8  A    between atoms: C14_19  and  C15_20 
REMARK    9  A    between atoms: C15_20  and  N3_21 
REMARK   10  A    between atoms: N3_21  and  C18_24 
REMARK   11  A    between atoms: C18_24  and  C19_25 
REMARK   12  A    between atoms: C19_25  and  C20_26 
REMARK   13  A    between atoms: C20_26  and  N4_27 
REMARK       I    between atoms: N4_27  and  C23_30 
ROOT
HETATM    1  C6  UNL     1       2.949  64.003  70.214  1.00  0.00    -0.034 A 
HETATM    2  C7  UNL     1       4.342  64.040  70.029  1.00  0.00     0.095 A 
HETATM    3  N2  UNL     1       4.874  62.864  70.375  1.00  0.00    -0.368 N 
ATOM      4  H2  UNL     1       5.868  62.641  70.329  1.00  0.00     0.165 HD
HETATM    5  C8  UNL     1       3.917  62.013  70.792  1.00  0.00     0.023 A 
HETATM    6  C13 UNL     1       2.730  62.729  70.688  1.00  0.00    -0.026 A 
ENDROOT
BRANCH   6   7
HETATM    7  C14 UNL     1       1.401  62.183  71.028  1.00  0.00     0.069 C 
BRANCH   7   8
HETATM    8  C15 UNL     1       0.948  62.558  72.418  1.00  0.00     0.241 C 
BRANCH   8   9
HETATM    9  N3  UNL     1       0.240  61.441  73.019  1.00  0.00    -0.074 N 
HETATM   10  C16 UNL     1      -1.173  61.625  72.793  1.00  0.00     0.272 C 
HETATM   11  C17 UNL     1       0.600  61.378  74.393  1.00  0.00     0.272 C 
BRANCH   9  12
HETATM   12  C18 UNL     1       0.582  60.194  72.355  1.00  0.00     0.238 C 
BRANCH  12  13
HETATM   13  C19 UNL     1       0.313  59.052  73.284  1.00  0.00     0.056 C 
BRANCH  13  14
HETATM   14  C20 UNL     1       1.252  57.900  73.155  1.00  0.00     0.249 C 
BRANCH  14  15
HETATM   15  N4  UNL     1       1.669  57.262  74.356  1.00  0.00     0.004 N 
HETATM   16  C21 UNL     1       0.737  57.711  75.421  1.00  0.00     0.284 C 
HETATM   17  C22 UNL     1       2.981  57.580  74.823  1.00  0.00     0.284 C 
HETATM   18  C23 UNL     1       1.465  55.881  74.250  1.00  0.00     0.427 C 
HETATM   19  N5  UNL     1       2.301  54.990  74.965  1.00  0.00    -0.033 NA
HETATM   20  O2  UNL     1       0.551  55.436  73.529  1.00  0.00    -0.243 OA
ENDBRANCH  14  15
ENDBRANCH  13  14
ENDBRANCH  12  13
ENDBRANCH   9  12
ENDBRANCH   8   9
ENDBRANCH   7   8
ENDBRANCH   6   7
BRANCH   1  21
HETATM   21  C5  UNL     1       2.017  65.133  69.955  1.00  0.00     0.042 C 
BRANCH  21  22
HETATM   22  C4  UNL     1       2.801  66.345  69.453  1.00  0.00     0.030 C 
BRANCH  22  23
HETATM   23  C3  UNL     1       2.051  67.061  68.362  1.00  0.00     0.088 C 
BRANCH  23  24
HETATM   24  N1  UNL     1       0.769  66.418  68.149  1.00  0.00    -0.356 N 
HETATM   25  C2  UNL     1      -0.390  67.168  67.793  1.00  0.00     0.213 C 
HETATM   26  C1  UNL     1      -1.672  66.492  67.584  1.00  0.00     0.117 C 
HETATM   27  O1  UNL     1      -0.289  68.417  67.664  1.00  0.00    -0.274 OA
ATOM     28  H1  UNL     1       0.695  65.407  68.256  1.00  0.00     0.162 HD
ENDBRANCH  23  24
BRANCH  23  29
HETATM   29  C24 UNL     1       2.852  66.919  67.089  1.00  0.00     0.000 C 
HETATM   30  C25 UNL     1       2.966  68.195  66.316  1.00  0.00     0.011 C 
HETATM   31  C26 UNL     1       4.245  66.384  67.348  1.00  0.00     0.011 C 
ENDBRANCH  23  29
ENDBRANCH  22  23
ENDBRANCH  21  22
ENDBRANCH   1  21
BRANCH   5  32
HETATM   32  C9  UNL     1       4.192  60.644  71.253  1.00  0.00    -0.008 C 
HETATM   33  C10 UNL     1       3.969  60.462  72.750  1.00  0.00     0.021 C 
HETATM   34  C11 UNL     1       5.683  60.365  71.028  1.00  0.00     0.021 C 
HETATM   35  C12 UNL     1       3.448  59.566  70.558  1.00  0.00     0.021 C 
ENDBRANCH   5  32
TORSDOF 13
ENDMDL
