MODEL 1
REMARK VINA RESULT: -10.376240174      0.000      0.000
REMARK  15 active torsions:
REMARK  status: ('A' for Active; 'I' for Inactive)
REMARK    1  A    between atoms: C2_2  and  C3_3 
REMARK    2  A    between atoms: C3_3  and  C4_4 
REMARK    3  A    between atoms: C4_4  and  N1_5 
REMARK       I    between atoms: N1_5  and  C5_7 
REMARK    4  A    between atoms: C5_7  and  C6_9 
REMARK    5  A    between atoms: C6_9  and  C7_10 
REMARK    6  A    between atoms: C6_9  and  N2_17 
REMARK    7  A    between atoms: C7_10  and  C8_11 
REMARK    8  A    between atoms: N2_17  and  C14_19 
REMARK    9  A    between atoms: C14_19  and  O2_20 
REMARK   10  A    between atoms: C14_19  and  C15_22 
REMARK   11  A    between atoms: C15_22  and  C16_23 
REMARK   12  A    between atoms: C15_22  and  N3_27 
REMARK   13  A    between atoms: C16_23  and  C17_24 
REMARK       I    between atoms: N3_27  and  C20_29 
REMARK   14  A    between atoms: C20_29  and  C21_31 
REMARK   15  A    between atoms: C22_32  and  C23_33 
ROOT
HETATM    1  C14 UNL     1       1.753  67.745  68.641  1.00  0.00     0.135 C 
ENDROOT
BRANCH   1   2
HETATM    2  N2  UNL     1       2.385  68.381  67.556  1.00  0.00    -0.359 N 
ATOM      3  H2  UNL     1       2.618  69.372  67.628  1.00  0.00     0.162 HD
BRANCH   2   4
HETATM    4  C6  UNL     1       2.715  67.664  66.334  1.00  0.00     0.179 C 
BRANCH   4   5
HETATM    5  C5  UNL     1       3.246  66.329  66.843  1.00  0.00     0.240 C 
HETATM    6  N1  UNL     1       4.337  66.278  67.722  1.00  0.00    -0.359 N 
ATOM      7  H1  UNL     1       4.755  67.173  67.975  1.00  0.00     0.162 HD
HETATM    8  O1  UNL     1       2.635  65.291  66.423  1.00  0.00    -0.271 OA
BRANCH   6   9
HETATM    9  C4  UNL     1       4.936  65.114  68.304  1.00  0.00     0.122 C 
BRANCH   9  10
HETATM   10  C3  UNL     1       4.707  64.777  69.708  1.00  0.00     0.019 C 
BRANCH  10  11
HETATM   11  C2  UNL     1       4.363  63.402  70.138  1.00  0.00    -0.003 C 
HETATM   12  C1  UNL     1       3.490  62.824  68.985  1.00  0.00     0.005 C 
ENDBRANCH  10  11
ENDBRANCH   9  10
ENDBRANCH   6   9
ENDBRANCH   4   5
BRANCH   4  13
HETATM   13  C7  UNL     1       3.625  68.220  65.361  1.00  0.00     0.073 C 
BRANCH  13  14
HETATM   14  C8  UNL     1       3.223  68.206  63.932  1.00  0.00    -0.056 A 
HETATM   15  C9  UNL     1       4.147  68.226  62.904  1.00  0.00     0.007 A 
HETATM   16  C10 UNL     1       3.692  68.256  61.605  1.00  0.00     0.001 A 
HETATM   17  C11 UNL     1       2.339  68.269  61.309  1.00  0.00     0.000 A 
HETATM   18  C12 UNL     1       1.413  68.249  62.326  1.00  0.00     0.001 A 
HETATM   19  C13 UNL     1       1.889  68.217  63.628  1.00  0.00     0.007 A 
ENDBRANCH  13  14
ENDBRANCH   4  13
ENDBRANCH   2   4
ENDBRANCH   1   2
BRANCH   1  20
HETATM   20  O2  UNL     1       2.424  67.924  69.763  1.00  0.00    -0.348 OA
ATOM     21  H2  UNL     1       1.861  67.831  70.523  1.00  0.00     0.219 HD
ENDBRANCH   1  20
BRANCH   1  22
HETATM   22  C15 UNL     1       0.559  66.978  68.784  1.00  0.00     0.159 C 
BRANCH  22  23
HETATM   23  C16 UNL     1      -0.470  66.722  67.776  1.00  0.00     0.037 C 
BRANCH  23  24
HETATM   24  C17 UNL     1      -1.345  67.786  67.232  1.00  0.00    -0.020 C 
HETATM   25  C18 UNL     1      -2.769  67.126  67.059  1.00  0.00     0.009 C 
HETATM   26  C19 UNL     1      -1.020  68.186  65.812  1.00  0.00     0.009 C 
ENDBRANCH  23  24
ENDBRANCH  22  23
BRANCH  22  27
HETATM   27  N3  UNL     1       0.905  65.603  69.300  1.00  0.00    -0.346 N 
HETATM   28  C20 UNL     1       0.435  65.096  70.513  1.00  0.00     0.241 C 
HETATM   29  O3  UNL     1      -0.317  65.778  71.248  1.00  0.00    -0.269 OA
ATOM     30  H3  UNL     1       1.514  65.014  68.733  1.00  0.00     0.163 HD
BRANCH  28  31
HETATM   31  C21 UNL     1       0.786  63.767  70.983  1.00  0.00     0.075 C 
HETATM   32  C22 UNL     1      -0.074  62.914  71.464  1.00  0.00     0.017 C 
BRANCH  32  33
HETATM   33  C23 UNL     1       0.283  61.583  71.934  1.00  0.00    -0.036 A 
HETATM   34  C24 UNL     1       1.485  60.986  71.554  1.00  0.00     0.011 A 
HETATM   35  C25 UNL     1       1.886  59.748  71.954  1.00  0.00     0.001 A 
HETATM   36  C26 UNL     1       1.085  59.000  72.788  1.00  0.00     0.000 A 
HETATM   37  C27 UNL     1      -0.106  59.554  73.183  1.00  0.00     0.001 A 
HETATM   38  C28 UNL     1      -0.513  60.829  72.768  1.00  0.00     0.011 A 
ENDBRANCH  32  33
ENDBRANCH  28  31
ENDBRANCH  22  27
ENDBRANCH   1  22
TORSDOF 15
ENDMDL
MODEL 2
REMARK VINA RESULT: -10.355615729      1.785      2.757
REMARK  15 active torsions:
REMARK  status: ('A' for Active; 'I' for Inactive)
REMARK    1  A    between atoms: C2_2  and  C3_3 
REMARK    2  A    between atoms: C3_3  and  C4_4 
REMARK    3  A    between atoms: C4_4  and  N1_5 
REMARK       I    between atoms: N1_5  and  C5_7 
REMARK    4  A    between atoms: C5_7  and  C6_9 
REMARK    5  A    between atoms: C6_9  and  C7_10 
REMARK    6  A    between atoms: C6_9  and  N2_17 
REMARK    7  A    between atoms: C7_10  and  C8_11 
REMARK    8  A    between atoms: N2_17  and  C14_19 
REMARK    9  A    between atoms: C14_19  and  O2_20 
REMARK   10  A    between atoms: C14_19  and  C15_22 
REMARK   11  A    between atoms: C15_22  and  C16_23 
REMARK   12  A    between atoms: C15_22  and  N3_27 
REMARK   13  A    between atoms: C16_23  and  C17_24 
REMARK       I    between atoms: N3_27  and  C20_29 
REMARK   14  A    between atoms: C20_29  and  C21_31 
REMARK   15  A    between atoms: C22_32  and  C23_33 
ROOT
HETATM    1  C14 UNL     1       1.844  66.593  69.749  1.00  0.00     0.135 C 
ENDROOT
BRANCH   1   2
HETATM    2  N2  UNL     1       3.090  65.952  69.622  1.00  0.00    -0.359 N 
ATOM      3  H2  UNL     1       3.778  66.051  70.369  1.00  0.00     0.162 HD
BRANCH   2   4
HETATM    4  C6  UNL     1       3.424  65.152  68.454  1.00  0.00     0.179 C 
BRANCH   4   5
HETATM    5  C5  UNL     1       3.446  63.728  68.998  1.00  0.00     0.240 C 
HETATM    6  N1  UNL     1       3.712  63.480  70.352  1.00  0.00    -0.359 N 
ATOM      7  H1  UNL     1       3.906  64.298  70.930  1.00  0.00     0.162 HD
HETATM    8  O1  UNL     1       3.206  62.806  68.151  1.00  0.00    -0.271 OA
BRANCH   6   9
HETATM    9  C4  UNL     1       3.745  62.213  71.018  1.00  0.00     0.122 C 
BRANCH   9  10
HETATM   10  C3  UNL     1       4.978  61.431  71.081  1.00  0.00     0.019 C 
BRANCH  10  11
HETATM   11  C2  UNL     1       4.979  59.956  70.944  1.00  0.00    -0.003 C 
HETATM   12  C1  UNL     1       3.991  59.657  69.777  1.00  0.00     0.005 C 
ENDBRANCH  10  11
ENDBRANCH   9  10
ENDBRANCH   6   9
ENDBRANCH   4   5
BRANCH   4  13
HETATM   13  C7  UNL     1       4.621  65.407  67.687  1.00  0.00     0.073 C 
BRANCH  13  14
HETATM   14  C8  UNL     1       4.558  66.412  66.597  1.00  0.00    -0.056 A 
HETATM   15  C9  UNL     1       5.512  66.481  65.599  1.00  0.00     0.007 A 
HETATM   16  C10 UNL     1       5.407  67.471  64.648  1.00  0.00     0.001 A 
HETATM   17  C11 UNL     1       4.373  68.392  64.671  1.00  0.00     0.000 A 
HETATM   18  C12 UNL     1       3.419  68.332  65.660  1.00  0.00     0.001 A 
HETATM   19  C13 UNL     1       3.541  67.327  66.608  1.00  0.00     0.007 A 
ENDBRANCH  13  14
ENDBRANCH   4  13
ENDBRANCH   2   4
ENDBRANCH   1   2
BRANCH   1  20
HETATM   20  O2  UNL     1       1.966  67.905  69.679  1.00  0.00    -0.348 OA
ATOM     21  H2  UNL     1       1.134  68.339  69.822  1.00  0.00     0.219 HD
ENDBRANCH   1  20
BRANCH   1  22
HETATM   22  C15 UNL     1       0.503  66.134  69.918  1.00  0.00     0.159 C 
BRANCH  22  23
HETATM   23  C16 UNL     1      -0.537  66.006  68.898  1.00  0.00     0.037 C 
BRANCH  23  24
HETATM   24  C17 UNL     1      -0.881  67.100  67.959  1.00  0.00    -0.020 C 
HETATM   25  C18 UNL     1      -2.349  66.795  67.463  1.00  0.00     0.009 C 
HETATM   26  C19 UNL     1      -0.107  67.065  66.662  1.00  0.00     0.009 C 
ENDBRANCH  23  24
ENDBRANCH  22  23
BRANCH  22  27
HETATM   27  N3  UNL     1       0.517  64.783  70.587  1.00  0.00    -0.346 N 
HETATM   28  C20 UNL     1      -0.024  64.545  71.853  1.00  0.00     0.241 C 
HETATM   29  O3  UNL     1      -0.560  65.470  72.507  1.00  0.00    -0.269 OA
ATOM     30  H3  UNL     1       0.942  64.001  70.090  1.00  0.00     0.163 HD
BRANCH  28  31
HETATM   31  C21 UNL     1       0.003  63.232  72.471  1.00  0.00     0.075 C 
HETATM   32  C22 UNL     1       0.153  62.118  71.810  1.00  0.00     0.017 C 
BRANCH  32  33
HETATM   33  C23 UNL     1       0.180  60.804  72.436  1.00  0.00    -0.036 A 
HETATM   34  C24 UNL     1      -0.836  60.398  73.301  1.00  0.00     0.011 A 
HETATM   35  C25 UNL     1      -0.878  59.186  73.920  1.00  0.00     0.001 A 
HETATM   36  C26 UNL     1       0.128  58.269  73.707  1.00  0.00     0.000 A 
HETATM   37  C27 UNL     1       1.145  58.632  72.862  1.00  0.00     0.001 A 
HETATM   38  C28 UNL     1       1.182  59.881  72.228  1.00  0.00     0.011 A 
ENDBRANCH  32  33
ENDBRANCH  28  31
ENDBRANCH  22  27
ENDBRANCH   1  22
TORSDOF 15
ENDMDL
MODEL 3
REMARK VINA RESULT: -10.268043504      1.913      2.904
REMARK  15 active torsions:
REMARK  status: ('A' for Active; 'I' for Inactive)
REMARK    1  A    between atoms: C2_2  and  C3_3 
REMARK    2  A    between atoms: C3_3  and  C4_4 
REMARK    3  A    between atoms: C4_4  and  N1_5 
REMARK       I    between atoms: N1_5  and  C5_7 
REMARK    4  A    between atoms: C5_7  and  C6_9 
REMARK    5  A    between atoms: C6_9  and  C7_10 
REMARK    6  A    between atoms: C6_9  and  N2_17 
REMARK    7  A    between atoms: C7_10  and  C8_11 
REMARK    8  A    between atoms: N2_17  and  C14_19 
REMARK    9  A    between atoms: C14_19  and  O2_20 
REMARK   10  A    between atoms: C14_19  and  C15_22 
REMARK   11  A    between atoms: C15_22  and  C16_23 
REMARK   12  A    between atoms: C15_22  and  N3_27 
REMARK   13  A    between atoms: C16_23  and  C17_24 
REMARK       I    between atoms: N3_27  and  C20_29 
REMARK   14  A    between atoms: C20_29  and  C21_31 
REMARK   15  A    between atoms: C22_32  and  C23_33 
ROOT
HETATM    1  C14 UNL     1       1.639  68.018  68.391  1.00  0.00     0.135 C 
ENDROOT
BRANCH   1   2
HETATM    2  N2  UNL     1       2.906  67.941  67.785  1.00  0.00    -0.359 N 
ATOM      3  H2  UNL     1       3.740  68.075  68.357  1.00  0.00     0.162 HD
BRANCH   2   4
HETATM    4  C6  UNL     1       3.060  67.675  66.362  1.00  0.00     0.179 C 
BRANCH   4   5
HETATM    5  C5  UNL     1       3.643  66.267  66.329  1.00  0.00     0.240 C 
HETATM    6  N1  UNL     1       2.846  65.167  65.983  1.00  0.00    -0.359 N 
ATOM      7  H1  UNL     1       1.867  65.366  65.779  1.00  0.00     0.162 HD
HETATM    8  O1  UNL     1       4.879  66.171  66.630  1.00  0.00    -0.271 OA
BRANCH   6   9
HETATM    9  C4  UNL     1       3.247  63.795  65.883  1.00  0.00     0.122 C 
BRANCH   9  10
HETATM   10  C3  UNL     1       3.533  63.191  64.584  1.00  0.00     0.019 C 
BRANCH  10  11
HETATM   11  C2  UNL     1       4.732  63.558  63.796  1.00  0.00    -0.003 C 
HETATM   12  C1  UNL     1       4.352  64.887  63.076  1.00  0.00     0.005 C 
ENDBRANCH  10  11
ENDBRANCH   9  10
ENDBRANCH   6   9
ENDBRANCH   4   5
BRANCH   4  13
HETATM   13  C7  UNL     1       3.833  68.551  65.514  1.00  0.00     0.073 C 
BRANCH  13  14
HETATM   14  C8  UNL     1       3.639  68.461  64.045  1.00  0.00    -0.056 A 
HETATM   15  C9  UNL     1       2.416  68.151  63.480  1.00  0.00     0.007 A 
HETATM   16  C10 UNL     1       2.328  68.042  62.111  1.00  0.00     0.001 A 
HETATM   17  C11 UNL     1       3.430  68.234  61.294  1.00  0.00     0.000 A 
HETATM   18  C12 UNL     1       4.651  68.543  61.848  1.00  0.00     0.001 A 
HETATM   19  C13 UNL     1       4.720  68.650  63.229  1.00  0.00     0.007 A 
ENDBRANCH  13  14
ENDBRANCH   4  13
ENDBRANCH   2   4
ENDBRANCH   1   2
BRANCH   1  20
HETATM   20  O2  UNL     1       1.310  69.267  68.664  1.00  0.00    -0.348 OA
ATOM     21  H2  UNL     1       0.492  69.509  68.248  1.00  0.00     0.219 HD
ENDBRANCH   1  20
BRANCH   1  22
HETATM   22  C15 UNL     1       0.650  67.056  68.752  1.00  0.00     0.159 C 
BRANCH  22  23
HETATM   23  C16 UNL     1      -0.541  66.667  67.997  1.00  0.00     0.037 C 
BRANCH  23  24
HETATM   24  C17 UNL     1      -1.512  67.652  67.462  1.00  0.00    -0.020 C 
HETATM   25  C18 UNL     1      -2.856  66.855  67.241  1.00  0.00     0.009 C 
HETATM   26  C19 UNL     1      -1.202  68.124  66.061  1.00  0.00     0.009 C 
ENDBRANCH  23  24
ENDBRANCH  22  23
BRANCH  22  27
HETATM   27  N3  UNL     1       1.319  65.741  69.065  1.00  0.00    -0.346 N 
HETATM   28  C20 UNL     1       1.058  65.001  70.220  1.00  0.00     0.241 C 
HETATM   29  O3  UNL     1       0.232  65.406  71.071  1.00  0.00    -0.269 OA
ATOM     30  H3  UNL     1       1.998  65.374  68.399  1.00  0.00     0.163 HD
BRANCH  28  31
HETATM   31  C21 UNL     1       1.719  63.737  70.494  1.00  0.00     0.075 C 
HETATM   32  C22 UNL     1       2.842  63.369  69.944  1.00  0.00     0.017 C 
BRANCH  32  33
HETATM   33  C23 UNL     1       3.501  62.101  70.223  1.00  0.00    -0.036 A 
HETATM   34  C24 UNL     1       3.062  60.917  69.631  1.00  0.00     0.011 A 
HETATM   35  C25 UNL     1       3.628  59.697  69.843  1.00  0.00     0.001 A 
HETATM   36  C26 UNL     1       4.709  59.576  70.689  1.00  0.00     0.000 A 
HETATM   37  C27 UNL     1       5.170  60.720  71.291  1.00  0.00     0.001 A 
HETATM   38  C28 UNL     1       4.582  61.972  71.068  1.00  0.00     0.011 A 
ENDBRANCH  32  33
ENDBRANCH  28  31
ENDBRANCH  22  27
ENDBRANCH   1  22
TORSDOF 15
ENDMDL
MODEL 4
REMARK VINA RESULT: -10.131698051      1.793      2.726
REMARK  15 active torsions:
REMARK  status: ('A' for Active; 'I' for Inactive)
REMARK    1  A    between atoms: C2_2  and  C3_3 
REMARK    2  A    between atoms: C3_3  and  C4_4 
REMARK    3  A    between atoms: C4_4  and  N1_5 
REMARK       I    between atoms: N1_5  and  C5_7 
REMARK    4  A    between atoms: C5_7  and  C6_9 
REMARK    5  A    between atoms: C6_9  and  C7_10 
REMARK    6  A    between atoms: C6_9  and  N2_17 
REMARK    7  A    between atoms: C7_10  and  C8_11 
REMARK    8  A    between atoms: N2_17  and  C14_19 
REMARK    9  A    between atoms: C14_19  and  O2_20 
REMARK   10  A    between atoms: C14_19  and  C15_22 
REMARK   11  A    between atoms: C15_22  and  C16_23 
REMARK   12  A    between atoms: C15_22  and  N3_27 
REMARK   13  A    between atoms: C16_23  and  C17_24 
REMARK       I    between atoms: N3_27  and  C20_29 
REMARK   14  A    between atoms: C20_29  and  C21_31 
REMARK   15  A    between atoms: C22_32  and  C23_33 
ROOT
HETATM    1  C14 UNL     1       1.847  66.762  69.664  1.00  0.00     0.135 C 
ENDROOT
BRANCH   1   2
HETATM    2  N2  UNL     1       3.129  66.182  69.638  1.00  0.00    -0.359 N 
ATOM      3  H2  UNL     1       3.797  66.421  70.369  1.00  0.00     0.162 HD
BRANCH   2   4
HETATM    4  C6  UNL     1       3.526  65.249  68.594  1.00  0.00     0.179 C 
BRANCH   4   5
HETATM    5  C5  UNL     1       3.680  63.930  69.341  1.00  0.00     0.240 C 
HETATM    6  N1  UNL     1       2.787  62.872  69.123  1.00  0.00    -0.359 N 
ATOM      7  H1  UNL     1       2.032  63.048  68.459  1.00  0.00     0.162 HD
HETATM    8  O1  UNL     1       4.660  63.864  70.155  1.00  0.00    -0.271 OA
BRANCH   6   9
HETATM    9  C4  UNL     1       2.810  61.572  69.723  1.00  0.00     0.122 C 
BRANCH   9  10
HETATM   10  C3  UNL     1       3.925  60.657  69.487  1.00  0.00     0.019 C 
BRANCH  10  11
HETATM   11  C2  UNL     1       4.535  59.867  70.581  1.00  0.00    -0.003 C 
HETATM   12  C1  UNL     1       4.692  60.868  71.765  1.00  0.00     0.005 C 
ENDBRANCH  10  11
ENDBRANCH   9  10
ENDBRANCH   6   9
ENDBRANCH   4   5
BRANCH   4  13
HETATM   13  C7  UNL     1       4.689  65.493  67.773  1.00  0.00     0.073 C 
BRANCH  13  14
HETATM   14  C8  UNL     1       4.560  66.429  66.629  1.00  0.00    -0.056 A 
HETATM   15  C9  UNL     1       5.451  66.432  65.572  1.00  0.00     0.007 A 
HETATM   16  C10 UNL     1       5.289  67.362  64.570  1.00  0.00     0.001 A 
HETATM   17  C11 UNL     1       4.259  68.288  64.599  1.00  0.00     0.000 A 
HETATM   18  C12 UNL     1       3.368  68.293  65.647  1.00  0.00     0.001 A 
HETATM   19  C13 UNL     1       3.547  67.348  66.646  1.00  0.00     0.007 A 
ENDBRANCH  13  14
ENDBRANCH   4  13
ENDBRANCH   2   4
ENDBRANCH   1   2
BRANCH   1  20
HETATM   20  O2  UNL     1       1.905  68.068  69.477  1.00  0.00    -0.348 OA
ATOM     21  H2  UNL     1       1.872  68.288  68.554  1.00  0.00     0.219 HD
ENDBRANCH   1  20
BRANCH   1  22
HETATM   22  C15 UNL     1       0.527  66.248  69.831  1.00  0.00     0.159 C 
BRANCH  22  23
HETATM   23  C16 UNL     1      -0.496  66.051  68.804  1.00  0.00     0.037 C 
BRANCH  23  24
HETATM   24  C17 UNL     1      -0.905  67.119  67.861  1.00  0.00    -0.020 C 
HETATM   25  C18 UNL     1      -2.360  66.736  67.382  1.00  0.00     0.009 C 
HETATM   26  C19 UNL     1      -0.143  67.114  66.556  1.00  0.00     0.009 C 
ENDBRANCH  23  24
ENDBRANCH  22  23
BRANCH  22  27
HETATM   27  N3  UNL     1       0.593  64.914  70.530  1.00  0.00    -0.346 N 
HETATM   28  C20 UNL     1       0.009  64.668  71.775  1.00  0.00     0.241 C 
HETATM   29  O3  UNL     1      -0.613  65.570  72.383  1.00  0.00    -0.269 OA
ATOM     30  H3  UNL     1       1.089  64.151  70.070  1.00  0.00     0.163 HD
BRANCH  28  31
HETATM   31  C21 UNL     1       0.090  63.371  72.424  1.00  0.00     0.075 C 
HETATM   32  C22 UNL     1      -0.273  62.252  71.863  1.00  0.00     0.017 C 
BRANCH  32  33
HETATM   33  C23 UNL     1      -0.189  60.955  72.518  1.00  0.00    -0.036 A 
HETATM   34  C24 UNL     1       0.903  60.113  72.309  1.00  0.00     0.011 A 
HETATM   35  C25 UNL     1       1.050  58.889  72.888  1.00  0.00     0.001 A 
HETATM   36  C26 UNL     1       0.082  58.410  73.742  1.00  0.00     0.000 A 
HETATM   37  C27 UNL     1      -1.009  59.210  73.972  1.00  0.00     0.001 A 
HETATM   38  C28 UNL     1      -1.153  60.468  73.374  1.00  0.00     0.011 A 
ENDBRANCH  32  33
ENDBRANCH  28  31
ENDBRANCH  22  27
ENDBRANCH   1  22
TORSDOF 15
ENDMDL
MODEL 5
REMARK VINA RESULT: -10.020220132      1.070      4.802
REMARK  15 active torsions:
REMARK  status: ('A' for Active; 'I' for Inactive)
REMARK    1  A    between atoms: C2_2  and  C3_3 
REMARK    2  A    between atoms: C3_3  and  C4_4 
REMARK    3  A    between atoms: C4_4  and  N1_5 
REMARK       I    between atoms: N1_5  and  C5_7 
REMARK    4  A    between atoms: C5_7  and  C6_9 
REMARK    5  A    between atoms: C6_9  and  C7_10 
REMARK    6  A    between atoms: C6_9  and  N2_17 
REMARK    7  A    between atoms: C7_10  and  C8_11 
REMARK    8  A    between atoms: N2_17  and  C14_19 
REMARK    9  A    between atoms: C14_19  and  O2_20 
REMARK   10  A    between atoms: C14_19  and  C15_22 
REMARK   11  A    between atoms: C15_22  and  C16_23 
REMARK   12  A    between atoms: C15_22  and  N3_27 
REMARK   13  A    between atoms: C16_23  and  C17_24 
REMARK       I    between atoms: N3_27  and  C20_29 
REMARK   14  A    between atoms: C20_29  and  C21_31 
REMARK   15  A    between atoms: C22_32  and  C23_33 
ROOT
HETATM    1  C14 UNL     1       1.823  67.483  68.471  1.00  0.00     0.135 C 
ENDROOT
BRANCH   1   2
HETATM    2  N2  UNL     1       2.716  67.471  67.383  1.00  0.00    -0.359 N 
ATOM      3  H2  UNL     1       2.596  68.151  66.634  1.00  0.00     0.162 HD
BRANCH   2   4
HETATM    4  C6  UNL     1       3.807  66.511  67.300  1.00  0.00     0.179 C 
BRANCH   4   5
HETATM    5  C5  UNL     1       4.604  66.991  66.092  1.00  0.00     0.240 C 
HETATM    6  N1  UNL     1       4.232  68.152  65.401  1.00  0.00    -0.359 N 
ATOM      7  H1  UNL     1       3.399  68.633  65.742  1.00  0.00     0.162 HD
HETATM    8  O1  UNL     1       5.610  66.275  65.770  1.00  0.00    -0.271 OA
BRANCH   6   9
HETATM    9  C4  UNL     1       4.885  68.744  64.271  1.00  0.00     0.122 C 
BRANCH   9  10
HETATM   10  C3  UNL     1       4.376  68.534  62.918  1.00  0.00     0.019 C 
BRANCH  10  11
HETATM   11  C2  UNL     1       3.005  68.035  62.665  1.00  0.00    -0.003 C 
HETATM   12  C1  UNL     1       2.804  68.163  61.125  1.00  0.00     0.005 C 
ENDBRANCH  10  11
ENDBRANCH   9  10
ENDBRANCH   6   9
ENDBRANCH   4   5
BRANCH   4  13
HETATM   13  C7  UNL     1       3.553  65.094  67.194  1.00  0.00     0.073 C 
BRANCH  13  14
HETATM   14  C8  UNL     1       3.828  64.240  68.377  1.00  0.00    -0.056 A 
HETATM   15  C9  UNL     1       4.680  64.635  69.392  1.00  0.00     0.007 A 
HETATM   16  C10 UNL     1       4.918  63.767  70.433  1.00  0.00     0.001 A 
HETATM   17  C11 UNL     1       4.327  62.515  70.484  1.00  0.00     0.000 A 
HETATM   18  C12 UNL     1       3.478  62.113  69.479  1.00  0.00     0.001 A 
HETATM   19  C13 UNL     1       3.250  63.002  68.438  1.00  0.00     0.007 A 
ENDBRANCH  13  14
ENDBRANCH   4  13
ENDBRANCH   2   4
ENDBRANCH   1   2
BRANCH   1  20
HETATM   20  O2  UNL     1       2.303  68.185  69.481  1.00  0.00    -0.348 OA
ATOM     21  H2  UNL     1       2.128  69.112  69.372  1.00  0.00     0.219 HD
ENDBRANCH   1  20
BRANCH   1  22
HETATM   22  C15 UNL     1       0.532  66.924  68.702  1.00  0.00     0.159 C 
BRANCH  22  23
HETATM   23  C16 UNL     1      -0.603  66.874  67.781  1.00  0.00     0.037 C 
BRANCH  23  24
HETATM   24  C17 UNL     1      -0.956  67.995  66.878  1.00  0.00    -0.020 C 
HETATM   25  C18 UNL     1      -2.479  67.792  66.514  1.00  0.00     0.009 C 
HETATM   26  C19 UNL     1      -0.305  67.918  65.517  1.00  0.00     0.009 C 
ENDBRANCH  23  24
ENDBRANCH  22  23
BRANCH  22  27
HETATM   27  N3  UNL     1       0.679  65.496  69.166  1.00  0.00    -0.346 N 
HETATM   28  C20 UNL     1       0.329  65.063  70.446  1.00  0.00     0.241 C 
HETATM   29  O3  UNL     1      -0.136  65.863  71.292  1.00  0.00    -0.269 OA
ATOM     30  H3  UNL     1       1.054  64.812  68.510  1.00  0.00     0.163 HD
BRANCH  28  31
HETATM   31  C21 UNL     1       0.483  63.680  70.864  1.00  0.00     0.075 C 
HETATM   32  C22 UNL     1      -0.117  63.161  71.898  1.00  0.00     0.017 C 
BRANCH  32  33
HETATM   33  C23 UNL     1       0.041  61.774  72.311  1.00  0.00    -0.036 A 
HETATM   34  C24 UNL     1      -0.947  61.130  73.057  1.00  0.00     0.011 A 
HETATM   35  C25 UNL     1      -0.869  59.837  73.477  1.00  0.00     0.001 A 
HETATM   36  C26 UNL     1       0.238  59.077  73.169  1.00  0.00     0.000 A 
HETATM   37  C27 UNL     1       1.231  59.677  72.436  1.00  0.00     0.001 A 
HETATM   38  C28 UNL     1       1.145  61.008  72.007  1.00  0.00     0.011 A 
ENDBRANCH  32  33
ENDBRANCH  28  31
ENDBRANCH  22  27
ENDBRANCH   1  22
TORSDOF 15
ENDMDL
