MODEL 1
REMARK VINA RESULT: -10.053765068      0.000      0.000
REMARK  13 active torsions:
REMARK  status: ('A' for Active; 'I' for Inactive)
REMARK    1  A    between atoms: C2_2  and  C3_3 
REMARK    2  A    between atoms: C2_2  and  C11_11 
REMARK    3  A    between atoms: C3_3  and  C4_4 
REMARK    4  A    between atoms: C4_4  and  C5_5 
REMARK    5  A    between atoms: C11_11  and  N1_12 
REMARK    6  A    between atoms: C11_11  and  C16_23 
REMARK    7  A    between atoms: N1_12  and  C12_14 
REMARK    8  A    between atoms: C12_14  and  C13_15 
REMARK    9  A    between atoms: C13_15  and  C14_16 
REMARK       I    between atoms: C14_16  and  N2_18 
REMARK   10  A    between atoms: C16_23  and  C19_26 
REMARK       I    between atoms: C19_26  and  N5_28 
REMARK   11  A    between atoms: N5_28  and  C20_30 
REMARK   12  A    between atoms: C20_30  and  C21_31 
REMARK   13  A    between atoms: C21_31  and  C22_32 
ROOT
HETATM    1  C11 UNL     1       2.487  66.555  67.167  1.00  0.00     0.028 C 
ENDROOT
BRANCH   1   2
HETATM    2  C2  UNL     1       3.517  65.575  67.521  1.00  0.00    -0.044 C 
HETATM    3  C1  UNL     1       4.766  65.950  67.292  1.00  0.00     0.021 C 
BRANCH   2   4
HETATM    4  C3  UNL     1       3.336  64.244  68.072  1.00  0.00     0.044 C 
BRANCH   4   5
HETATM    5  C4  UNL     1       4.021  64.091  69.409  1.00  0.00     0.043 C 
BRANCH   5   6
HETATM    6  C5  UNL     1       4.004  62.675  69.866  1.00  0.00    -0.058 A 
HETATM    7  C6  UNL     1       4.739  62.312  70.966  1.00  0.00     0.007 A 
HETATM    8  C7  UNL     1       4.756  61.000  71.427  1.00  0.00     0.001 A 
HETATM    9  C8  UNL     1       4.011  60.053  70.750  1.00  0.00     0.000 A 
HETATM   10  C9  UNL     1       3.275  60.407  69.652  1.00  0.00     0.001 A 
HETATM   11  C10 UNL     1       3.275  61.719  69.213  1.00  0.00     0.007 A 
ENDBRANCH   5   6
ENDBRANCH   4   5
ENDBRANCH   2   4
ENDBRANCH   1   2
BRANCH   1  12
HETATM   12  N1  UNL     1       1.742  66.148  66.049  1.00  0.00    -0.391 N 
ATOM     13  H1  UNL     1       0.807  65.768  66.200  1.00  0.00     0.159 HD
BRANCH  12  14
HETATM   14  C12 UNL     1       2.220  66.238  64.742  1.00  0.00     0.129 C 
BRANCH  14  15
HETATM   15  C13 UNL     1       2.058  67.727  64.330  1.00  0.00     0.122 C 
BRANCH  15  16
HETATM   16  C14 UNL     1       0.692  67.964  63.831  1.00  0.00     0.225 C 
HETATM   17  O1  UNL     1      -0.261  67.967  64.650  1.00  0.00    -0.273 OA
HETATM   18  N2  UNL     1       0.446  68.181  62.477  1.00  0.00    -0.304 N 
HETATM   19  C15 UNL     1       1.244  68.211  61.495  1.00  0.00     0.203 C 
ATOM     20  H2  UNL     1      -0.533  68.340  62.240  1.00  0.00     0.171 HD
HETATM   21  N3  UNL     1       0.706  68.460  60.183  1.00  0.00    -0.066 NA
HETATM   22  N4  UNL     1       2.643  68.018  61.569  1.00  0.00    -0.066 NA
ENDBRANCH  15  16
ENDBRANCH  14  15
ENDBRANCH  12  14
ENDBRANCH   1  12
BRANCH   1  23
HETATM   23  C16 UNL     1       1.736  67.200  68.298  1.00  0.00     0.076 C 
HETATM   24  C17 UNL     1       2.807  67.450  69.383  1.00  0.00     0.032 C 
HETATM   25  C18 UNL     1       1.143  68.534  68.011  1.00  0.00     0.032 C 
BRANCH  23  26
HETATM   26  C19 UNL     1       0.774  66.269  68.941  1.00  0.00     0.231 C 
HETATM   27  O2  UNL     1      -0.291  65.978  68.358  1.00  0.00    -0.272 OA
HETATM   28  N5  UNL     1       0.961  65.656  70.209  1.00  0.00    -0.360 N 
ATOM     29  H5  UNL     1       1.822  65.875  70.709  1.00  0.00     0.162 HD
BRANCH  28  30
HETATM   30  C20 UNL     1       0.059  64.768  70.837  1.00  0.00     0.127 C 
BRANCH  30  31
HETATM   31  C21 UNL     1       0.197  63.318  70.543  1.00  0.00     0.058 C 
BRANCH  31  32
HETATM   32  C22 UNL     1       0.704  62.483  71.644  1.00  0.00    -0.057 A 
HETATM   33  C23 UNL     1       0.359  61.155  71.684  1.00  0.00     0.007 A 
HETATM   34  C24 UNL     1       0.795  60.296  72.700  1.00  0.00     0.001 A 
HETATM   35  C25 UNL     1       1.595  60.816  73.677  1.00  0.00     0.000 A 
HETATM   36  C26 UNL     1       1.944  62.144  73.641  1.00  0.00     0.001 A 
HETATM   37  C27 UNL     1       1.510  62.980  72.641  1.00  0.00     0.007 A 
ENDBRANCH  31  32
ENDBRANCH  30  31
ENDBRANCH  28  30
ENDBRANCH  23  26
ENDBRANCH   1  23
TORSDOF 13
ENDMDL
MODEL 2
REMARK VINA RESULT: -10.020684126      0.069      1.151
REMARK  13 active torsions:
REMARK  status: ('A' for Active; 'I' for Inactive)
REMARK    1  A    between atoms: C2_2  and  C3_3 
REMARK    2  A    between atoms: C2_2  and  C11_11 
REMARK    3  A    between atoms: C3_3  and  C4_4 
REMARK    4  A    between atoms: C4_4  and  C5_5 
REMARK    5  A    between atoms: C11_11  and  N1_12 
REMARK    6  A    between atoms: C11_11  and  C16_23 
REMARK    7  A    between atoms: N1_12  and  C12_14 
REMARK    8  A    between atoms: C12_14  and  C13_15 
REMARK    9  A    between atoms: C13_15  and  C14_16 
REMARK       I    between atoms: C14_16  and  N2_18 
REMARK   10  A    between atoms: C16_23  and  C19_26 
REMARK       I    between atoms: C19_26  and  N5_28 
REMARK   11  A    between atoms: N5_28  and  C20_30 
REMARK   12  A    between atoms: C20_30  and  C21_31 
REMARK   13  A    between atoms: C21_31  and  C22_32 
ROOT
HETATM    1  C11 UNL     1       2.467  66.557  67.181  1.00  0.00     0.028 C 
ENDROOT
BRANCH   1   2
HETATM    2  C2  UNL     1       3.500  65.592  67.567  1.00  0.00    -0.044 C 
HETATM    3  C1  UNL     1       4.749  65.971  67.344  1.00  0.00     0.021 C 
BRANCH   2   4
HETATM    4  C3  UNL     1       3.322  64.271  68.143  1.00  0.00     0.044 C 
BRANCH   4   5
HETATM    5  C4  UNL     1       4.021  64.140  69.476  1.00  0.00     0.043 C 
BRANCH   5   6
HETATM    6  C5  UNL     1       4.063  62.723  69.927  1.00  0.00    -0.058 A 
HETATM    7  C6  UNL     1       3.362  61.772  69.228  1.00  0.00     0.007 A 
HETATM    8  C7  UNL     1       3.370  60.436  69.615  1.00  0.00     0.001 A 
HETATM    9  C8  UNL     1       4.104  60.075  70.730  1.00  0.00     0.000 A 
HETATM   10  C9  UNL     1       4.806  61.018  71.431  1.00  0.00     0.001 A 
HETATM   11  C10 UNL     1       4.782  62.341  71.026  1.00  0.00     0.007 A 
ENDBRANCH   5   6
ENDBRANCH   4   5
ENDBRANCH   2   4
ENDBRANCH   1   2
BRANCH   1  12
HETATM   12  N1  UNL     1       1.756  66.135  66.047  1.00  0.00    -0.391 N 
ATOM     13  H1  UNL     1       0.827  65.734  66.176  1.00  0.00     0.159 HD
BRANCH  12  14
HETATM   14  C12 UNL     1       2.261  66.238  64.751  1.00  0.00     0.129 C 
BRANCH  14  15
HETATM   15  C13 UNL     1       2.088  67.727  64.343  1.00  0.00     0.122 C 
BRANCH  15  16
HETATM   16  C14 UNL     1       0.719  67.956  63.848  1.00  0.00     0.225 C 
HETATM   17  O1  UNL     1      -0.232  67.953  64.669  1.00  0.00    -0.273 OA
HETATM   18  N2  UNL     1       0.469  68.172  62.494  1.00  0.00    -0.304 N 
HETATM   19  C15 UNL     1       1.264  68.207  61.510  1.00  0.00     0.203 C 
ATOM     20  H2  UNL     1      -0.512  68.325  62.259  1.00  0.00     0.171 HD
HETATM   21  N3  UNL     1       0.721  68.454  60.200  1.00  0.00    -0.066 NA
HETATM   22  N4  UNL     1       2.664  68.023  61.580  1.00  0.00    -0.066 NA
ENDBRANCH  15  16
ENDBRANCH  14  15
ENDBRANCH  12  14
ENDBRANCH   1  12
BRANCH   1  23
HETATM   23  C16 UNL     1       1.679  67.197  68.290  1.00  0.00     0.076 C 
HETATM   24  C17 UNL     1       2.727  67.515  69.379  1.00  0.00     0.032 C 
HETATM   25  C18 UNL     1       1.037  68.499  67.966  1.00  0.00     0.032 C 
BRANCH  23  26
HETATM   26  C19 UNL     1       0.748  66.243  68.945  1.00  0.00     0.231 C 
HETATM   27  O2  UNL     1      -0.311  65.917  68.370  1.00  0.00    -0.272 OA
HETATM   28  N5  UNL     1       0.959  65.646  70.216  1.00  0.00    -0.360 N 
ATOM     29  H5  UNL     1       1.816  65.895  70.711  1.00  0.00     0.162 HD
BRANCH  28  30
HETATM   30  C20 UNL     1       0.087  64.737  70.856  1.00  0.00     0.127 C 
BRANCH  30  31
HETATM   31  C21 UNL     1       0.223  63.296  70.524  1.00  0.00     0.058 C 
BRANCH  31  32
HETATM   32  C22 UNL     1       0.705  62.427  71.610  1.00  0.00    -0.057 A 
HETATM   33  C23 UNL     1       1.478  62.973  72.604  1.00  0.00     0.007 A 
HETATM   34  C24 UNL     1       1.980  62.214  73.669  1.00  0.00     0.001 A 
HETATM   35  C25 UNL     1       1.677  60.883  73.702  1.00  0.00     0.000 A 
HETATM   36  C26 UNL     1       0.903  60.331  72.710  1.00  0.00     0.001 A 
HETATM   37  C27 UNL     1       0.416  61.084  71.669  1.00  0.00     0.007 A 
ENDBRANCH  31  32
ENDBRANCH  30  31
ENDBRANCH  28  30
ENDBRANCH  23  26
ENDBRANCH   1  23
TORSDOF 13
ENDMDL
MODEL 3
REMARK VINA RESULT: -9.815227409      1.424      1.706
REMARK  13 active torsions:
REMARK  status: ('A' for Active; 'I' for Inactive)
REMARK    1  A    between atoms: C2_2  and  C3_3 
REMARK    2  A    between atoms: C2_2  and  C11_11 
REMARK    3  A    between atoms: C3_3  and  C4_4 
REMARK    4  A    between atoms: C4_4  and  C5_5 
REMARK    5  A    between atoms: C11_11  and  N1_12 
REMARK    6  A    between atoms: C11_11  and  C16_23 
REMARK    7  A    between atoms: N1_12  and  C12_14 
REMARK    8  A    between atoms: C12_14  and  C13_15 
REMARK    9  A    between atoms: C13_15  and  C14_16 
REMARK       I    between atoms: C14_16  and  N2_18 
REMARK   10  A    between atoms: C16_23  and  C19_26 
REMARK       I    between atoms: C19_26  and  N5_28 
REMARK   11  A    between atoms: N5_28  and  C20_30 
REMARK   12  A    between atoms: C20_30  and  C21_31 
REMARK   13  A    between atoms: C21_31  and  C22_32 
ROOT
HETATM    1  C11 UNL     1       2.845  66.090  67.284  1.00  0.00     0.028 C 
ENDROOT
BRANCH   1   2
HETATM    2  C2  UNL     1       3.780  65.107  67.838  1.00  0.00    -0.044 C 
HETATM    3  C1  UNL     1       5.058  65.451  67.807  1.00  0.00     0.021 C 
BRANCH   2   4
HETATM    4  C3  UNL     1       3.479  63.801  68.398  1.00  0.00     0.044 C 
BRANCH   4   5
HETATM    5  C4  UNL     1       4.069  63.632  69.779  1.00  0.00     0.043 C 
BRANCH   5   6
HETATM    6  C5  UNL     1       4.104  62.200  70.179  1.00  0.00    -0.058 A 
HETATM    7  C6  UNL     1       4.818  61.827  71.290  1.00  0.00     0.007 A 
HETATM    8  C7  UNL     1       4.881  60.499  71.700  1.00  0.00     0.001 A 
HETATM    9  C8  UNL     1       4.203  59.547  70.961  1.00  0.00     0.000 A 
HETATM   10  C9  UNL     1       3.488  59.911  69.853  1.00  0.00     0.001 A 
HETATM   11  C10 UNL     1       3.441  61.239  69.465  1.00  0.00     0.007 A 
ENDBRANCH   5   6
ENDBRANCH   4   5
ENDBRANCH   2   4
ENDBRANCH   1   2
BRANCH   1  12
HETATM   12  N1  UNL     1       2.183  65.598  66.149  1.00  0.00    -0.391 N 
ATOM     13  H1  UNL     1       1.163  65.639  66.125  1.00  0.00     0.159 HD
BRANCH  12  14
HETATM   14  C12 UNL     1       2.852  65.055  65.053  1.00  0.00     0.129 C 
BRANCH  14  15
HETATM   15  C13 UNL     1       3.759  66.190  64.502  1.00  0.00     0.122 C 
BRANCH  15  16
HETATM   16  C14 UNL     1       4.275  65.819  63.173  1.00  0.00     0.225 C 
HETATM   17  O1  UNL     1       4.994  64.794  63.065  1.00  0.00    -0.273 OA
HETATM   18  N2  UNL     1       3.979  66.582  62.045  1.00  0.00    -0.304 N 
HETATM   19  C15 UNL     1       3.292  67.640  61.930  1.00  0.00     0.203 C 
ATOM     20  H2  UNL     1       4.381  66.235  61.175  1.00  0.00     0.171 HD
HETATM   21  N3  UNL     1       3.151  68.225  60.622  1.00  0.00    -0.066 NA
HETATM   22  N4  UNL     1       2.638  68.312  62.988  1.00  0.00    -0.066 NA
ENDBRANCH  15  16
ENDBRANCH  14  15
ENDBRANCH  12  14
ENDBRANCH   1  12
BRANCH   1  23
HETATM   23  C16 UNL     1       2.033  66.891  68.263  1.00  0.00     0.076 C 
HETATM   24  C17 UNL     1       3.017  67.221  69.407  1.00  0.00     0.032 C 
HETATM   25  C18 UNL     1       1.537  68.207  67.776  1.00  0.00     0.032 C 
BRANCH  23  26
HETATM   26  C19 UNL     1       0.972  66.082  68.914  1.00  0.00     0.231 C 
HETATM   27  O2  UNL     1      -0.131  65.934  68.347  1.00  0.00    -0.272 OA
HETATM   28  N5  UNL     1       1.101  65.435  70.172  1.00  0.00    -0.360 N 
ATOM     29  H5  UNL     1       1.991  65.539  70.659  1.00  0.00     0.162 HD
BRANCH  28  30
HETATM   30  C20 UNL     1       0.105  64.660  70.808  1.00  0.00     0.127 C 
BRANCH  30  31
HETATM   31  C21 UNL     1       0.120  63.192  70.582  1.00  0.00     0.058 C 
BRANCH  31  32
HETATM   32  C22 UNL     1       0.692  62.380  71.669  1.00  0.00    -0.057 A 
HETATM   33  C23 UNL     1       0.462  61.027  71.678  1.00  0.00     0.007 A 
HETATM   34  C24 UNL     1       0.965  60.186  72.678  1.00  0.00     0.001 A 
HETATM   35  C25 UNL     1       1.712  60.751  73.672  1.00  0.00     0.000 A 
HETATM   36  C26 UNL     1       1.946  62.105  73.666  1.00  0.00     0.001 A 
HETATM   37  C27 UNL     1       1.447  62.922  72.681  1.00  0.00     0.007 A 
ENDBRANCH  31  32
ENDBRANCH  30  31
ENDBRANCH  28  30
ENDBRANCH  23  26
ENDBRANCH   1  23
TORSDOF 13
ENDMDL
MODEL 4
REMARK VINA RESULT: -9.396805771      1.676      3.365
REMARK  13 active torsions:
REMARK  status: ('A' for Active; 'I' for Inactive)
REMARK    1  A    between atoms: C2_2  and  C3_3 
REMARK    2  A    between atoms: C2_2  and  C11_11 
REMARK    3  A    between atoms: C3_3  and  C4_4 
REMARK    4  A    between atoms: C4_4  and  C5_5 
REMARK    5  A    between atoms: C11_11  and  N1_12 
REMARK    6  A    between atoms: C11_11  and  C16_23 
REMARK    7  A    between atoms: N1_12  and  C12_14 
REMARK    8  A    between atoms: C12_14  and  C13_15 
REMARK    9  A    between atoms: C13_15  and  C14_16 
REMARK       I    between atoms: C14_16  and  N2_18 
REMARK   10  A    between atoms: C16_23  and  C19_26 
REMARK       I    between atoms: C19_26  and  N5_28 
REMARK   11  A    between atoms: N5_28  and  C20_30 
REMARK   12  A    between atoms: C20_30  and  C21_31 
REMARK   13  A    between atoms: C21_31  and  C22_32 
ROOT
HETATM    1  C11 UNL     1       1.260  67.653  66.491  1.00  0.00     0.028 C 
ENDROOT
BRANCH   1   2
HETATM    2  C2  UNL     1       2.660  67.607  66.921  1.00  0.00    -0.044 C 
HETATM    3  C1  UNL     1       3.441  68.557  66.430  1.00  0.00     0.021 C 
BRANCH   2   4
HETATM    4  C3  UNL     1       3.297  66.642  67.799  1.00  0.00     0.044 C 
BRANCH   4   5
HETATM    5  C4  UNL     1       4.592  66.123  67.220  1.00  0.00     0.043 C 
BRANCH   5   6
HETATM    6  C5  UNL     1       4.345  65.235  66.053  1.00  0.00    -0.058 A 
HETATM    7  C6  UNL     1       4.908  65.543  64.840  1.00  0.00     0.007 A 
HETATM    8  C7  UNL     1       4.702  64.744  63.720  1.00  0.00     0.001 A 
HETATM    9  C8  UNL     1       3.910  63.618  63.850  1.00  0.00     0.000 A 
HETATM   10  C9  UNL     1       3.346  63.304  65.056  1.00  0.00     0.001 A 
HETATM   11  C10 UNL     1       3.565  64.116  66.155  1.00  0.00     0.007 A 
ENDBRANCH   5   6
ENDBRANCH   4   5
ENDBRANCH   2   4
ENDBRANCH   1   2
BRANCH   1  12
HETATM   12  N1  UNL     1       0.955  66.617  65.594  1.00  0.00    -0.391 N 
ATOM     13  H1  UNL     1       0.335  65.870  65.906  1.00  0.00     0.159 HD
BRANCH  12  14
HETATM   14  C12 UNL     1       1.462  66.562  64.296  1.00  0.00     0.129 C 
BRANCH  14  15
HETATM   15  C13 UNL     1       1.298  67.992  63.713  1.00  0.00     0.122 C 
BRANCH  15  16
HETATM   16  C14 UNL     1      -0.024  68.126  63.077  1.00  0.00     0.225 C 
HETATM   17  O1  UNL     1      -1.050  68.126  63.802  1.00  0.00    -0.273 OA
HETATM   18  N2  UNL     1      -0.150  68.251  61.695  1.00  0.00    -0.304 N 
HETATM   19  C15 UNL     1       0.735  68.268  60.790  1.00  0.00     0.203 C 
ATOM     20  H2  UNL     1      -1.109  68.344  61.359  1.00  0.00     0.171 HD
HETATM   21  N3  UNL     1       0.313  68.411  59.421  1.00  0.00    -0.066 NA
HETATM   22  N4  UNL     1       2.128  68.155  61.004  1.00  0.00    -0.066 NA
ENDBRANCH  15  16
ENDBRANCH  14  15
ENDBRANCH  12  14
ENDBRANCH   1  12
BRANCH   1  23
HETATM   23  C16 UNL     1       0.233  67.982  67.538  1.00  0.00     0.076 C 
HETATM   24  C17 UNL     1       1.008  68.784  68.606  1.00  0.00     0.032 C 
HETATM   25  C18 UNL     1      -0.878  68.872  67.104  1.00  0.00     0.032 C 
BRANCH  23  26
HETATM   26  C19 UNL     1      -0.246  66.776  68.261  1.00  0.00     0.231 C 
HETATM   27  O2  UNL     1      -1.148  66.071  67.763  1.00  0.00    -0.272 OA
HETATM   28  N5  UNL     1       0.249  66.333  69.517  1.00  0.00    -0.360 N 
ATOM     29  H5  UNL     1       0.986  66.890  69.949  1.00  0.00     0.162 HD
BRANCH  28  30
HETATM   30  C20 UNL     1      -0.192  65.190  70.220  1.00  0.00     0.127 C 
BRANCH  30  31
HETATM   31  C21 UNL     1       0.767  64.535  71.147  1.00  0.00     0.058 C 
BRANCH  31  32
HETATM   32  C22 UNL     1       1.759  63.644  70.524  1.00  0.00    -0.057 A 
HETATM   33  C23 UNL     1       1.397  62.356  70.219  1.00  0.00     0.007 A 
HETATM   34  C24 UNL     1       2.284  61.445  69.630  1.00  0.00     0.001 A 
HETATM   35  C25 UNL     1       3.551  61.874  69.356  1.00  0.00     0.000 A 
HETATM   36  C26 UNL     1       3.918  63.163  69.659  1.00  0.00     0.001 A 
HETATM   37  C27 UNL     1       3.042  64.049  70.237  1.00  0.00     0.007 A 
ENDBRANCH  31  32
ENDBRANCH  30  31
ENDBRANCH  28  30
ENDBRANCH  23  26
ENDBRANCH   1  23
TORSDOF 13
ENDMDL
MODEL 5
REMARK VINA RESULT: -9.329259309      2.225      4.759
REMARK  13 active torsions:
REMARK  status: ('A' for Active; 'I' for Inactive)
REMARK    1  A    between atoms: C2_2  and  C3_3 
REMARK    2  A    between atoms: C2_2  and  C11_11 
REMARK    3  A    between atoms: C3_3  and  C4_4 
REMARK    4  A    between atoms: C4_4  and  C5_5 
REMARK    5  A    between atoms: C11_11  and  N1_12 
REMARK    6  A    between atoms: C11_11  and  C16_23 
REMARK    7  A    between atoms: N1_12  and  C12_14 
REMARK    8  A    between atoms: C12_14  and  C13_15 
REMARK    9  A    between atoms: C13_15  and  C14_16 
REMARK       I    between atoms: C14_16  and  N2_18 
REMARK   10  A    between atoms: C16_23  and  C19_26 
REMARK       I    between atoms: C19_26  and  N5_28 
REMARK   11  A    between atoms: N5_28  and  C20_30 
REMARK   12  A    between atoms: C20_30  and  C21_31 
REMARK   13  A    between atoms: C21_31  and  C22_32 
ROOT
HETATM    1  C11 UNL     1       2.819  66.332  66.088  1.00  0.00     0.028 C 
ENDROOT
BRANCH   1   2
HETATM    2  C2  UNL     1       2.969  67.644  66.724  1.00  0.00    -0.044 C 
HETATM    3  C1  UNL     1       3.619  68.554  66.015  1.00  0.00     0.021 C 
BRANCH   2   4
HETATM    4  C3  UNL     1       2.511  68.061  68.038  1.00  0.00     0.044 C 
BRANCH   4   5
HETATM    5  C4  UNL     1       1.279  68.932  67.953  1.00  0.00     0.043 C 
BRANCH   5   6
HETATM    6  C5  UNL     1       0.048  68.113  67.791  1.00  0.00    -0.058 A 
HETATM    7  C6  UNL     1      -0.971  68.577  66.998  1.00  0.00     0.007 A 
HETATM    8  C7  UNL     1      -2.141  67.847  66.820  1.00  0.00     0.001 A 
HETATM    9  C8  UNL     1      -2.264  66.628  67.462  1.00  0.00     0.000 A 
HETATM   10  C9  UNL     1      -1.251  66.159  68.254  1.00  0.00     0.001 A 
HETATM   11  C10 UNL     1      -0.097  66.904  68.416  1.00  0.00     0.007 A 
ENDBRANCH   5   6
ENDBRANCH   4   5
ENDBRANCH   2   4
ENDBRANCH   1   2
BRANCH   1  12
HETATM   12  N1  UNL     1       2.302  66.439  64.788  1.00  0.00    -0.391 N 
ATOM     13  H1  UNL     1       2.928  66.269  64.000  1.00  0.00     0.159 HD
BRANCH  12  14
HETATM   14  C12 UNL     1       0.973  66.767  64.522  1.00  0.00     0.129 C 
BRANCH  14  15
HETATM   15  C13 UNL     1       0.997  68.207  63.940  1.00  0.00     0.122 C 
BRANCH  15  16
HETATM   16  C14 UNL     1       0.359  68.222  62.613  1.00  0.00     0.225 C 
HETATM   17  O1  UNL     1      -0.895  68.235  62.541  1.00  0.00    -0.273 OA
HETATM   18  N2  UNL     1       1.121  68.221  61.446  1.00  0.00    -0.304 N 
HETATM   19  C15 UNL     1       2.378  68.202  61.289  1.00  0.00     0.203 C 
ATOM     20  H2  UNL     1       0.581  68.238  60.581  1.00  0.00     0.171 HD
HETATM   21  N3  UNL     1       2.900  68.207  59.948  1.00  0.00    -0.066 NA
HETATM   22  N4  UNL     1       3.333  68.175  62.331  1.00  0.00    -0.066 NA
ENDBRANCH  15  16
ENDBRANCH  14  15
ENDBRANCH  12  14
ENDBRANCH   1  12
BRANCH   1  23
HETATM   23  C16 UNL     1       3.918  65.332  66.313  1.00  0.00     0.076 C 
HETATM   24  C17 UNL     1       3.890  64.433  65.057  1.00  0.00     0.032 C 
HETATM   25  C18 UNL     1       5.299  65.884  66.374  1.00  0.00     0.032 C 
BRANCH  23  26
HETATM   26  C19 UNL     1       3.619  64.405  67.434  1.00  0.00     0.231 C 
HETATM   27  O2  UNL     1       3.234  63.243  67.192  1.00  0.00    -0.272 OA
HETATM   28  N5  UNL     1       3.736  64.733  68.812  1.00  0.00    -0.360 N 
ATOM     29  H5  UNL     1       4.048  65.676  69.041  1.00  0.00     0.162 HD
BRANCH  28  30
HETATM   30  C20 UNL     1       3.458  63.866  69.892  1.00  0.00     0.127 C 
BRANCH  30  31
HETATM   31  C21 UNL     1       4.580  63.065  70.444  1.00  0.00     0.058 C 
BRANCH  31  32
HETATM   32  C22 UNL     1       4.341  61.617  70.563  1.00  0.00    -0.057 A 
HETATM   33  C23 UNL     1       3.450  61.019  69.706  1.00  0.00     0.007 A 
HETATM   34  C24 UNL     1       3.163  59.649  69.758  1.00  0.00     0.001 A 
HETATM   35  C25 UNL     1       3.803  58.897  70.701  1.00  0.00     0.000 A 
HETATM   36  C26 UNL     1       4.696  59.491  71.560  1.00  0.00     0.001 A 
HETATM   37  C27 UNL     1       4.971  60.836  71.502  1.00  0.00     0.007 A 
ENDBRANCH  31  32
ENDBRANCH  30  31
ENDBRANCH  28  30
ENDBRANCH  23  26
ENDBRANCH   1  23
TORSDOF 13
ENDMDL
