MODEL 1
REMARK VINA RESULT: -9.473134451      0.000      0.000
REMARK  14 active torsions:
REMARK  status: ('A' for Active; 'I' for Inactive)
REMARK    1  A    between atoms: C2_2  and  N1_3 
REMARK    2  A    between atoms: N1_3  and  C4_5 
REMARK    3  A    between atoms: N1_3  and  C6_7 
REMARK    4  A    between atoms: C6_7  and  C7_8 
REMARK    5  A    between atoms: C6_7  and  C22_33 
REMARK       I    between atoms: C7_8  and  N2_10 
REMARK    6  A    between atoms: N2_10  and  C8_12 
REMARK    7  A    between atoms: C8_12  and  C9_13 
REMARK    8  A    between atoms: C8_12  and  C13_21 
REMARK    9  A    between atoms: C9_13  and  C10_14 
REMARK   10  A    between atoms: C10_14  and  C11_15 
REMARK   11  A    between atoms: C11_15  and  N3_16 
REMARK       I    between atoms: C13_21  and  N6_23 
REMARK   12  A    between atoms: N6_23  and  C14_25 
REMARK   13  A    between atoms: C14_25  and  C15_26 
REMARK   14  A    between atoms: C15_26  and  C16_27 
ROOT
HETATM    1  C8  UNL     1       3.463  64.501  69.057  1.00  0.00     0.080 C 
ENDROOT
BRANCH   1   2
HETATM    2  N2  UNL     1       3.255  63.417  69.957  1.00  0.00    -0.321 N 
HETATM    3  C7  UNL     1       2.679  62.165  69.817  1.00  0.00     0.277 C 
HETATM    4  O1  UNL     1       2.268  61.972  68.601  1.00  0.00    -0.266 OA
ATOM      5  H2  UNL     1       3.602  63.600  70.899  1.00  0.00     0.169 HD
BRANCH   3   6
HETATM    6  C6  UNL     1       2.471  61.068  70.793  1.00  0.00     0.188 C 
BRANCH   6   7
HETATM    7  N1  UNL     1       1.525  61.374  71.831  1.00  0.00    -0.039 N 
HETATM    8  C3  UNL     1       2.075  61.840  73.074  1.00  0.00     0.279 C 
BRANCH   7   9
HETATM    9  C2  UNL     1       0.658  60.281  72.222  1.00  0.00     0.239 C 
HETATM   10  C1  UNL     1       0.349  60.065  73.634  1.00  0.00     0.035 C 
ENDBRANCH   7   9
BRANCH   7  11
HETATM   11  C4  UNL     1       0.585  62.330  71.242  1.00  0.00     0.239 C 
HETATM   12  C5  UNL     1       0.250  63.498  72.114  1.00  0.00     0.035 C 
ENDBRANCH   7  11
ENDBRANCH   6   7
BRANCH   6  13
HETATM   13  C22 UNL     1       3.674  60.322  71.085  1.00  0.00     0.005 C 
HETATM   14  C23 UNL     1       4.880  60.970  71.675  1.00  0.00     0.021 C 
HETATM   15  C24 UNL     1       3.521  58.972  71.803  1.00  0.00     0.021 C 
HETATM   16  C25 UNL     1       4.256  59.811  69.738  1.00  0.00     0.021 C 
ENDBRANCH   6  13
ENDBRANCH   3   6
ENDBRANCH   1   2
BRANCH   1  17
HETATM   17  C9  UNL     1       4.908  64.878  68.756  1.00  0.00     0.064 C 
BRANCH  17  18
HETATM   18  C10 UNL     1       4.977  65.578  67.444  1.00  0.00     0.026 C 
BRANCH  18  19
HETATM   19  C11 UNL     1       3.993  64.940  66.462  1.00  0.00     0.122 C 
BRANCH  19  20
HETATM   20  N3  UNL     1       4.482  65.127  65.138  1.00  0.00    -0.367 N 
HETATM   21  C12 UNL     1       4.191  64.296  64.195  1.00  0.00     0.196 C 
HETATM   22  N4  UNL     1       3.369  63.177  64.487  1.00  0.00    -0.067 NA
HETATM   23  N5  UNL     1       4.701  64.523  62.890  1.00  0.00    -0.067 NA
ATOM     24  H3  UNL     1       5.072  65.932  64.930  1.00  0.00     0.161 HD
ENDBRANCH  19  20
ENDBRANCH  18  19
ENDBRANCH  17  18
ENDBRANCH   1  17
BRANCH   1  25
HETATM   25  C13 UNL     1       2.569  65.641  69.234  1.00  0.00     0.264 C 
HETATM   26  O2  UNL     1       2.999  66.577  69.948  1.00  0.00    -0.266 OA
HETATM   27  N6  UNL     1       1.280  65.781  68.677  1.00  0.00    -0.356 N 
ATOM     28  H6  UNL     1       0.916  65.031  68.088  1.00  0.00     0.162 HD
BRANCH  27  29
HETATM   29  C14 UNL     1       0.455  66.942  68.907  1.00  0.00     0.127 C 
BRANCH  29  30
HETATM   30  C15 UNL     1      -0.063  67.492  67.617  1.00  0.00     0.058 C 
BRANCH  30  31
HETATM   31  C16 UNL     1       1.054  67.743  66.644  1.00  0.00    -0.057 A 
HETATM   32  C17 UNL     1       0.863  67.342  65.342  1.00  0.00     0.007 A 
HETATM   33  C18 UNL     1       1.880  67.560  64.406  1.00  0.00     0.001 A 
HETATM   34  C19 UNL     1       3.054  68.163  64.776  1.00  0.00     0.000 A 
HETATM   35  C20 UNL     1       3.207  68.554  66.103  1.00  0.00     0.001 A 
HETATM   36  C21 UNL     1       2.222  68.348  67.035  1.00  0.00     0.007 A 
ENDBRANCH  30  31
ENDBRANCH  29  30
ENDBRANCH  27  29
ENDBRANCH   1  25
TORSDOF 14
ENDMDL
MODEL 2
REMARK VINA RESULT: -9.458018193      0.939      2.385
REMARK  14 active torsions:
REMARK  status: ('A' for Active; 'I' for Inactive)
REMARK    1  A    between atoms: C2_2  and  N1_3 
REMARK    2  A    between atoms: N1_3  and  C4_5 
REMARK    3  A    between atoms: N1_3  and  C6_7 
REMARK    4  A    between atoms: C6_7  and  C7_8 
REMARK    5  A    between atoms: C6_7  and  C22_33 
REMARK       I    between atoms: C7_8  and  N2_10 
REMARK    6  A    between atoms: N2_10  and  C8_12 
REMARK    7  A    between atoms: C8_12  and  C9_13 
REMARK    8  A    between atoms: C8_12  and  C13_21 
REMARK    9  A    between atoms: C9_13  and  C10_14 
REMARK   10  A    between atoms: C10_14  and  C11_15 
REMARK   11  A    between atoms: C11_15  and  N3_16 
REMARK       I    between atoms: C13_21  and  N6_23 
REMARK   12  A    between atoms: N6_23  and  C14_25 
REMARK   13  A    between atoms: C14_25  and  C15_26 
REMARK   14  A    between atoms: C15_26  and  C16_27 
ROOT
HETATM    1  C8  UNL     1       3.327  64.791  69.256  1.00  0.00     0.080 C 
ENDROOT
BRANCH   1   2
HETATM    2  N2  UNL     1       3.140  64.055  70.461  1.00  0.00    -0.321 N 
HETATM    3  C7  UNL     1       2.453  62.891  70.765  1.00  0.00     0.277 C 
HETATM    4  O1  UNL     1       1.889  62.391  69.708  1.00  0.00    -0.266 OA
ATOM      5  H2  UNL     1       3.608  64.471  71.266  1.00  0.00     0.169 HD
BRANCH   3   6
HETATM    6  C6  UNL     1       2.275  62.165  72.045  1.00  0.00     0.188 C 
BRANCH   6   7
HETATM    7  N1  UNL     1       2.991  60.920  72.122  1.00  0.00    -0.039 N 
HETATM    8  C3  UNL     1       2.535  59.870  71.253  1.00  0.00     0.279 C 
BRANCH   7   9
HETATM    9  C2  UNL     1       3.019  60.301  73.431  1.00  0.00     0.239 C 
HETATM   10  C1  UNL     1       2.817  58.859  73.560  1.00  0.00     0.035 C 
ENDBRANCH   7   9
BRANCH   7  11
HETATM   11  C4  UNL     1       4.399  61.258  71.900  1.00  0.00     0.239 C 
HETATM   12  C5  UNL     1       5.125  60.339  70.971  1.00  0.00     0.035 C 
ENDBRANCH   7  11
ENDBRANCH   6   7
BRANCH   6  13
HETATM   13  C22 UNL     1       0.945  62.287  72.596  1.00  0.00     0.005 C 
HETATM   14  C23 UNL     1      -0.133  61.305  72.284  1.00  0.00     0.021 C 
HETATM   15  C24 UNL     1       0.818  62.596  74.096  1.00  0.00     0.021 C 
HETATM   16  C25 UNL     1       0.313  63.589  72.030  1.00  0.00     0.021 C 
ENDBRANCH   6  13
ENDBRANCH   3   6
ENDBRANCH   1   2
BRANCH   1  17
HETATM   17  C9  UNL     1       4.763  64.991  68.788  1.00  0.00     0.064 C 
BRANCH  17  18
HETATM   18  C10 UNL     1       4.763  65.578  67.420  1.00  0.00     0.026 C 
BRANCH  18  19
HETATM   19  C11 UNL     1       3.903  64.721  66.488  1.00  0.00     0.122 C 
BRANCH  19  20
HETATM   20  N3  UNL     1       4.305  64.963  65.143  1.00  0.00    -0.367 N 
HETATM   21  C12 UNL     1       4.024  64.128  64.202  1.00  0.00     0.196 C 
HETATM   22  N4  UNL     1       3.302  62.948  64.516  1.00  0.00    -0.067 NA
HETATM   23  N5  UNL     1       4.445  64.411  62.876  1.00  0.00    -0.067 NA
ATOM     24  H3  UNL     1       4.824  65.812  64.920  1.00  0.00     0.161 HD
ENDBRANCH  19  20
ENDBRANCH  18  19
ENDBRANCH  17  18
ENDBRANCH   1  17
BRANCH   1  25
HETATM   25  C13 UNL     1       2.475  65.966  69.102  1.00  0.00     0.264 C 
HETATM   26  O2  UNL     1       2.818  66.987  69.745  1.00  0.00    -0.266 OA
HETATM   27  N6  UNL     1       1.314  66.053  68.304  1.00  0.00    -0.356 N 
ATOM     28  H6  UNL     1       1.024  65.234  67.770  1.00  0.00     0.162 HD
BRANCH  27  29
HETATM   29  C14 UNL     1       0.522  67.255  68.212  1.00  0.00     0.127 C 
BRANCH  29  30
HETATM   30  C15 UNL     1       0.131  67.529  66.795  1.00  0.00     0.058 C 
BRANCH  30  31
HETATM   31  C16 UNL     1       1.338  67.782  65.936  1.00  0.00    -0.057 A 
HETATM   32  C17 UNL     1       1.237  67.488  64.597  1.00  0.00     0.007 A 
HETATM   33  C18 UNL     1       2.339  67.712  63.765  1.00  0.00     0.001 A 
HETATM   34  C19 UNL     1       3.508  68.216  64.272  1.00  0.00     0.000 A 
HETATM   35  C20 UNL     1       3.570  68.501  65.633  1.00  0.00     0.001 A 
HETATM   36  C21 UNL     1       2.499  68.288  66.465  1.00  0.00     0.007 A 
ENDBRANCH  30  31
ENDBRANCH  29  30
ENDBRANCH  27  29
ENDBRANCH   1  25
TORSDOF 14
ENDMDL
MODEL 3
REMARK VINA RESULT: -9.301196146      0.377      1.090
REMARK  14 active torsions:
REMARK  status: ('A' for Active; 'I' for Inactive)
REMARK    1  A    between atoms: C2_2  and  N1_3 
REMARK    2  A    between atoms: N1_3  and  C4_5 
REMARK    3  A    between atoms: N1_3  and  C6_7 
REMARK    4  A    between atoms: C6_7  and  C7_8 
REMARK    5  A    between atoms: C6_7  and  C22_33 
REMARK       I    between atoms: C7_8  and  N2_10 
REMARK    6  A    between atoms: N2_10  and  C8_12 
REMARK    7  A    between atoms: C8_12  and  C9_13 
REMARK    8  A    between atoms: C8_12  and  C13_21 
REMARK    9  A    between atoms: C9_13  and  C10_14 
REMARK   10  A    between atoms: C10_14  and  C11_15 
REMARK   11  A    between atoms: C11_15  and  N3_16 
REMARK       I    between atoms: C13_21  and  N6_23 
REMARK   12  A    between atoms: N6_23  and  C14_25 
REMARK   13  A    between atoms: C14_25  and  C15_26 
REMARK   14  A    between atoms: C15_26  and  C16_27 
ROOT
HETATM    1  C8  UNL     1       3.461  64.408  69.146  1.00  0.00     0.080 C 
ENDROOT
BRANCH   1   2
HETATM    2  N2  UNL     1       3.279  63.341  70.072  1.00  0.00    -0.321 N 
HETATM    3  C7  UNL     1       2.654  62.108  69.987  1.00  0.00     0.277 C 
HETATM    4  O1  UNL     1       2.155  61.915  68.804  1.00  0.00    -0.266 OA
ATOM      5  H2  UNL     1       3.695  63.523  70.985  1.00  0.00     0.169 HD
BRANCH   3   6
HETATM    6  C6  UNL     1       2.477  61.029  70.988  1.00  0.00     0.188 C 
BRANCH   6   7
HETATM    7  N1  UNL     1       1.485  61.311  71.991  1.00  0.00    -0.039 N 
HETATM    8  C3  UNL     1       0.503  62.302  71.650  1.00  0.00     0.279 C 
BRANCH   7   9
HETATM    9  C2  UNL     1       2.003  61.758  73.267  1.00  0.00     0.239 C 
HETATM   10  C1  UNL     1       1.367  62.877  73.960  1.00  0.00     0.035 C 
ENDBRANCH   7   9
BRANCH   7  11
HETATM   11  C4  UNL     1       0.883  60.018  72.327  1.00  0.00     0.239 C 
HETATM   12  C5  UNL     1      -0.438  60.105  73.022  1.00  0.00     0.035 C 
ENDBRANCH   7  11
ENDBRANCH   6   7
BRANCH   6  13
HETATM   13  C22 UNL     1       3.709  60.359  71.336  1.00  0.00     0.005 C 
HETATM   14  C23 UNL     1       4.821  61.064  72.036  1.00  0.00     0.021 C 
HETATM   15  C24 UNL     1       3.609  58.970  71.987  1.00  0.00     0.021 C 
HETATM   16  C25 UNL     1       4.419  59.952  70.015  1.00  0.00     0.021 C 
ENDBRANCH   6  13
ENDBRANCH   3   6
ENDBRANCH   1   2
BRANCH   1  17
HETATM   17  C9  UNL     1       4.896  64.775  68.792  1.00  0.00     0.064 C 
BRANCH  17  18
HETATM   18  C10 UNL     1       4.917  65.526  67.507  1.00  0.00     0.026 C 
BRANCH  18  19
HETATM   19  C11 UNL     1       3.956  64.874  66.510  1.00  0.00     0.122 C 
BRANCH  19  20
HETATM   20  N3  UNL     1       4.455  65.079  65.193  1.00  0.00    -0.367 N 
HETATM   21  C12 UNL     1       4.181  64.256  64.239  1.00  0.00     0.196 C 
HETATM   22  N4  UNL     1       3.368  63.126  64.511  1.00  0.00    -0.067 NA
HETATM   23  N5  UNL     1       4.700  64.501  62.941  1.00  0.00    -0.067 NA
ATOM     24  H3  UNL     1       5.039  65.893  64.999  1.00  0.00     0.161 HD
ENDBRANCH  19  20
ENDBRANCH  18  19
ENDBRANCH  17  18
ENDBRANCH   1  17
BRANCH   1  25
HETATM   25  C13 UNL     1       2.575  65.553  69.329  1.00  0.00     0.264 C 
HETATM   26  O2  UNL     1       3.041  66.514  69.986  1.00  0.00    -0.266 OA
HETATM   27  N6  UNL     1       1.257  65.673  68.838  1.00  0.00    -0.356 N 
ATOM     28  H6  UNL     1       0.864  64.902  68.296  1.00  0.00     0.162 HD
BRANCH  27  29
HETATM   29  C14 UNL     1       0.444  66.840  69.071  1.00  0.00     0.127 C 
BRANCH  29  30
HETATM   30  C15 UNL     1      -0.105  67.373  67.785  1.00  0.00     0.058 C 
BRANCH  30  31
HETATM   31  C16 UNL     1       0.992  67.647  66.797  1.00  0.00    -0.057 A 
HETATM   32  C17 UNL     1       0.812  67.200  65.509  1.00  0.00     0.007 A 
HETATM   33  C18 UNL     1       1.812  67.437  64.559  1.00  0.00     0.001 A 
HETATM   34  C19 UNL     1       2.959  68.105  64.902  1.00  0.00     0.000 A 
HETATM   35  C20 UNL     1       3.102  68.541  66.216  1.00  0.00     0.001 A 
HETATM   36  C21 UNL     1       2.133  68.317  67.161  1.00  0.00     0.007 A 
ENDBRANCH  30  31
ENDBRANCH  29  30
ENDBRANCH  27  29
ENDBRANCH   1  25
TORSDOF 14
ENDMDL
MODEL 4
REMARK VINA RESULT: -9.271649791      0.970      2.620
REMARK  14 active torsions:
REMARK  status: ('A' for Active; 'I' for Inactive)
REMARK    1  A    between atoms: C2_2  and  N1_3 
REMARK    2  A    between atoms: N1_3  and  C4_5 
REMARK    3  A    between atoms: N1_3  and  C6_7 
REMARK    4  A    between atoms: C6_7  and  C7_8 
REMARK    5  A    between atoms: C6_7  and  C22_33 
REMARK       I    between atoms: C7_8  and  N2_10 
REMARK    6  A    between atoms: N2_10  and  C8_12 
REMARK    7  A    between atoms: C8_12  and  C9_13 
REMARK    8  A    between atoms: C8_12  and  C13_21 
REMARK    9  A    between atoms: C9_13  and  C10_14 
REMARK   10  A    between atoms: C10_14  and  C11_15 
REMARK   11  A    between atoms: C11_15  and  N3_16 
REMARK       I    between atoms: C13_21  and  N6_23 
REMARK   12  A    between atoms: N6_23  and  C14_25 
REMARK   13  A    between atoms: C14_25  and  C15_26 
REMARK   14  A    between atoms: C15_26  and  C16_27 
ROOT
HETATM    1  C8  UNL     1       3.214  64.821  69.263  1.00  0.00     0.080 C 
ENDROOT
BRANCH   1   2
HETATM    2  N2  UNL     1       2.967  64.120  70.478  1.00  0.00    -0.321 N 
HETATM    3  C7  UNL     1       2.102  63.095  70.823  1.00  0.00     0.277 C 
HETATM    4  O1  UNL     1       1.398  62.713  69.802  1.00  0.00    -0.266 OA
ATOM      5  H2  UNL     1       3.548  64.438  71.254  1.00  0.00     0.169 HD
BRANCH   3   6
HETATM    6  C6  UNL     1       1.870  62.401  72.113  1.00  0.00     0.188 C 
BRANCH   6   7
HETATM    7  N1  UNL     1       2.509  61.117  72.215  1.00  0.00    -0.039 N 
HETATM    8  C3  UNL     1       3.074  60.789  73.495  1.00  0.00     0.279 C 
BRANCH   7   9
HETATM    9  C2  UNL     1       3.595  60.889  71.286  1.00  0.00     0.239 C 
HETATM   10  C1  UNL     1       4.976  60.879  71.766  1.00  0.00     0.035 C 
ENDBRANCH   7   9
BRANCH   7  11
HETATM   11  C4  UNL     1       1.507  60.140  71.780  1.00  0.00     0.239 C 
HETATM   12  C5  UNL     1       1.375  58.941  72.663  1.00  0.00     0.035 C 
ENDBRANCH   7  11
ENDBRANCH   6   7
BRANCH   6  13
HETATM   13  C22 UNL     1       0.546  62.613  72.651  1.00  0.00     0.005 C 
HETATM   14  C23 UNL     1      -0.652  61.922  72.094  1.00  0.00     0.021 C 
HETATM   15  C24 UNL     1       0.381  62.585  74.178  1.00  0.00     0.021 C 
HETATM   16  C25 UNL     1       0.161  64.097  72.397  1.00  0.00     0.021 C 
ENDBRANCH   6  13
ENDBRANCH   3   6
ENDBRANCH   1   2
BRANCH   1  17
HETATM   17  C9  UNL     1       4.668  64.956  68.829  1.00  0.00     0.064 C 
BRANCH  17  18
HETATM   18  C10 UNL     1       4.728  65.546  67.464  1.00  0.00     0.026 C 
BRANCH  18  19
HETATM   19  C11 UNL     1       3.829  64.752  66.515  1.00  0.00     0.122 C 
BRANCH  19  20
HETATM   20  N3  UNL     1       4.260  64.981  65.177  1.00  0.00    -0.367 N 
HETATM   21  C12 UNL     1       4.007  64.133  64.240  1.00  0.00     0.196 C 
HETATM   22  N4  UNL     1       3.286  62.951  64.550  1.00  0.00    -0.067 NA
HETATM   23  N5  UNL     1       4.456  64.403  62.921  1.00  0.00    -0.067 NA
ATOM     24  H3  UNL     1       4.778  65.831  64.957  1.00  0.00     0.161 HD
ENDBRANCH  19  20
ENDBRANCH  18  19
ENDBRANCH  17  18
ENDBRANCH   1  17
BRANCH   1  25
HETATM   25  C13 UNL     1       2.412  66.023  69.061  1.00  0.00     0.264 C 
HETATM   26  O2  UNL     1       2.784  67.048  69.682  1.00  0.00    -0.266 OA
HETATM   27  N6  UNL     1       1.270  66.134  68.239  1.00  0.00    -0.356 N 
ATOM     28  H6  UNL     1       0.957  65.312  67.722  1.00  0.00     0.162 HD
BRANCH  27  29
HETATM   29  C14 UNL     1       0.528  67.363  68.100  1.00  0.00     0.127 C 
BRANCH  29  30
HETATM   30  C15 UNL     1       0.115  67.578  66.678  1.00  0.00     0.058 C 
BRANCH  30  31
HETATM   31  C16 UNL     1       1.308  67.801  65.793  1.00  0.00    -0.057 A 
HETATM   32  C17 UNL     1       2.450  68.294  66.379  1.00  0.00     0.007 A 
HETATM   33  C18 UNL     1       3.583  68.513  65.588  1.00  0.00     0.001 A 
HETATM   34  C19 UNL     1       3.561  68.243  64.244  1.00  0.00     0.000 A 
HETATM   35  C20 UNL     1       2.385  67.745  63.689  1.00  0.00     0.001 A 
HETATM   36  C21 UNL     1       1.265  67.524  64.449  1.00  0.00     0.007 A 
ENDBRANCH  30  31
ENDBRANCH  29  30
ENDBRANCH  27  29
ENDBRANCH   1  25
TORSDOF 14
ENDMDL
MODEL 5
REMARK VINA RESULT: -9.178533754      1.589      3.309
REMARK  14 active torsions:
REMARK  status: ('A' for Active; 'I' for Inactive)
REMARK    1  A    between atoms: C2_2  and  N1_3 
REMARK    2  A    between atoms: N1_3  and  C4_5 
REMARK    3  A    between atoms: N1_3  and  C6_7 
REMARK    4  A    between atoms: C6_7  and  C7_8 
REMARK    5  A    between atoms: C6_7  and  C22_33 
REMARK       I    between atoms: C7_8  and  N2_10 
REMARK    6  A    between atoms: N2_10  and  C8_12 
REMARK    7  A    between atoms: C8_12  and  C9_13 
REMARK    8  A    between atoms: C8_12  and  C13_21 
REMARK    9  A    between atoms: C9_13  and  C10_14 
REMARK   10  A    between atoms: C10_14  and  C11_15 
REMARK   11  A    between atoms: C11_15  and  N3_16 
REMARK       I    between atoms: C13_21  and  N6_23 
REMARK   12  A    between atoms: N6_23  and  C14_25 
REMARK   13  A    between atoms: C14_25  and  C15_26 
REMARK   14  A    between atoms: C15_26  and  C16_27 
ROOT
HETATM    1  C8  UNL     1       3.170  64.829  69.726  1.00  0.00     0.080 C 
ENDROOT
BRANCH   1   2
HETATM    2  N2  UNL     1       3.122  63.596  70.437  1.00  0.00    -0.321 N 
HETATM    3  C7  UNL     1       2.647  62.335  70.118  1.00  0.00     0.277 C 
HETATM    4  O1  UNL     1       2.167  62.306  68.912  1.00  0.00    -0.266 OA
ATOM      5  H2  UNL     1       3.519  63.654  71.375  1.00  0.00     0.169 HD
BRANCH   3   6
HETATM    6  C6  UNL     1       2.606  61.076  70.901  1.00  0.00     0.188 C 
BRANCH   6   7
HETATM    7  N1  UNL     1       1.701  61.106  72.018  1.00  0.00    -0.039 N 
HETATM    8  C3  UNL     1       2.249  61.556  73.268  1.00  0.00     0.279 C 
BRANCH   7   9
HETATM    9  C2  UNL     1       1.080  59.840  72.347  1.00  0.00     0.239 C 
HETATM   10  C1  UNL     1       0.825  59.494  73.744  1.00  0.00     0.035 C 
ENDBRANCH   7   9
BRANCH   7  11
HETATM   11  C4  UNL     1       0.561  61.916  71.583  1.00  0.00     0.239 C 
HETATM   12  C5  UNL     1       0.124  62.960  72.560  1.00  0.00     0.035 C 
ENDBRANCH   7  11
ENDBRANCH   6   7
BRANCH   6  13
HETATM   13  C22 UNL     1       3.890  60.423  71.008  1.00  0.00     0.005 C 
HETATM   14  C23 UNL     1       5.116  61.156  71.434  1.00  0.00     0.021 C 
HETATM   15  C24 UNL     1       3.942  59.060  71.717  1.00  0.00     0.021 C 
HETATM   16  C25 UNL     1       4.312  59.967  69.584  1.00  0.00     0.021 C 
ENDBRANCH   6  13
ENDBRANCH   3   6
ENDBRANCH   1   2
BRANCH   1  17
HETATM   17  C9  UNL     1       1.921  65.700  69.773  1.00  0.00     0.064 C 
BRANCH  17  18
HETATM   18  C10 UNL     1       2.279  67.104  69.432  1.00  0.00     0.026 C 
BRANCH  18  19
HETATM   19  C11 UNL     1       1.532  67.538  68.169  1.00  0.00     0.122 C 
BRANCH  19  20
HETATM   20  N3  UNL     1       0.137  67.336  68.370  1.00  0.00    -0.367 N 
HETATM   21  C12 UNL     1      -0.600  66.807  67.454  1.00  0.00     0.196 C 
HETATM   22  N4  UNL     1      -0.006  66.421  66.224  1.00  0.00    -0.067 NA
HETATM   23  N5  UNL     1      -1.986  66.625  67.698  1.00  0.00    -0.067 NA
ATOM     24  H3  UNL     1      -0.287  67.614  69.255  1.00  0.00     0.161 HD
ENDBRANCH  19  20
ENDBRANCH  18  19
ENDBRANCH  17  18
ENDBRANCH   1  17
BRANCH   1  25
HETATM   25  C13 UNL     1       3.814  64.772  68.418  1.00  0.00     0.264 C 
HETATM   26  O2  UNL     1       5.054  64.953  68.403  1.00  0.00    -0.266 OA
HETATM   27  N6  UNL     1       3.171  64.532  67.184  1.00  0.00    -0.356 N 
ATOM     28  H6  UNL     1       2.163  64.377  67.179  1.00  0.00     0.162 HD
BRANCH  27  29
HETATM   29  C14 UNL     1       3.883  64.499  65.930  1.00  0.00     0.127 C 
BRANCH  29  30
HETATM   30  C15 UNL     1       3.084  65.149  64.846  1.00  0.00     0.058 C 
BRANCH  30  31
HETATM   31  C16 UNL     1       3.775  66.376  64.323  1.00  0.00    -0.057 A 
HETATM   32  C17 UNL     1       3.791  67.489  65.131  1.00  0.00     0.007 A 
HETATM   33  C18 UNL     1       4.426  68.651  64.679  1.00  0.00     0.001 A 
HETATM   34  C19 UNL     1       5.026  68.686  63.446  1.00  0.00     0.000 A 
HETATM   35  C20 UNL     1       4.987  67.539  62.659  1.00  0.00     0.001 A 
HETATM   36  C21 UNL     1       4.369  66.391  63.085  1.00  0.00     0.007 A 
ENDBRANCH  30  31
ENDBRANCH  29  30
ENDBRANCH  27  29
ENDBRANCH   1  25
TORSDOF 14
ENDMDL
