MODEL 1
REMARK VINA RESULT: -9.770008721      0.000      0.000
REMARK  17 active torsions:
REMARK  status: ('A' for Active; 'I' for Inactive)
REMARK    1  A    between atoms: C2_2  and  C3_3 
REMARK    2  A    between atoms: C3_3  and  C4_4 
REMARK    3  A    between atoms: C4_4  and  C5_5 
REMARK    4  A    between atoms: C7_7  and  C8_8 
REMARK    5  A    between atoms: C8_8  and  C9_9 
REMARK    6  A    between atoms: C9_9  and  C10_10 
REMARK    7  A    between atoms: C12_12  and  C13_13 
REMARK    8  A    between atoms: C13_13  and  C14_14 
REMARK    9  A    between atoms: C17_17  and  C18_18 
REMARK   10  A    between atoms: C18_18  and  C19_19 
REMARK   11  A    between atoms: C19_19  and  N1_20 
REMARK       I    between atoms: N1_20  and  C20_22 
REMARK   12  A    between atoms: N3_24  and  C21_26 
REMARK   13  A    between atoms: C21_26  and  C22_27 
REMARK   14  A    between atoms: C22_27  and  N4_28 
REMARK   15  A    between atoms: N4_28  and  N5_29 
REMARK   16  A    between atoms: N4_28  and  C23_32 
REMARK   17  A    between atoms: C23_32  and  C24_33 
ROOT
HETATM    1  C18 UNL     1       4.399  66.051  68.401  1.00  0.00     0.077 C 
ENDROOT
BRANCH   1   2
HETATM    2  C17 UNL     1       3.016  66.111  68.905  1.00  0.00     0.019 A 
HETATM    3  C12 UNL     1       2.563  65.245  69.886  1.00  0.00    -0.029 A 
HETATM    4  C7  UNL     1       1.229  65.360  70.299  1.00  0.00    -0.048 A 
HETATM    5  C6  UNL     1       0.429  66.344  69.708  1.00  0.00     0.033 A 
HETATM    6  C5  UNL     1       0.885  67.195  68.745  1.00  0.00     0.012 A 
HETATM    7  N6  UNL     1       2.166  67.036  68.389  1.00  0.00    -0.357 N 
HETATM    8  C30 UNL     1       2.662  67.988  67.392  1.00  0.00     0.156 C 
BRANCH   3   9
HETATM    9  C13 UNL     1       3.445  64.296  70.566  1.00  0.00     0.045 C 
BRANCH   9  10
HETATM   10  C14 UNL     1       3.283  62.835  70.329  1.00  0.00    -0.018 C 
HETATM   11  C15 UNL     1       3.292  62.299  68.958  1.00  0.00     0.010 C 
HETATM   12  C16 UNL     1       4.561  62.129  70.977  1.00  0.00     0.010 C 
ENDBRANCH   9  10
ENDBRANCH   3   9
BRANCH   4  13
HETATM   13  C8  UNL     1       0.560  64.458  71.237  1.00  0.00     0.039 C 
BRANCH  13  14
HETATM   14  C9  UNL     1      -0.137  63.265  70.727  1.00  0.00     0.004 C 
BRANCH  14  15
HETATM   15  C10 UNL     1      -0.589  62.340  71.872  1.00  0.00    -0.004 C 
HETATM   16  C11 UNL     1       0.412  61.232  72.071  1.00  0.00     0.005 C 
ENDBRANCH  14  15
ENDBRANCH  13  14
ENDBRANCH   4  13
BRANCH   6  17
HETATM   17  C4  UNL     1      -0.022  68.228  68.140  1.00  0.00     0.061 C 
BRANCH  17  18
HETATM   18  C3  UNL     1      -1.078  67.585  67.283  1.00  0.00     0.032 C 
BRANCH  18  19
HETATM   19  C2  UNL     1      -1.957  68.551  66.617  1.00  0.00    -0.037 C 
HETATM   20  C1  UNL     1      -3.143  68.250  66.120  1.00  0.00     0.007 C 
ENDBRANCH  18  19
ENDBRANCH  17  18
ENDBRANCH   6  17
ENDBRANCH   1   2
BRANCH   1  21
HETATM   21  C19 UNL     1       4.692  65.233  67.208  1.00  0.00     0.128 C 
BRANCH  21  22
HETATM   22  N1  UNL     1       3.601  64.759  66.424  1.00  0.00    -0.364 N 
HETATM   23  C20 UNL     1       3.910  64.567  65.019  1.00  0.00     0.184 C 
HETATM   24  N2  UNL     1       3.914  63.306  64.392  1.00  0.00    -0.064 NA
HETATM   25  N3  UNL     1       4.192  65.607  64.316  1.00  0.00    -0.363 N 
ATOM     26  H3  UNL     1       4.176  66.498  64.811  1.00  0.00     0.162 HD
ATOM     27  H1  UNL     1       2.680  64.570  66.817  1.00  0.00     0.162 HD
BRANCH  25  28
HETATM   28  C21 UNL     1       4.524  65.668  62.935  1.00  0.00     0.138 C 
BRANCH  28  29
HETATM   29  C22 UNL     1       5.261  66.929  62.598  1.00  0.00     0.133 C 
BRANCH  29  30
HETATM   30  N4  UNL     1       4.566  68.134  62.898  1.00  0.00    -0.232 NA
BRANCH  30  31
HETATM   31  N5  UNL     1       5.433  69.205  63.123  1.00  0.00    -0.363 NA
ATOM     32  H52 UNL     1       6.088  68.920  63.852  1.00  0.00     0.171 HD
ATOM     33  H51 UNL     1       4.937  70.056  63.388  1.00  0.00     0.171 HD
ENDBRANCH  30  31
BRANCH  30  34
HETATM   34  C23 UNL     1       3.680  68.512  61.810  1.00  0.00     0.151 C 
BRANCH  34  35
HETATM   35  C24 UNL     1       2.270  68.555  62.309  1.00  0.00    -0.043 A 
HETATM   36  C25 UNL     1       1.935  68.307  63.618  1.00  0.00     0.008 A 
HETATM   37  C26 UNL     1       0.622  68.363  64.005  1.00  0.00     0.001 A 
HETATM   38  C27 UNL     1      -0.393  68.659  63.127  1.00  0.00     0.000 A 
HETATM   39  C28 UNL     1      -0.082  68.911  61.811  1.00  0.00     0.001 A 
HETATM   40  C29 UNL     1       1.230  68.855  61.425  1.00  0.00     0.008 A 
ENDBRANCH  34  35
ENDBRANCH  30  34
ENDBRANCH  29  30
ENDBRANCH  28  29
ENDBRANCH  25  28
ENDBRANCH  21  22
ENDBRANCH   1  21
TORSDOF 17
ENDMDL
MODEL 2
REMARK VINA RESULT: -9.613590251      3.148      9.303
REMARK  17 active torsions:
REMARK  status: ('A' for Active; 'I' for Inactive)
REMARK    1  A    between atoms: C2_2  and  C3_3 
REMARK    2  A    between atoms: C3_3  and  C4_4 
REMARK    3  A    between atoms: C4_4  and  C5_5 
REMARK    4  A    between atoms: C7_7  and  C8_8 
REMARK    5  A    between atoms: C8_8  and  C9_9 
REMARK    6  A    between atoms: C9_9  and  C10_10 
REMARK    7  A    between atoms: C12_12  and  C13_13 
REMARK    8  A    between atoms: C13_13  and  C14_14 
REMARK    9  A    between atoms: C17_17  and  C18_18 
REMARK   10  A    between atoms: C18_18  and  C19_19 
REMARK   11  A    between atoms: C19_19  and  N1_20 
REMARK       I    between atoms: N1_20  and  C20_22 
REMARK   12  A    between atoms: N3_24  and  C21_26 
REMARK   13  A    between atoms: C21_26  and  C22_27 
REMARK   14  A    between atoms: C22_27  and  N4_28 
REMARK   15  A    between atoms: N4_28  and  N5_29 
REMARK   16  A    between atoms: N4_28  and  C23_32 
REMARK   17  A    between atoms: C23_32  and  C24_33 
ROOT
HETATM    1  C18 UNL     1       4.891  65.449  68.331  1.00  0.00     0.077 C 
ENDROOT
BRANCH   1   2
HETATM    2  C17 UNL     1       4.169  66.532  67.641  1.00  0.00     0.019 A 
HETATM    3  C12 UNL     1       4.402  66.826  66.309  1.00  0.00    -0.029 A 
HETATM    4  C7  UNL     1       3.684  67.881  65.731  1.00  0.00    -0.048 A 
HETATM    5  C6  UNL     1       2.766  68.578  66.527  1.00  0.00     0.033 A 
HETATM    6  C5  UNL     1       2.540  68.279  67.837  1.00  0.00     0.012 A 
HETATM    7  N6  UNL     1       3.258  67.263  68.335  1.00  0.00    -0.357 N 
HETATM    8  C30 UNL     1       2.972  66.916  69.728  1.00  0.00     0.156 C 
BRANCH   3   9
HETATM    9  C13 UNL     1       5.286  66.018  65.468  1.00  0.00     0.045 C 
BRANCH   9  10
HETATM   10  C14 UNL     1       4.738  64.848  64.728  1.00  0.00    -0.018 C 
HETATM   11  C15 UNL     1       3.388  64.343  65.028  1.00  0.00     0.010 C 
HETATM   12  C16 UNL     1       4.598  65.304  63.203  1.00  0.00     0.010 C 
ENDBRANCH   9  10
ENDBRANCH   3   9
BRANCH   4  13
HETATM   13  C8  UNL     1       3.887  68.394  64.377  1.00  0.00     0.039 C 
BRANCH  13  14
HETATM   14  C9  UNL     1       5.155  69.061  64.035  1.00  0.00     0.004 C 
BRANCH  14  15
HETATM   15  C10 UNL     1       5.396  69.073  62.514  1.00  0.00    -0.004 C 
HETATM   16  C11 UNL     1       4.137  68.683  61.784  1.00  0.00     0.005 C 
ENDBRANCH  14  15
ENDBRANCH  13  14
ENDBRANCH   4  13
BRANCH   6  17
HETATM   17  C4  UNL     1       1.548  69.065  68.645  1.00  0.00     0.061 C 
BRANCH  17  18
HETATM   18  C3  UNL     1       0.157  68.913  68.091  1.00  0.00     0.032 C 
BRANCH  18  19
HETATM   19  C2  UNL     1      -0.322  67.528  68.089  1.00  0.00    -0.037 C 
HETATM   20  C1  UNL     1      -1.343  67.101  67.369  1.00  0.00     0.007 C 
ENDBRANCH  18  19
ENDBRANCH  17  18
ENDBRANCH   6  17
ENDBRANCH   1   2
BRANCH   1  21
HETATM   21  C19 UNL     1       4.127  64.489  69.152  1.00  0.00     0.128 C 
BRANCH  21  22
HETATM   22  N1  UNL     1       3.387  63.467  68.492  1.00  0.00    -0.364 N 
HETATM   23  C20 UNL     1       2.925  62.402  69.363  1.00  0.00     0.184 C 
HETATM   24  N2  UNL     1       1.564  62.154  69.628  1.00  0.00    -0.064 NA
HETATM   25  N3  UNL     1       3.809  61.649  69.916  1.00  0.00    -0.363 N 
ATOM     26  H3  UNL     1       4.780  61.864  69.695  1.00  0.00     0.162 HD
ATOM     27  H1  UNL     1       3.197  63.482  67.490  1.00  0.00     0.162 HD
BRANCH  25  28
HETATM   28  C21 UNL     1       3.599  60.554  70.799  1.00  0.00     0.138 C 
BRANCH  28  29
HETATM   29  C22 UNL     1       3.720  59.239  70.088  1.00  0.00     0.133 C 
BRANCH  29  30
HETATM   30  N4  UNL     1       3.186  58.122  70.789  1.00  0.00    -0.232 NA
BRANCH  30  31
HETATM   31  N5  UNL     1       3.825  56.928  70.449  1.00  0.00    -0.363 NA
ATOM     32  H52 UNL     1       3.376  56.571  69.605  1.00  0.00     0.171 HD
ATOM     33  H51 UNL     1       3.789  56.242  71.202  1.00  0.00     0.171 HD
ENDBRANCH  30  31
BRANCH  30  34
HETATM   34  C23 UNL     1       3.319  58.293  72.226  1.00  0.00     0.151 C 
BRANCH  34  35
HETATM   35  C24 UNL     1       1.993  58.058  72.879  1.00  0.00    -0.043 A 
HETATM   36  C25 UNL     1       1.134  59.079  73.210  1.00  0.00     0.008 A 
HETATM   37  C26 UNL     1      -0.064  58.791  73.807  1.00  0.00     0.001 A 
HETATM   38  C27 UNL     1      -0.453  57.505  74.096  1.00  0.00     0.000 A 
HETATM   39  C28 UNL     1       0.391  56.466  73.775  1.00  0.00     0.001 A 
HETATM   40  C29 UNL     1       1.587  56.755  73.178  1.00  0.00     0.008 A 
ENDBRANCH  34  35
ENDBRANCH  30  34
ENDBRANCH  29  30
ENDBRANCH  28  29
ENDBRANCH  25  28
ENDBRANCH  21  22
ENDBRANCH   1  21
TORSDOF 17
ENDMDL
MODEL 3
REMARK VINA RESULT: -9.591077672      1.210      4.222
REMARK  17 active torsions:
REMARK  status: ('A' for Active; 'I' for Inactive)
REMARK    1  A    between atoms: C2_2  and  C3_3 
REMARK    2  A    between atoms: C3_3  and  C4_4 
REMARK    3  A    between atoms: C4_4  and  C5_5 
REMARK    4  A    between atoms: C7_7  and  C8_8 
REMARK    5  A    between atoms: C8_8  and  C9_9 
REMARK    6  A    between atoms: C9_9  and  C10_10 
REMARK    7  A    between atoms: C12_12  and  C13_13 
REMARK    8  A    between atoms: C13_13  and  C14_14 
REMARK    9  A    between atoms: C17_17  and  C18_18 
REMARK   10  A    between atoms: C18_18  and  C19_19 
REMARK   11  A    between atoms: C19_19  and  N1_20 
REMARK       I    between atoms: N1_20  and  C20_22 
REMARK   12  A    between atoms: N3_24  and  C21_26 
REMARK   13  A    between atoms: C21_26  and  C22_27 
REMARK   14  A    between atoms: C22_27  and  N4_28 
REMARK   15  A    between atoms: N4_28  and  N5_29 
REMARK   16  A    between atoms: N4_28  and  C23_32 
REMARK   17  A    between atoms: C23_32  and  C24_33 
ROOT
HETATM    1  C18 UNL     1       3.482  67.041  68.923  1.00  0.00     0.077 C 
ENDROOT
BRANCH   1   2
HETATM    2  C17 UNL     1       3.026  65.832  69.630  1.00  0.00     0.019 A 
HETATM    3  C12 UNL     1       1.728  65.710  70.097  1.00  0.00    -0.029 A 
HETATM    4  C7  UNL     1       1.379  64.533  70.772  1.00  0.00    -0.048 A 
HETATM    5  C6  UNL     1       2.353  63.541  70.933  1.00  0.00     0.033 A 
HETATM    6  C5  UNL     1       3.628  63.667  70.466  1.00  0.00     0.012 A 
HETATM    7  N6  UNL     1       3.904  64.815  69.832  1.00  0.00    -0.357 N 
HETATM    8  C30 UNL     1       5.259  64.921  69.289  1.00  0.00     0.156 C 
BRANCH   3   9
HETATM    9  C13 UNL     1       0.697  66.712  69.825  1.00  0.00     0.045 C 
BRANCH   9  10
HETATM   10  C14 UNL     1       0.020  66.737  68.499  1.00  0.00    -0.018 C 
HETATM   11  C15 UNL     1      -1.427  66.484  68.399  1.00  0.00     0.010 C 
HETATM   12  C16 UNL     1       0.141  68.235  67.958  1.00  0.00     0.010 C 
ENDBRANCH   9  10
ENDBRANCH   3   9
BRANCH   4  13
HETATM   13  C8  UNL     1       0.092  64.289  71.424  1.00  0.00     0.039 C 
BRANCH  13  14
HETATM   14  C9  UNL     1       0.033  63.415  72.609  1.00  0.00     0.004 C 
BRANCH  14  15
HETATM   15  C10 UNL     1      -0.737  62.114  72.316  1.00  0.00    -0.004 C 
HETATM   16  C11 UNL     1       0.206  60.939  72.324  1.00  0.00     0.005 C 
ENDBRANCH  14  15
ENDBRANCH  13  14
ENDBRANCH   4  13
BRANCH   6  17
HETATM   17  C4  UNL     1       4.635  62.573  70.673  1.00  0.00     0.061 C 
BRANCH  17  18
HETATM   18  C3  UNL     1       3.965  61.294  71.096  1.00  0.00     0.032 C 
BRANCH  18  19
HETATM   19  C2  UNL     1       4.268  60.159  70.220  1.00  0.00    -0.037 C 
HETATM   20  C1  UNL     1       3.428  59.169  69.976  1.00  0.00     0.007 C 
ENDBRANCH  18  19
ENDBRANCH  17  18
ENDBRANCH   6  17
ENDBRANCH   1   2
BRANCH   1  21
HETATM   21  C19 UNL     1       3.570  67.018  67.450  1.00  0.00     0.128 C 
BRANCH  21  22
HETATM   22  N1  UNL     1       2.708  66.143  66.730  1.00  0.00    -0.364 N 
HETATM   23  C20 UNL     1       3.372  65.347  65.714  1.00  0.00     0.184 C 
HETATM   24  N2  UNL     1       3.482  63.945  65.779  1.00  0.00    -0.064 NA
HETATM   25  N3  UNL     1       3.882  65.960  64.705  1.00  0.00    -0.363 N 
ATOM     26  H3  UNL     1       3.776  66.974  64.699  1.00  0.00     0.162 HD
ATOM     27  H1  UNL     1       1.707  66.081  66.912  1.00  0.00     0.162 HD
BRANCH  25  28
HETATM   28  C21 UNL     1       4.574  65.400  63.596  1.00  0.00     0.138 C 
BRANCH  28  29
HETATM   29  C22 UNL     1       4.952  66.448  62.593  1.00  0.00     0.133 C 
BRANCH  29  30
HETATM   30  N4  UNL     1       4.838  67.791  63.049  1.00  0.00    -0.232 NA
BRANCH  30  31
HETATM   31  N5  UNL     1       6.082  68.375  63.293  1.00  0.00    -0.363 NA
ATOM     32  H52 UNL     1       5.950  69.386  63.296  1.00  0.00     0.171 HD
ATOM     33  H51 UNL     1       6.782  68.098  62.605  1.00  0.00     0.171 HD
ENDBRANCH  30  31
BRANCH  30  34
HETATM   34  C23 UNL     1       4.153  68.619  62.072  1.00  0.00     0.151 C 
BRANCH  34  35
HETATM   35  C24 UNL     1       2.681  68.593  62.342  1.00  0.00    -0.043 A 
HETATM   36  C25 UNL     1       2.158  68.428  63.603  1.00  0.00     0.008 A 
HETATM   37  C26 UNL     1       0.800  68.413  63.776  1.00  0.00     0.001 A 
HETATM   38  C27 UNL     1      -0.079  68.556  62.730  1.00  0.00     0.000 A 
HETATM   39  C28 UNL     1       0.421  68.722  61.458  1.00  0.00     0.001 A 
HETATM   40  C29 UNL     1       1.778  68.737  61.286  1.00  0.00     0.008 A 
ENDBRANCH  34  35
ENDBRANCH  30  34
ENDBRANCH  29  30
ENDBRANCH  28  29
ENDBRANCH  25  28
ENDBRANCH  21  22
ENDBRANCH   1  21
TORSDOF 17
ENDMDL
MODEL 4
REMARK VINA RESULT: -9.482475659      2.971      8.858
REMARK  17 active torsions:
REMARK  status: ('A' for Active; 'I' for Inactive)
REMARK    1  A    between atoms: C2_2  and  C3_3 
REMARK    2  A    between atoms: C3_3  and  C4_4 
REMARK    3  A    between atoms: C4_4  and  C5_5 
REMARK    4  A    between atoms: C7_7  and  C8_8 
REMARK    5  A    between atoms: C8_8  and  C9_9 
REMARK    6  A    between atoms: C9_9  and  C10_10 
REMARK    7  A    between atoms: C12_12  and  C13_13 
REMARK    8  A    between atoms: C13_13  and  C14_14 
REMARK    9  A    between atoms: C17_17  and  C18_18 
REMARK   10  A    between atoms: C18_18  and  C19_19 
REMARK   11  A    between atoms: C19_19  and  N1_20 
REMARK       I    between atoms: N1_20  and  C20_22 
REMARK   12  A    between atoms: N3_24  and  C21_26 
REMARK   13  A    between atoms: C21_26  and  C22_27 
REMARK   14  A    between atoms: C22_27  and  N4_28 
REMARK   15  A    between atoms: N4_28  and  N5_29 
REMARK   16  A    between atoms: N4_28  and  C23_32 
REMARK   17  A    between atoms: C23_32  and  C24_33 
ROOT
HETATM    1  C18 UNL     1       4.417  65.401  68.527  1.00  0.00     0.077 C 
ENDROOT
BRANCH   1   2
HETATM    2  C17 UNL     1       3.799  66.499  67.763  1.00  0.00     0.019 A 
HETATM    3  C12 UNL     1       4.156  66.762  66.452  1.00  0.00    -0.029 A 
HETATM    4  C7  UNL     1       3.531  67.833  65.801  1.00  0.00    -0.048 A 
HETATM    5  C6  UNL     1       2.576  68.576  66.505  1.00  0.00     0.033 A 
HETATM    6  C5  UNL     1       2.227  68.307  67.795  1.00  0.00     0.012 A 
HETATM    7  N6  UNL     1       2.860  67.274  68.365  1.00  0.00    -0.357 N 
HETATM    8  C30 UNL     1       2.442  66.960  69.733  1.00  0.00     0.156 C 
BRANCH   3   9
HETATM    9  C13 UNL     1       5.078  65.908  65.701  1.00  0.00     0.045 C 
BRANCH   9  10
HETATM   10  C14 UNL     1       4.546  64.784  64.883  1.00  0.00    -0.018 C 
HETATM   11  C15 UNL     1       3.134  64.381  65.001  1.00  0.00     0.010 C 
HETATM   12  C16 UNL     1       4.639  65.251  63.359  1.00  0.00     0.010 C 
ENDBRANCH   9  10
ENDBRANCH   3   9
BRANCH   4  13
HETATM   13  C8  UNL     1       3.869  68.316  64.462  1.00  0.00     0.039 C 
BRANCH  13  14
HETATM   14  C9  UNL     1       5.134  69.041  64.249  1.00  0.00     0.004 C 
BRANCH  14  15
HETATM   15  C10 UNL     1       5.533  69.058  62.762  1.00  0.00    -0.004 C 
HETATM   16  C11 UNL     1       4.352  68.691  61.902  1.00  0.00     0.005 C 
ENDBRANCH  14  15
ENDBRANCH  13  14
ENDBRANCH   4  13
BRANCH   6  17
HETATM   17  C4  UNL     1       1.199  69.143  68.503  1.00  0.00     0.061 C 
BRANCH  17  18
HETATM   18  C3  UNL     1      -0.150  69.011  67.850  1.00  0.00     0.032 C 
BRANCH  18  19
HETATM   19  C2  UNL     1      -0.650  67.634  67.815  1.00  0.00    -0.037 C 
HETATM   20  C1  UNL     1      -1.881  67.304  67.469  1.00  0.00     0.007 C 
ENDBRANCH  18  19
ENDBRANCH  17  18
ENDBRANCH   6  17
ENDBRANCH   1   2
BRANCH   1  21
HETATM   21  C19 UNL     1       3.763  64.078  68.535  1.00  0.00     0.128 C 
BRANCH  21  22
HETATM   22  N1  UNL     1       3.216  63.596  69.759  1.00  0.00    -0.364 N 
HETATM   23  C20 UNL     1       3.872  62.414  70.285  1.00  0.00     0.184 C 
HETATM   24  N2  UNL     1       4.598  62.403  71.493  1.00  0.00    -0.064 NA
HETATM   25  N3  UNL     1       3.780  61.322  69.611  1.00  0.00    -0.363 N 
ATOM     26  H3  UNL     1       3.244  61.376  68.746  1.00  0.00     0.162 HD
ATOM     27  H1  UNL     1       2.429  64.046  70.226  1.00  0.00     0.162 HD
BRANCH  25  28
HETATM   28  C21 UNL     1       4.332  60.050  69.923  1.00  0.00     0.138 C 
BRANCH  28  29
HETATM   29  C22 UNL     1       3.385  58.937  69.586  1.00  0.00     0.133 C 
BRANCH  29  30
HETATM   30  N4  UNL     1       3.029  58.095  70.677  1.00  0.00    -0.232 NA
BRANCH  30  31
HETATM   31  N5  UNL     1       3.787  56.923  70.711  1.00  0.00    -0.363 NA
ATOM     32  H52 UNL     1       3.134  56.139  70.745  1.00  0.00     0.171 HD
ATOM     33  H51 UNL     1       4.430  56.900  71.502  1.00  0.00     0.171 HD
ENDBRANCH  30  31
BRANCH  30  34
HETATM   34  C23 UNL     1       3.222  58.774  71.947  1.00  0.00     0.151 C 
BRANCH  34  35
HETATM   35  C24 UNL     1       1.889  59.114  72.536  1.00  0.00    -0.043 A 
HETATM   36  C25 UNL     1       1.197  58.258  73.359  1.00  0.00     0.008 A 
HETATM   37  C26 UNL     1      -0.019  58.635  73.862  1.00  0.00     0.001 A 
HETATM   38  C27 UNL     1      -0.591  59.852  73.574  1.00  0.00     0.000 A 
HETATM   39  C28 UNL     1       0.082  60.725  72.752  1.00  0.00     0.001 A 
HETATM   40  C29 UNL     1       1.298  60.348  72.250  1.00  0.00     0.008 A 
ENDBRANCH  34  35
ENDBRANCH  30  34
ENDBRANCH  29  30
ENDBRANCH  28  29
ENDBRANCH  25  28
ENDBRANCH  21  22
ENDBRANCH   1  21
TORSDOF 17
ENDMDL
MODEL 5
REMARK VINA RESULT: -9.255607413      3.108      9.077
REMARK  17 active torsions:
REMARK  status: ('A' for Active; 'I' for Inactive)
REMARK    1  A    between atoms: C2_2  and  C3_3 
REMARK    2  A    between atoms: C3_3  and  C4_4 
REMARK    3  A    between atoms: C4_4  and  C5_5 
REMARK    4  A    between atoms: C7_7  and  C8_8 
REMARK    5  A    between atoms: C8_8  and  C9_9 
REMARK    6  A    between atoms: C9_9  and  C10_10 
REMARK    7  A    between atoms: C12_12  and  C13_13 
REMARK    8  A    between atoms: C13_13  and  C14_14 
REMARK    9  A    between atoms: C17_17  and  C18_18 
REMARK   10  A    between atoms: C18_18  and  C19_19 
REMARK   11  A    between atoms: C19_19  and  N1_20 
REMARK       I    between atoms: N1_20  and  C20_22 
REMARK   12  A    between atoms: N3_24  and  C21_26 
REMARK   13  A    between atoms: C21_26  and  C22_27 
REMARK   14  A    between atoms: C22_27  and  N4_28 
REMARK   15  A    between atoms: N4_28  and  N5_29 
REMARK   16  A    between atoms: N4_28  and  C23_32 
REMARK   17  A    between atoms: C23_32  and  C24_33 
ROOT
HETATM    1  C18 UNL     1       4.472  65.846  68.496  1.00  0.00     0.077 C 
ENDROOT
BRANCH   1   2
HETATM    2  C17 UNL     1       3.366  66.361  67.671  1.00  0.00     0.019 A 
HETATM    3  C12 UNL     1       3.470  66.453  66.294  1.00  0.00    -0.029 A 
HETATM    4  C7  UNL     1       2.377  66.967  65.584  1.00  0.00    -0.048 A 
HETATM    5  C6  UNL     1       1.237  67.353  66.300  1.00  0.00     0.033 A 
HETATM    6  C5  UNL     1       1.142  67.256  67.656  1.00  0.00     0.012 A 
HETATM    7  N6  UNL     1       2.220  66.760  68.280  1.00  0.00    -0.357 N 
HETATM    8  C30 UNL     1       2.090  66.611  69.731  1.00  0.00     0.156 C 
BRANCH   3   9
HETATM    9  C13 UNL     1       4.627  65.945  65.557  1.00  0.00     0.045 C 
BRANCH   9  10
HETATM   10  C14 UNL     1       4.563  64.604  64.911  1.00  0.00    -0.018 C 
HETATM   11  C15 UNL     1       3.363  63.764  65.058  1.00  0.00     0.010 C 
HETATM   12  C16 UNL     1       4.605  64.861  63.335  1.00  0.00     0.010 C 
ENDBRANCH   9  10
ENDBRANCH   3   9
BRANCH   4  13
HETATM   13  C8  UNL     1       2.360  67.236  64.146  1.00  0.00     0.039 C 
BRANCH  13  14
HETATM   14  C9  UNL     1       2.726  68.574  63.653  1.00  0.00     0.004 C 
BRANCH  14  15
HETATM   15  C10 UNL     1       4.057  68.548  62.878  1.00  0.00    -0.004 C 
HETATM   16  C11 UNL     1       5.170  69.089  63.737  1.00  0.00     0.005 C 
ENDBRANCH  14  15
ENDBRANCH  13  14
ENDBRANCH   4  13
BRANCH   6  17
HETATM   17  C4  UNL     1      -0.103  67.692  68.373  1.00  0.00     0.061 C 
BRANCH  17  18
HETATM   18  C3  UNL     1      -1.186  66.654  68.258  1.00  0.00     0.032 C 
BRANCH  18  19
HETATM   19  C2  UNL     1      -2.337  67.098  67.467  1.00  0.00    -0.037 C 
HETATM   20  C1  UNL     1      -2.348  68.191  66.726  1.00  0.00     0.007 C 
ENDBRANCH  18  19
ENDBRANCH  17  18
ENDBRANCH   6  17
ENDBRANCH   1   2
BRANCH   1  21
HETATM   21  C19 UNL     1       4.405  64.461  69.001  1.00  0.00     0.128 C 
BRANCH  21  22
HETATM   22  N1  UNL     1       3.403  63.594  68.477  1.00  0.00    -0.364 N 
HETATM   23  C20 UNL     1       2.924  62.595  69.413  1.00  0.00     0.184 C 
HETATM   24  N2  UNL     1       1.606  62.566  69.909  1.00  0.00    -0.064 NA
HETATM   25  N3  UNL     1       3.751  61.691  69.806  1.00  0.00    -0.363 N 
ATOM     26  H3  UNL     1       4.693  61.749  69.421  1.00  0.00     0.162 HD
ATOM     27  H1  UNL     1       3.052  63.669  67.523  1.00  0.00     0.162 HD
BRANCH  25  28
HETATM   28  C21 UNL     1       3.514  60.619  70.711  1.00  0.00     0.138 C 
BRANCH  28  29
HETATM   29  C22 UNL     1       3.679  59.286  70.045  1.00  0.00     0.133 C 
BRANCH  29  30
HETATM   30  N4  UNL     1       3.171  58.177  70.779  1.00  0.00    -0.232 NA
BRANCH  30  31
HETATM   31  N5  UNL     1       3.825  56.986  70.459  1.00  0.00    -0.363 NA
ATOM     32  H52 UNL     1       3.130  56.239  70.487  1.00  0.00     0.171 HD
ATOM     33  H51 UNL     1       4.601  56.789  71.091  1.00  0.00     0.171 HD
ENDBRANCH  30  31
BRANCH  30  34
HETATM   34  C23 UNL     1       3.318  58.384  72.209  1.00  0.00     0.151 C 
BRANCH  34  35
HETATM   35  C24 UNL     1       2.002  58.152  72.883  1.00  0.00    -0.043 A 
HETATM   36  C25 UNL     1       1.144  59.173  73.215  1.00  0.00     0.008 A 
HETATM   37  C26 UNL     1      -0.045  58.886  73.832  1.00  0.00     0.001 A 
HETATM   38  C27 UNL     1      -0.425  57.602  74.140  1.00  0.00     0.000 A 
HETATM   39  C28 UNL     1       0.418  56.563  73.817  1.00  0.00     0.001 A 
HETATM   40  C29 UNL     1       1.605  56.850  73.201  1.00  0.00     0.008 A 
ENDBRANCH  34  35
ENDBRANCH  30  34
ENDBRANCH  29  30
ENDBRANCH  28  29
ENDBRANCH  25  28
ENDBRANCH  21  22
ENDBRANCH   1  21
TORSDOF 17
ENDMDL
