MODEL 1
REMARK VINA RESULT: -5.135280385      0.000      0.000
REMARK  2 active torsions:
REMARK  status: ('A' for Active; 'I' for Inactive)
REMARK    1  A    between atoms: N1_2  and  C2_4 
REMARK    2  A    between atoms: C3_8  and  C4_9 
ROOT
HETATM    1  C2  UNL     1      19.956  26.270  32.162  1.00  0.00     0.313 A 
HETATM    2  N2  UNL     1      18.854  25.396  31.735  1.00  0.00    -0.042 N 
ATOM      3  H21 UNL     1      17.983  25.520  31.219  1.00  0.00     0.280 HD
ATOM      4  H22 UNL     1      18.091  24.903  32.200  1.00  0.00     0.280 HD
HETATM    5  C3  UNL     1      20.258  25.086  31.386  1.00  0.00     0.268 A 
ENDROOT
BRANCH   5   6
HETATM    6  C4  UNL     1      20.462  25.070  29.908  1.00  0.00     0.183 C 
HETATM    7  C5  UNL     1      21.456  24.074  29.406  1.00  0.00     0.268 C 
HETATM    8  N3  UNL     1      22.033  24.746  28.228  1.00  0.00    -0.052 N 
HETATM    9  C6  UNL     1      21.152  25.874  28.068  1.00  0.00     0.400 C 
ATOM     10  H32 UNL     1      23.024  24.978  28.304  1.00  0.00     0.279 HD
ATOM     11  H31 UNL     1      22.137  24.157  27.401  1.00  0.00     0.279 HD
HETATM   12  O1  UNL     1      21.016  26.272  29.423  1.00  0.00    -0.355 OA
ENDBRANCH   5   6
BRANCH   1  13
HETATM   13  N1  UNL     1      20.180  26.271  33.579  1.00  0.00    -0.398 N 
HETATM   14  C1  UNL     1      19.197  26.955  34.371  1.00  0.00     0.142 C 
ATOM     15  H1  UNL     1      20.989  25.813  33.999  1.00  0.00     0.154 HD
ENDBRANCH   1  13
TORSDOF 2
ENDMDL
MODEL 2
REMARK VINA RESULT: -5.116869532      1.341      1.616
REMARK  2 active torsions:
REMARK  status: ('A' for Active; 'I' for Inactive)
REMARK    1  A    between atoms: N1_2  and  C2_4 
REMARK    2  A    between atoms: C3_8  and  C4_9 
ROOT
HETATM    1  C2  UNL     1      19.534  25.384  31.870  1.00  0.00     0.313 A 
HETATM    2  N2  UNL     1      20.891  24.958  32.241  1.00  0.00    -0.042 N 
ATOM      3  H21 UNL     1      21.381  24.066  32.316  1.00  0.00     0.280 HD
ATOM      4  H22 UNL     1      21.435  24.922  33.103  1.00  0.00     0.280 HD
HETATM    5  C3  UNL     1      20.666  25.956  31.171  1.00  0.00     0.268 A 
ENDROOT
BRANCH   5   6
HETATM    6  C4  UNL     1      21.183  25.474  29.858  1.00  0.00     0.183 C 
HETATM    7  C5  UNL     1      20.686  26.214  28.659  1.00  0.00     0.268 C 
HETATM    8  N3  UNL     1      20.643  25.172  27.618  1.00  0.00    -0.052 N 
HETATM    9  C6  UNL     1      21.334  24.083  28.260  1.00  0.00     0.400 C 
ATOM     10  H32 UNL     1      19.711  24.947  27.268  1.00  0.00     0.279 HD
ATOM     11  H31 UNL     1      21.020  25.449  26.711  1.00  0.00     0.279 HD
HETATM   12  O1  UNL     1      20.764  24.161  29.557  1.00  0.00    -0.355 OA
ENDBRANCH   5   6
BRANCH   1  13
HETATM   13  N1  UNL     1      18.866  26.143  32.887  1.00  0.00    -0.398 N 
HETATM   14  C1  UNL     1      19.710  26.729  33.892  1.00  0.00     0.142 C 
ATOM     15  H1  UNL     1      17.853  26.260  32.897  1.00  0.00     0.154 HD
ENDBRANCH   1  13
TORSDOF 2
ENDMDL
MODEL 3
REMARK VINA RESULT: -5.067551288      1.303      1.614
REMARK  2 active torsions:
REMARK  status: ('A' for Active; 'I' for Inactive)
REMARK    1  A    between atoms: N1_2  and  C2_4 
REMARK    2  A    between atoms: C3_8  and  C4_9 
ROOT
HETATM    1  C2  UNL     1      19.929  25.320  31.062  1.00  0.00     0.313 A 
HETATM    2  N2  UNL     1      20.991  26.288  30.752  1.00  0.00    -0.042 N 
ATOM      3  H21 UNL     1      22.007  26.255  30.665  1.00  0.00     0.280 HD
ATOM      4  H22 UNL     1      21.416  27.083  31.230  1.00  0.00     0.280 HD
HETATM    5  C3  UNL     1      19.842  26.092  29.840  1.00  0.00     0.268 A 
ENDROOT
BRANCH   5   6
HETATM    6  C4  UNL     1      20.286  25.612  28.499  1.00  0.00     0.183 C 
HETATM    7  C5  UNL     1      20.764  24.197  28.447  1.00  0.00     0.268 C 
HETATM    8  N3  UNL     1      21.798  24.234  27.399  1.00  0.00    -0.052 N 
HETATM    9  C6  UNL     1      21.604  25.546  26.836  1.00  0.00     0.400 C 
ATOM     10  H32 UNL     1      22.747  24.037  27.719  1.00  0.00     0.279 HD
ATOM     11  H31 UNL     1      21.763  23.466  26.729  1.00  0.00     0.279 HD
HETATM   12  O1  UNL     1      21.423  26.298  28.024  1.00  0.00    -0.355 OA
ENDBRANCH   5   6
BRANCH   1  13
HETATM   13  N1  UNL     1      19.126  25.681  32.193  1.00  0.00    -0.398 N 
HETATM   14  C1  UNL     1      19.804  26.381  33.249  1.00  0.00     0.142 C 
ATOM     15  H1  UNL     1      18.133  25.455  32.246  1.00  0.00     0.154 HD
ENDBRANCH   1  13
TORSDOF 2
ENDMDL
MODEL 4
REMARK VINA RESULT: -4.664964531      1.318      1.350
REMARK  2 active torsions:
REMARK  status: ('A' for Active; 'I' for Inactive)
REMARK    1  A    between atoms: N1_2  and  C2_4 
REMARK    2  A    between atoms: C3_8  and  C4_9 
ROOT
HETATM    1  C2  UNL     1      19.856  25.692  32.416  1.00  0.00     0.313 A 
HETATM    2  N2  UNL     1      20.781  24.550  32.400  1.00  0.00    -0.042 N 
ATOM      3  H21 UNL     1      20.689  23.534  32.441  1.00  0.00     0.280 HD
ATOM      4  H22 UNL     1      21.465  24.155  33.046  1.00  0.00     0.280 HD
HETATM    5  C3  UNL     1      20.803  25.569  31.327  1.00  0.00     0.268 A 
ENDROOT
BRANCH   5   6
HETATM    6  C4  UNL     1      20.493  24.969  29.997  1.00  0.00     0.183 C 
HETATM    7  C5  UNL     1      21.470  25.275  28.909  1.00  0.00     0.268 C 
HETATM    8  N3  UNL     1      20.625  25.307  27.702  1.00  0.00    -0.052 N 
HETATM    9  C6  UNL     1      19.377  24.785  28.200  1.00  0.00     0.400 C 
ATOM     10  H32 UNL     1      20.561  26.216  27.243  1.00  0.00     0.279 HD
ATOM     11  H31 UNL     1      21.007  24.818  26.893  1.00  0.00     0.279 HD
HETATM   12  O1  UNL     1      19.300  25.473  29.438  1.00  0.00    -0.355 OA
ENDBRANCH   5   6
BRANCH   1  13
HETATM   13  N1  UNL     1      20.105  26.625  33.476  1.00  0.00    -0.398 N 
HETATM   14  C1  UNL     1      18.972  26.967  34.291  1.00  0.00     0.142 C 
ATOM     15  H1  UNL     1      21.029  27.022  33.642  1.00  0.00     0.154 HD
ENDBRANCH   1  13
TORSDOF 2
ENDMDL
MODEL 5
REMARK VINA RESULT: -4.564477093      1.468      1.591
REMARK  2 active torsions:
REMARK  status: ('A' for Active; 'I' for Inactive)
REMARK    1  A    between atoms: N1_2  and  C2_4 
REMARK    2  A    between atoms: C3_8  and  C4_9 
ROOT
HETATM    1  C2  UNL     1      19.861  25.798  32.283  1.00  0.00     0.313 A 
HETATM    2  N2  UNL     1      20.794  24.739  31.874  1.00  0.00    -0.042 N 
ATOM      3  H21 UNL     1      20.709  23.770  31.566  1.00  0.00     0.280 HD
ATOM      4  H22 UNL     1      21.485  24.153  32.344  1.00  0.00     0.280 HD
HETATM    5  C3  UNL     1      20.801  26.063  31.214  1.00  0.00     0.268 A 
ENDROOT
BRANCH   5   6
HETATM    6  C4  UNL     1      20.487  25.951  29.760  1.00  0.00     0.183 C 
HETATM    7  C5  UNL     1      19.082  25.562  29.433  1.00  0.00     0.268 C 
HETATM    8  N3  UNL     1      19.233  24.785  28.190  1.00  0.00    -0.052 N 
HETATM    9  C6  UNL     1      20.609  25.038  27.847  1.00  0.00     0.400 C 
ATOM     10  H32 UNL     1      18.979  23.799  28.262  1.00  0.00     0.279 HD
ATOM     11  H31 UNL     1      18.557  25.003  27.458  1.00  0.00     0.279 HD
HETATM   12  O1  UNL     1      21.207  24.916  29.127  1.00  0.00    -0.355 OA
ENDBRANCH   5   6
BRANCH   1  13
HETATM   13  N1  UNL     1      20.109  26.315  33.597  1.00  0.00    -0.398 N 
HETATM   14  C1  UNL     1      19.018  27.017  34.213  1.00  0.00     0.142 C 
ATOM     15  H1  UNL     1      21.006  26.192  34.066  1.00  0.00     0.154 HD
ENDBRANCH   1  13
TORSDOF 2
ENDMDL
