MODEL 1
REMARK VINA RESULT: -5.093507913      0.000      0.000
REMARK  2 active torsions:
REMARK  status: ('A' for Active; 'I' for Inactive)
REMARK    1  A    between atoms: N3_4  and  N4_6 
REMARK    2  A    between atoms: C2_8  and  C3_9 
ROOT
HETATM    1  N4  UNL     1      19.697  25.486  30.264  1.00  0.00    -0.312 N 
ATOM      2  H4  UNL     1      19.365  24.522  30.244  1.00  0.00     0.185 HD
HETATM    3  C2  UNL     1      20.187  25.999  29.188  1.00  0.00     0.113 C 
ENDROOT
BRANCH   1   4
HETATM    4  N3  UNL     1      19.608  26.207  31.454  1.00  0.00    -0.277 N 
HETATM    5  C1  UNL     1      20.064  25.750  32.577  1.00  0.00     0.215 C 
HETATM    6  N1  UNL     1      19.972  26.488  33.787  1.00  0.00    -0.065 NA
HETATM    7  N2  UNL     1      20.670  24.465  32.561  1.00  0.00    -0.065 NA
ATOM      8  H3  UNL     1      19.169  27.127  31.440  1.00  0.00     0.189 HD
ENDBRANCH   1   4
BRANCH   3   9
HETATM    9  C3  UNL     1      20.297  25.269  27.915  1.00  0.00     0.227 C 
HETATM   10  C4  UNL     1      21.026  23.927  28.011  1.00  0.00     0.066 C 
HETATM   11  C5  UNL     1      22.247  24.778  27.733  1.00  0.00     0.235 C 
HETATM   12  N5  UNL     1      21.373  25.711  27.045  1.00  0.00    -0.066 N 
ATOM     13  H52 UNL     1      21.271  25.681  26.031  1.00  0.00     0.278 HD
ATOM     14  H51 UNL     1      21.615  26.699  26.974  1.00  0.00     0.278 HD
ENDBRANCH   3   9
TORSDOF 2
ENDMDL
MODEL 2
REMARK VINA RESULT: -4.840059394      1.203      1.695
REMARK  2 active torsions:
REMARK  status: ('A' for Active; 'I' for Inactive)
REMARK    1  A    between atoms: N3_4  and  N4_6 
REMARK    2  A    between atoms: C2_8  and  C3_9 
ROOT
HETATM    1  N4  UNL     1      21.031  24.422  31.078  1.00  0.00    -0.312 N 
ATOM      2  H4  UNL     1      20.563  23.517  31.036  1.00  0.00     0.185 HD
HETATM    3  C2  UNL     1      21.582  24.891  30.012  1.00  0.00     0.113 C 
ENDROOT
BRANCH   1   4
HETATM    4  N3  UNL     1      21.055  25.115  32.288  1.00  0.00    -0.277 N 
HETATM    5  C1  UNL     1      20.026  25.761  32.738  1.00  0.00     0.215 C 
HETATM    6  N1  UNL     1      20.055  26.466  33.971  1.00  0.00    -0.065 NA
HETATM    7  N2  UNL     1      18.847  25.744  31.946  1.00  0.00    -0.065 NA
ATOM      8  H3  UNL     1      21.913  25.113  32.839  1.00  0.00     0.189 HD
ENDBRANCH   1   4
BRANCH   3   9
HETATM    9  C3  UNL     1      21.576  24.188  28.718  1.00  0.00     0.227 C 
HETATM   10  C4  UNL     1      22.380  24.879  27.614  1.00  0.00     0.066 C 
HETATM   11  C5  UNL     1      21.063  25.576  27.345  1.00  0.00     0.235 C 
HETATM   12  N5  UNL     1      20.396  24.414  27.903  1.00  0.00    -0.066 N 
ATOM     13  H52 UNL     1      20.031  23.680  27.296  1.00  0.00     0.278 HD
ATOM     14  H51 UNL     1      19.473  24.495  28.329  1.00  0.00     0.278 HD
ENDBRANCH   3   9
TORSDOF 2
ENDMDL
MODEL 3
REMARK VINA RESULT: -4.827895279      1.490      4.969
REMARK  2 active torsions:
REMARK  status: ('A' for Active; 'I' for Inactive)
REMARK    1  A    between atoms: N3_4  and  N4_6 
REMARK    2  A    between atoms: C2_8  and  C3_9 
ROOT
HETATM    1  N4  UNL     1      20.455  25.285  29.058  1.00  0.00    -0.312 N 
ATOM      2  H4  UNL     1      19.577  24.784  28.925  1.00  0.00     0.185 HD
HETATM    3  C2  UNL     1      20.986  25.313  30.232  1.00  0.00     0.113 C 
ENDROOT
BRANCH   1   4
HETATM    4  N3  UNL     1      21.045  25.919  27.965  1.00  0.00    -0.277 N 
HETATM    5  C1  UNL     1      21.717  25.270  27.067  1.00  0.00     0.215 C 
HETATM    6  N1  UNL     1      22.315  25.919  25.954  1.00  0.00    -0.065 NA
HETATM    7  N2  UNL     1      21.839  23.864  27.232  1.00  0.00    -0.065 NA
ATOM      8  H3  UNL     1      20.943  26.929  27.868  1.00  0.00     0.189 HD
ENDBRANCH   1   4
BRANCH   3   9
HETATM    9  C3  UNL     1      20.392  24.657  31.409  1.00  0.00     0.227 C 
HETATM   10  C4  UNL     1      19.119  25.323  31.936  1.00  0.00     0.066 C 
HETATM   11  C5  UNL     1      20.101  26.125  32.764  1.00  0.00     0.235 C 
HETATM   12  N5  UNL     1      21.011  24.997  32.678  1.00  0.00    -0.066 N 
ATOM     13  H52 UNL     1      21.069  24.313  33.432  1.00  0.00     0.278 HD
ATOM     14  H51 UNL     1      22.020  25.132  32.748  1.00  0.00     0.278 HD
ENDBRANCH   3   9
TORSDOF 2
ENDMDL
MODEL 4
REMARK VINA RESULT: -4.726704150      0.955      1.023
REMARK  2 active torsions:
REMARK  status: ('A' for Active; 'I' for Inactive)
REMARK    1  A    between atoms: N3_4  and  N4_6 
REMARK    2  A    between atoms: C2_8  and  C3_9 
ROOT
HETATM    1  N4  UNL     1      19.024  25.430  30.302  1.00  0.00    -0.312 N 
ATOM      2  H4  UNL     1      18.276  25.874  29.768  1.00  0.00     0.185 HD
HETATM    3  C2  UNL     1      19.989  24.859  29.667  1.00  0.00     0.113 C 
ENDROOT
BRANCH   1   4
HETATM    4  N3  UNL     1      18.969  25.460  31.695  1.00  0.00    -0.277 N 
HETATM    5  C1  UNL     1      19.853  26.081  32.411  1.00  0.00     0.215 C 
HETATM    6  N1  UNL     1      19.793  26.109  33.829  1.00  0.00    -0.065 NA
HETATM    7  N2  UNL     1      20.901  26.746  31.720  1.00  0.00    -0.065 NA
ATOM      8  H3  UNL     1      18.207  24.975  32.168  1.00  0.00     0.189 HD
ENDBRANCH   1   4
BRANCH   3   9
HETATM    9  C3  UNL     1      20.080  24.809  28.199  1.00  0.00     0.227 C 
HETATM   10  C4  UNL     1      21.076  23.781  27.657  1.00  0.00     0.066 C 
HETATM   11  C5  UNL     1      22.049  24.936  27.769  1.00  0.00     0.235 C 
HETATM   12  N5  UNL     1      20.919  25.832  27.601  1.00  0.00    -0.066 N 
ATOM     13  H52 UNL     1      20.695  26.224  26.686  1.00  0.00     0.278 HD
ATOM     14  H51 UNL     1      20.942  26.778  27.981  1.00  0.00     0.278 HD
ENDBRANCH   3   9
TORSDOF 2
ENDMDL
MODEL 5
REMARK VINA RESULT: -4.593440699      1.622      4.910
REMARK  2 active torsions:
REMARK  status: ('A' for Active; 'I' for Inactive)
REMARK    1  A    between atoms: N3_4  and  N4_6 
REMARK    2  A    between atoms: C2_8  and  C3_9 
ROOT
HETATM    1  N4  UNL     1      20.994  24.252  29.530  1.00  0.00    -0.312 N 
ATOM      2  H4  UNL     1      20.101  23.776  29.398  1.00  0.00     0.185 HD
HETATM    3  C2  UNL     1      21.321  24.647  30.712  1.00  0.00     0.113 C 
ENDROOT
BRANCH   1   4
HETATM    4  N3  UNL     1      21.822  24.456  28.427  1.00  0.00    -0.277 N 
HETATM    5  C1  UNL     1      21.781  25.540  27.720  1.00  0.00     0.215 C 
HETATM    6  N1  UNL     1      22.626  25.744  26.597  1.00  0.00    -0.065 NA
HETATM    7  N2  UNL     1      20.846  26.537  28.108  1.00  0.00    -0.065 NA
ATOM      8  H3  UNL     1      22.484  23.725  28.168  1.00  0.00     0.189 HD
ENDBRANCH   1   4
BRANCH   3   9
HETATM    9  C3  UNL     1      20.472  24.450  31.900  1.00  0.00     0.227 C 
HETATM   10  C4  UNL     1      19.194  25.292  31.917  1.00  0.00     0.066 C 
HETATM   11  C5  UNL     1      20.086  26.301  32.608  1.00  0.00     0.235 C 
HETATM   12  N5  UNL     1      20.889  25.187  33.080  1.00  0.00    -0.066 N 
ATOM     13  H52 UNL     1      20.749  24.801  34.014  1.00  0.00     0.278 HD
ATOM     14  H51 UNL     1      21.878  25.310  33.298  1.00  0.00     0.278 HD
ENDBRANCH   3   9
TORSDOF 2
ENDMDL
