MODEL 1
REMARK VINA RESULT: -4.672007744      0.000      0.000
REMARK  3 active torsions:
REMARK  status: ('A' for Active; 'I' for Inactive)
REMARK    1  A    between atoms: N3_10  and  C5_11 
REMARK    2  A    between atoms: C5_11  and  C6_12 
REMARK    3  A    between atoms: C6_12  and  N4_13 
ROOT
HETATM    1  N1  UNL     1      18.229  25.554  29.554  1.00  0.00    -0.388 N 
ATOM      2  H11 UNL     1      17.708  25.114  30.314  1.00  0.00     0.157 HD
ATOM      3  H12 UNL     1      17.677  25.853  28.751  1.00  0.00     0.157 HD
HETATM    4  C1  UNL     1      19.491  25.757  29.524  1.00  0.00     0.090 C 
HETATM    5  C2  UNL     1      20.249  26.396  28.418  1.00  0.00     0.190 C 
HETATM    6  N2  UNL     1      21.277  25.506  28.008  1.00  0.00    -0.413 N 
ATOM      7  H2  UNL     1      21.500  25.376  27.021  1.00  0.00     0.153 HD
HETATM    8  C3  UNL     1      21.981  24.805  29.014  1.00  0.00     0.134 C 
HETATM    9  C4  UNL     1      21.686  25.148  30.431  1.00  0.00     0.143 C 
HETATM   10  N3  UNL     1      20.268  25.336  30.654  1.00  0.00    -0.367 N 
ENDROOT
BRANCH  10  11
HETATM   11  C5  UNL     1      19.608  25.137  31.908  1.00  0.00     0.151 C 
BRANCH  11  12
HETATM   12  C6  UNL     1      19.925  26.262  32.897  1.00  0.00     0.249 C 
BRANCH  12  13
HETATM   13  N4  UNL     1      18.665  26.647  33.531  1.00  0.00    -0.078 N 
ATOM     14  H43 UNL     1      17.885  26.690  32.875  1.00  0.00     0.274 HD
ATOM     15  H42 UNL     1      18.286  25.921  34.139  1.00  0.00     0.274 HD
ATOM     16  H41 UNL     1      18.829  27.529  34.015  1.00  0.00     0.274 HD
ENDBRANCH  12  13
ENDBRANCH  11  12
ENDBRANCH  10  11
TORSDOF 3
ENDMDL
MODEL 2
REMARK VINA RESULT: -4.641595815      1.432      1.519
REMARK  3 active torsions:
REMARK  status: ('A' for Active; 'I' for Inactive)
REMARK    1  A    between atoms: N3_10  and  C5_11 
REMARK    2  A    between atoms: C5_11  and  C6_12 
REMARK    3  A    between atoms: C6_12  and  N4_13 
ROOT
HETATM    1  N1  UNL     1      19.539  26.967  28.695  1.00  0.00    -0.388 N 
ATOM      2  H11 UNL     1      19.051  27.336  29.512  1.00  0.00     0.157 HD
ATOM      3  H12 UNL     1      19.204  27.295  27.790  1.00  0.00     0.157 HD
HETATM    4  C1  UNL     1      20.516  26.140  28.710  1.00  0.00     0.090 C 
HETATM    5  C2  UNL     1      21.225  25.602  27.521  1.00  0.00     0.190 C 
HETATM    6  N2  UNL     1      21.180  24.183  27.580  1.00  0.00    -0.413 N 
ATOM      7  H2  UNL     1      21.014  23.625  26.741  1.00  0.00     0.153 HD
HETATM    8  C3  UNL     1      21.375  23.570  28.838  1.00  0.00     0.134 C 
HETATM    9  C4  UNL     1      21.744  24.444  29.984  1.00  0.00     0.143 C 
HETATM   10  N3  UNL     1      20.986  25.678  29.983  1.00  0.00    -0.367 N 
ENDROOT
BRANCH  10  11
HETATM   11  C5  UNL     1      20.689  26.451  31.150  1.00  0.00     0.151 C 
BRANCH  11  12
HETATM   12  C6  UNL     1      20.018  25.602  32.233  1.00  0.00     0.249 C 
BRANCH  12  13
HETATM   13  N4  UNL     1      18.624  25.419  31.835  1.00  0.00    -0.078 N 
ATOM     14  H43 UNL     1      18.203  24.577  32.229  1.00  0.00     0.274 HD
ATOM     15  H42 UNL     1      17.992  26.095  32.265  1.00  0.00     0.274 HD
ATOM     16  H41 UNL     1      18.596  25.439  30.816  1.00  0.00     0.274 HD
ENDBRANCH  12  13
ENDBRANCH  11  12
ENDBRANCH  10  11
TORSDOF 3
ENDMDL
MODEL 3
REMARK VINA RESULT: -4.616943202      1.710      3.468
REMARK  3 active torsions:
REMARK  status: ('A' for Active; 'I' for Inactive)
REMARK    1  A    between atoms: N3_10  and  C5_11 
REMARK    2  A    between atoms: C5_11  and  C6_12 
REMARK    3  A    between atoms: C6_12  and  N4_13 
ROOT
HETATM    1  N1  UNL     1      21.556  25.194  28.194  1.00  0.00    -0.388 N 
ATOM      2  H11 UNL     1      20.879  25.160  27.432  1.00  0.00     0.157 HD
ATOM      3  H12 UNL     1      22.523  24.993  27.940  1.00  0.00     0.157 HD
HETATM    4  C1  UNL     1      21.301  25.461  29.419  1.00  0.00     0.090 C 
HETATM    5  C2  UNL     1      22.288  25.509  30.528  1.00  0.00     0.190 C 
HETATM    6  N2  UNL     1      21.852  24.626  31.552  1.00  0.00    -0.413 N 
ATOM      7  H2  UNL     1      22.513  24.031  32.053  1.00  0.00     0.153 HD
HETATM    8  C3  UNL     1      20.471  24.600  31.855  1.00  0.00     0.134 C 
HETATM    9  C4  UNL     1      19.595  25.590  31.174  1.00  0.00     0.143 C 
HETATM   10  N3  UNL     1      19.942  25.743  29.777  1.00  0.00    -0.367 N 
ENDROOT
BRANCH  10  11
HETATM   11  C5  UNL     1      19.031  26.156  28.754  1.00  0.00     0.151 C 
BRANCH  11  12
HETATM   12  C6  UNL     1      17.985  25.077  28.461  1.00  0.00     0.249 C 
BRANCH  12  13
HETATM   13  N4  UNL     1      16.673  25.666  28.721  1.00  0.00    -0.078 N 
ATOM     14  H43 UNL     1      16.280  26.143  27.909  1.00  0.00     0.274 HD
ATOM     15  H42 UNL     1      15.936  24.970  28.833  1.00  0.00     0.274 HD
ATOM     16  H41 UNL     1      16.772  26.277  29.532  1.00  0.00     0.274 HD
ENDBRANCH  12  13
ENDBRANCH  11  12
ENDBRANCH  10  11
TORSDOF 3
ENDMDL
MODEL 4
REMARK VINA RESULT: -4.259756891      1.471      3.275
REMARK  3 active torsions:
REMARK  status: ('A' for Active; 'I' for Inactive)
REMARK    1  A    between atoms: N3_10  and  C5_11 
REMARK    2  A    between atoms: C5_11  and  C6_12 
REMARK    3  A    between atoms: C6_12  and  N4_13 
ROOT
HETATM    1  N1  UNL     1      18.702  25.695  31.740  1.00  0.00    -0.388 N 
ATOM      2  H11 UNL     1      18.061  26.374  31.329  1.00  0.00     0.157 HD
ATOM      3  H12 UNL     1      18.483  25.391  32.689  1.00  0.00     0.157 HD
HETATM    4  C1  UNL     1      19.739  25.200  31.177  1.00  0.00     0.090 C 
HETATM    5  C2  UNL     1      20.672  24.211  31.774  1.00  0.00     0.190 C 
HETATM    6  N2  UNL     1      21.987  24.747  31.718  1.00  0.00    -0.413 N 
ATOM      7  H2  UNL     1      22.635  24.639  32.499  1.00  0.00     0.153 HD
HETATM    8  C3  UNL     1      22.368  25.435  30.543  1.00  0.00     0.134 C 
HETATM    9  C4  UNL     1      21.414  25.434  29.402  1.00  0.00     0.143 C 
HETATM   10  N3  UNL     1      20.048  25.626  29.843  1.00  0.00    -0.367 N 
ENDROOT
BRANCH  10  11
HETATM   11  C5  UNL     1      19.008  26.198  29.044  1.00  0.00     0.151 C 
BRANCH  11  12
HETATM   12  C6  UNL     1      18.108  25.122  28.435  1.00  0.00     0.249 C 
BRANCH  12  13
HETATM   13  N4  UNL     1      16.725  25.553  28.632  1.00  0.00    -0.078 N 
ATOM     14  H43 UNL     1      16.091  24.781  28.839  1.00  0.00     0.274 HD
ATOM     15  H42 UNL     1      16.588  26.072  29.500  1.00  0.00     0.274 HD
ATOM     16  H41 UNL     1      16.453  26.081  27.803  1.00  0.00     0.274 HD
ENDBRANCH  12  13
ENDBRANCH  11  12
ENDBRANCH  10  11
TORSDOF 3
ENDMDL
MODEL 5
REMARK VINA RESULT: -4.190570627      1.451      3.873
REMARK  3 active torsions:
REMARK  status: ('A' for Active; 'I' for Inactive)
REMARK    1  A    between atoms: N3_10  and  C5_11 
REMARK    2  A    between atoms: C5_11  and  C6_12 
REMARK    3  A    between atoms: C6_12  and  N4_13 
ROOT
HETATM    1  N1  UNL     1      18.308  25.790  29.205  1.00  0.00    -0.388 N 
ATOM      2  H11 UNL     1      18.306  25.782  28.184  1.00  0.00     0.157 HD
ATOM      3  H12 UNL     1      17.481  26.187  29.649  1.00  0.00     0.157 HD
HETATM    4  C1  UNL     1      19.244  25.353  29.960  1.00  0.00     0.090 C 
HETATM    5  C2  UNL     1      19.247  25.364  31.445  1.00  0.00     0.190 C 
HETATM    6  N2  UNL     1      20.416  26.041  31.884  1.00  0.00    -0.413 N 
ATOM      7  H2  UNL     1      20.387  26.688  32.673  1.00  0.00     0.153 HD
HETATM    8  C3  UNL     1      21.623  25.788  31.192  1.00  0.00     0.134 C 
HETATM    9  C4  UNL     1      21.609  24.734  30.142  1.00  0.00     0.143 C 
HETATM   10  N3  UNL     1      20.408  24.795  29.336  1.00  0.00    -0.367 N 
ENDROOT
BRANCH  10  11
HETATM   11  C5  UNL     1      20.312  24.337  27.983  1.00  0.00     0.151 C 
BRANCH  11  12
HETATM   12  C6  UNL     1      21.664  24.401  27.269  1.00  0.00     0.249 C 
BRANCH  12  13
HETATM   13  N4  UNL     1      21.698  25.657  26.521  1.00  0.00    -0.078 N 
ATOM     14  H43 UNL     1      21.264  25.586  25.601  1.00  0.00     0.274 HD
ATOM     15  H42 UNL     1      21.075  26.368  26.905  1.00  0.00     0.274 HD
ATOM     16  H41 UNL     1      22.671  25.958  26.482  1.00  0.00     0.274 HD
ENDBRANCH  12  13
ENDBRANCH  11  12
ENDBRANCH  10  11
TORSDOF 3
ENDMDL
