MODEL 1
REMARK VINA RESULT: -5.757907902      0.000      0.000
REMARK  4 active torsions:
REMARK  status: ('A' for Active; 'I' for Inactive)
REMARK    1  A    between atoms: C5_7  and  N2_8 
REMARK    2  A    between atoms: N2_8  and  C6_10 
REMARK    3  A    between atoms: C6_10  and  C7_11 
REMARK    4  A    between atoms: C7_11  and  N3_12 
ROOT
HETATM    1  C1  UNL     1      18.233  24.947  27.778  1.00  0.00     0.089 C 
HETATM    2  C2  UNL     1      19.183  25.032  28.914  1.00  0.00     0.078 A 
HETATM    3  N1  UNL     1      20.506  24.799  28.728  1.00  0.00    -0.356 N 
ATOM      4  H1  UNL     1      20.857  24.561  27.801  1.00  0.00     0.166 HD
HETATM    5  C3  UNL     1      21.360  24.880  29.774  1.00  0.00     0.093 A 
HETATM    6  C4  UNL     1      20.865  25.199  30.998  1.00  0.00     0.065 A 
HETATM    7  C5  UNL     1      19.501  25.443  31.205  1.00  0.00     0.103 A 
HETATM    8  N4  UNL     1      18.702  25.347  30.127  1.00  0.00    -0.333 N 
ATOM      9  H4  UNL     1      17.703  25.518  30.234  1.00  0.00     0.168 HD
ENDROOT
BRANCH   7  10
HETATM   10  N2  UNL     1      19.030  25.745  32.367  1.00  0.00    -0.375 N 
ATOM     11  H2  UNL     1      18.057  25.558  32.609  1.00  0.00     0.161 HD
BRANCH  10  12
HETATM   12  C6  UNL     1      19.939  26.363  33.320  1.00  0.00     0.148 C 
BRANCH  12  13
HETATM   13  C7  UNL     1      19.188  27.071  34.422  1.00  0.00     0.249 C 
BRANCH  13  14
HETATM   14  N3  UNL     1      17.764  26.911  34.124  1.00  0.00    -0.078 N 
ATOM     15  H33 UNL     1      17.581  26.653  33.155  1.00  0.00     0.274 HD
ATOM     16  H32 UNL     1      17.351  26.084  34.556  1.00  0.00     0.274 HD
ATOM     17  H31 UNL     1      17.310  27.780  34.403  1.00  0.00     0.274 HD
ENDBRANCH  13  14
ENDBRANCH  12  13
ENDBRANCH  10  12
ENDBRANCH   7  10
TORSDOF 4
ENDMDL
MODEL 2
REMARK VINA RESULT: -5.617431468      0.890      1.014
REMARK  4 active torsions:
REMARK  status: ('A' for Active; 'I' for Inactive)
REMARK    1  A    between atoms: C5_7  and  N2_8 
REMARK    2  A    between atoms: N2_8  and  C6_10 
REMARK    3  A    between atoms: C6_10  and  C7_11 
REMARK    4  A    between atoms: C7_11  and  N3_12 
ROOT
HETATM    1  C1  UNL     1      17.733  25.003  28.152  1.00  0.00     0.089 C 
HETATM    2  C2  UNL     1      19.103  25.104  28.712  1.00  0.00     0.078 A 
HETATM    3  N1  UNL     1      20.171  24.644  28.015  1.00  0.00    -0.356 N 
ATOM      4  H1  UNL     1      20.037  24.223  27.095  1.00  0.00     0.166 HD
HETATM    5  C3  UNL     1      21.414  24.743  28.538  1.00  0.00     0.093 A 
HETATM    6  C4  UNL     1      21.562  25.309  29.765  1.00  0.00     0.065 A 
HETATM    7  C5  UNL     1      20.468  25.789  30.497  1.00  0.00     0.103 A 
HETATM    8  N4  UNL     1      19.258  25.662  29.923  1.00  0.00    -0.333 N 
ATOM      9  H4  UNL     1      18.436  26.000  30.422  1.00  0.00     0.168 HD
ENDROOT
BRANCH   7  10
HETATM   10  N2  UNL     1      20.608  26.326  31.661  1.00  0.00    -0.375 N 
ATOM     11  H2  UNL     1      21.289  27.068  31.823  1.00  0.00     0.161 HD
BRANCH  10  12
HETATM   12  C6  UNL     1      19.760  25.833  32.735  1.00  0.00     0.148 C 
BRANCH  12  13
HETATM   13  C7  UNL     1      19.508  26.899  33.774  1.00  0.00     0.249 C 
BRANCH  13  14
HETATM   14  N3  UNL     1      18.069  26.891  34.040  1.00  0.00    -0.078 N 
ATOM     15  H33 UNL     1      17.503  26.988  33.197  1.00  0.00     0.274 HD
ATOM     16  H32 UNL     1      17.716  25.977  34.326  1.00  0.00     0.274 HD
ATOM     17  H31 UNL     1      17.897  27.623  34.729  1.00  0.00     0.274 HD
ENDBRANCH  13  14
ENDBRANCH  12  13
ENDBRANCH  10  12
ENDBRANCH   7  10
TORSDOF 4
ENDMDL
MODEL 3
REMARK VINA RESULT: -5.230919531      1.081      2.008
REMARK  4 active torsions:
REMARK  status: ('A' for Active; 'I' for Inactive)
REMARK    1  A    between atoms: C5_7  and  N2_8 
REMARK    2  A    between atoms: N2_8  and  C6_10 
REMARK    3  A    between atoms: C6_10  and  C7_11 
REMARK    4  A    between atoms: C7_11  and  N3_12 
ROOT
HETATM    1  C1  UNL     1      21.999  24.750  28.332  1.00  0.00     0.089 C 
HETATM    2  C2  UNL     1      20.598  24.926  28.787  1.00  0.00     0.078 A 
HETATM    3  N1  UNL     1      19.570  24.855  27.905  1.00  0.00    -0.356 N 
ATOM      4  H1  UNL     1      19.756  24.680  26.918  1.00  0.00     0.166 HD
HETATM    5  C3  UNL     1      18.298  25.018  28.335  1.00  0.00     0.093 A 
HETATM    6  C4  UNL     1      18.081  25.250  29.656  1.00  0.00     0.065 A 
HETATM    7  C5  UNL     1      19.132  25.326  30.579  1.00  0.00     0.103 A 
HETATM    8  N4  UNL     1      20.374  25.156  30.090  1.00  0.00    -0.333 N 
ATOM      9  H4  UNL     1      21.168  25.203  30.729  1.00  0.00     0.168 HD
ENDROOT
BRANCH   7  10
HETATM   10  N2  UNL     1      18.926  25.547  31.832  1.00  0.00    -0.375 N 
ATOM     11  H2  UNL     1      18.002  25.424  32.247  1.00  0.00     0.161 HD
BRANCH  10  12
HETATM   12  C6  UNL     1      20.061  25.980  32.634  1.00  0.00     0.148 C 
BRANCH  12  13
HETATM   13  C7  UNL     1      19.613  26.727  33.867  1.00  0.00     0.249 C 
BRANCH  13  14
HETATM   14  N3  UNL     1      18.151  26.768  33.822  1.00  0.00    -0.078 N 
ATOM     15  H33 UNL     1      17.753  27.547  34.347  1.00  0.00     0.274 HD
ATOM     16  H32 UNL     1      17.782  27.029  32.907  1.00  0.00     0.274 HD
ATOM     17  H31 UNL     1      17.825  25.857  34.143  1.00  0.00     0.274 HD
ENDBRANCH  13  14
ENDBRANCH  12  13
ENDBRANCH  10  12
ENDBRANCH   7  10
TORSDOF 4
ENDMDL
MODEL 4
REMARK VINA RESULT: -5.090391969      1.456      2.081
REMARK  4 active torsions:
REMARK  status: ('A' for Active; 'I' for Inactive)
REMARK    1  A    between atoms: C5_7  and  N2_8 
REMARK    2  A    between atoms: N2_8  and  C6_10 
REMARK    3  A    between atoms: C6_10  and  C7_11 
REMARK    4  A    between atoms: C7_11  and  N3_12 
ROOT
HETATM    1  C1  UNL     1      21.921  25.339  27.003  1.00  0.00     0.089 C 
HETATM    2  C2  UNL     1      20.859  25.370  28.038  1.00  0.00     0.078 A 
HETATM    3  N1  UNL     1      19.591  24.992  27.739  1.00  0.00    -0.356 N 
ATOM      4  H1  UNL     1      19.360  24.682  26.795  1.00  0.00     0.166 HD
HETATM    5  C3  UNL     1      18.633  25.026  28.693  1.00  0.00     0.093 A 
HETATM    6  C4  UNL     1      18.970  25.443  29.942  1.00  0.00     0.065 A 
HETATM    7  C5  UNL     1      20.275  25.837  30.265  1.00  0.00     0.103 A 
HETATM    8  N4  UNL     1      21.183  25.781  29.274  1.00  0.00    -0.333 N 
ATOM      9  H4  UNL     1      22.145  26.058  29.467  1.00  0.00     0.168 HD
ENDROOT
BRANCH   7  10
HETATM   10  N2  UNL     1      20.595  26.234  31.450  1.00  0.00    -0.375 N 
ATOM     11  H2  UNL     1      21.391  26.853  31.604  1.00  0.00     0.161 HD
BRANCH  10  12
HETATM   12  C6  UNL     1      19.778  25.764  32.558  1.00  0.00     0.148 C 
BRANCH  12  13
HETATM   13  C7  UNL     1      19.652  26.815  33.635  1.00  0.00     0.249 C 
BRANCH  13  14
HETATM   14  N3  UNL     1      18.231  26.896  33.973  1.00  0.00    -0.078 N 
ATOM     15  H33 UNL     1      17.616  26.692  33.185  1.00  0.00     0.274 HD
ATOM     16  H32 UNL     1      17.916  26.139  34.580  1.00  0.00     0.274 HD
ATOM     17  H31 UNL     1      18.080  27.822  34.373  1.00  0.00     0.274 HD
ENDBRANCH  13  14
ENDBRANCH  12  13
ENDBRANCH  10  12
ENDBRANCH   7  10
TORSDOF 4
ENDMDL
MODEL 5
REMARK VINA RESULT: -4.693804299      1.413      4.269
REMARK  4 active torsions:
REMARK  status: ('A' for Active; 'I' for Inactive)
REMARK    1  A    between atoms: C5_7  and  N2_8 
REMARK    2  A    between atoms: N2_8  and  C6_10 
REMARK    3  A    between atoms: C6_10  and  C7_11 
REMARK    4  A    between atoms: C7_11  and  N3_12 
ROOT
HETATM    1  C1  UNL     1      19.635  26.600  33.777  1.00  0.00     0.089 C 
HETATM    2  C2  UNL     1      20.119  25.898  32.563  1.00  0.00     0.078 A 
HETATM    3  N1  UNL     1      21.085  24.950  32.650  1.00  0.00    -0.356 N 
ATOM      4  H1  UNL     1      21.486  24.713  33.558  1.00  0.00     0.166 HD
HETATM    5  C3  UNL     1      21.516  24.320  31.534  1.00  0.00     0.093 A 
HETATM    6  C4  UNL     1      20.962  24.656  30.340  1.00  0.00     0.065 A 
HETATM    7  C5  UNL     1      19.964  25.634  30.234  1.00  0.00     0.103 A 
HETATM    8  N4  UNL     1      19.578  26.224  31.379  1.00  0.00    -0.333 N 
ATOM      9  H4  UNL     1      18.853  26.941  31.346  1.00  0.00     0.168 HD
ENDROOT
BRANCH   7  10
HETATM   10  N2  UNL     1      19.439  25.954  29.100  1.00  0.00    -0.375 N 
ATOM     11  H2  UNL     1      19.231  26.925  28.868  1.00  0.00     0.161 HD
BRANCH  10  12
HETATM   12  C6  UNL     1      19.156  24.877  28.164  1.00  0.00     0.148 C 
BRANCH  12  13
HETATM   13  C7  UNL     1      17.678  24.776  27.870  1.00  0.00     0.249 C 
BRANCH  13  14
HETATM   14  N3  UNL     1      16.995  25.585  28.880  1.00  0.00    -0.078 N 
ATOM     15  H33 UNL     1      16.783  25.069  29.733  1.00  0.00     0.274 HD
ATOM     16  H32 UNL     1      17.596  26.291  29.305  1.00  0.00     0.274 HD
ATOM     17  H31 UNL     1      16.169  25.977  28.429  1.00  0.00     0.274 HD
ENDBRANCH  13  14
ENDBRANCH  12  13
ENDBRANCH  10  12
ENDBRANCH   7  10
TORSDOF 4
ENDMDL
