MODEL 1
REMARK VINA RESULT: -5.625620568      0.000      0.000
REMARK  3 active torsions:
REMARK  status: ('A' for Active; 'I' for Inactive)
REMARK    1  A    between atoms: C4_4  and  C5_5 
REMARK    2  A    between atoms: C5_5  and  N1_6 
REMARK    3  A    between atoms: N3_13  and  N4_15 
ROOT
HETATM    1  C1  UNL     1      21.002  24.357  27.972  1.00  0.00     0.027 C 
HETATM    2  C2  UNL     1      20.399  24.806  29.077  1.00  0.00     0.002 A 
HETATM    3  C3  UNL     1      20.964  25.031  30.382  1.00  0.00     0.041 A 
HETATM    4  C4  UNL     1      20.052  25.486  31.232  1.00  0.00     0.037 A 
HETATM    5  N2  UNL     1      18.824  25.590  30.544  1.00  0.00    -0.343 N 
ATOM      6  H2  UNL     1      17.948  25.913  30.955  1.00  0.00     0.167 HD
HETATM    7  C6  UNL     1      18.991  25.172  29.173  1.00  0.00     0.129 A 
HETATM    8  N3  UNL     1      18.086  25.134  28.247  1.00  0.00    -0.291 N 
ATOM      9  H3  UNL     1      18.311  24.819  27.304  1.00  0.00     0.188 HD
ENDROOT
BRANCH   4  10
HETATM   10  C5  UNL     1      20.223  25.840  32.667  1.00  0.00     0.286 C 
BRANCH  10  11
HETATM   11  N1  UNL     1      18.987  26.389  33.198  1.00  0.00    -0.074 N 
ATOM     12  H13 UNL     1      18.285  26.521  32.469  1.00  0.00     0.274 HD
ATOM     13  H12 UNL     1      18.483  25.712  33.771  1.00  0.00     0.274 HD
ATOM     14  H11 UNL     1      19.176  27.253  33.706  1.00  0.00     0.274 HD
ENDBRANCH  10  11
ENDBRANCH   4  10
BRANCH   8  15
HETATM   15  N4  UNL     1      16.789  25.537  28.583  1.00  0.00    -0.344 N 
ATOM     16  H42 UNL     1      16.634  26.134  29.395  1.00  0.00     0.176 HD
ATOM     17  H41 UNL     1      16.021  25.216  27.992  1.00  0.00     0.176 HD
ENDBRANCH   8  15
TORSDOF 3
ENDMDL
MODEL 2
REMARK VINA RESULT: -5.321780886      0.846      3.572
REMARK  3 active torsions:
REMARK  status: ('A' for Active; 'I' for Inactive)
REMARK    1  A    between atoms: C4_4  and  C5_5 
REMARK    2  A    between atoms: C5_5  and  N1_6 
REMARK    3  A    between atoms: N3_13  and  N4_15 
ROOT
HETATM    1  C1  UNL     1      22.330  25.473  30.381  1.00  0.00     0.027 C 
HETATM    2  C2  UNL     1      21.009  25.446  30.178  1.00  0.00     0.002 A 
HETATM    3  C3  UNL     1      20.291  25.129  28.971  1.00  0.00     0.041 A 
HETATM    4  C4  UNL     1      18.979  25.207  29.155  1.00  0.00     0.037 A 
HETATM    5  N2  UNL     1      18.745  25.581  30.495  1.00  0.00    -0.343 N 
ATOM      6  H2  UNL     1      17.824  25.717  30.913  1.00  0.00     0.167 HD
HETATM    7  C6  UNL     1      20.000  25.744  31.187  1.00  0.00     0.129 A 
HETATM    8  N3  UNL     1      20.177  26.081  32.426  1.00  0.00    -0.291 N 
ATOM      9  H3  UNL     1      21.113  26.169  32.818  1.00  0.00     0.188 HD
ENDROOT
BRANCH   4  10
HETATM   10  C5  UNL     1      17.893  24.960  28.168  1.00  0.00     0.286 C 
BRANCH  10  11
HETATM   11  N1  UNL     1      16.668  25.612  28.598  1.00  0.00    -0.074 N 
ATOM     12  H13 UNL     1      16.519  25.519  29.603  1.00  0.00     0.274 HD
ATOM     13  H12 UNL     1      16.741  26.629  28.551  1.00  0.00     0.274 HD
ATOM     14  H11 UNL     1      15.875  25.262  28.060  1.00  0.00     0.274 HD
ENDBRANCH  10  11
ENDBRANCH   4  10
BRANCH   8  15
HETATM   15  N4  UNL     1      19.042  26.321  33.207  1.00  0.00    -0.344 N 
ATOM     16  H42 UNL     1      18.653  27.261  33.269  1.00  0.00     0.176 HD
ATOM     17  H41 UNL     1      18.627  25.531  33.703  1.00  0.00     0.176 HD
ENDBRANCH   8  15
TORSDOF 3
ENDMDL
MODEL 3
REMARK VINA RESULT: -5.284620946      1.616      3.501
REMARK  3 active torsions:
REMARK  status: ('A' for Active; 'I' for Inactive)
REMARK    1  A    between atoms: C4_4  and  C5_5 
REMARK    2  A    between atoms: C5_5  and  N1_6 
REMARK    3  A    between atoms: N3_13  and  N4_15 
ROOT
HETATM    1  C1  UNL     1      19.833  25.352  31.994  1.00  0.00     0.027 C 
HETATM    2  C2  UNL     1      20.066  25.254  30.681  1.00  0.00     0.002 A 
HETATM    3  C3  UNL     1      21.326  25.123  29.998  1.00  0.00     0.041 A 
HETATM    4  C4  UNL     1      21.158  25.051  28.684  1.00  0.00     0.037 A 
HETATM    5  N2  UNL     1      19.775  25.132  28.413  1.00  0.00    -0.343 N 
ATOM      6  H2  UNL     1      19.358  25.103  27.482  1.00  0.00     0.167 HD
HETATM    7  C6  UNL     1      19.039  25.260  29.647  1.00  0.00     0.129 A 
HETATM    8  N3  UNL     1      17.755  25.358  29.789  1.00  0.00    -0.291 N 
ATOM      9  H3  UNL     1      17.333  25.445  30.713  1.00  0.00     0.188 HD
ENDROOT
BRANCH   4  10
HETATM   10  C5  UNL     1      22.196  24.913  27.627  1.00  0.00     0.286 C 
BRANCH  10  11
HETATM   11  N1  UNL     1      21.784  25.618  26.425  1.00  0.00    -0.074 N 
ATOM     12  H13 UNL     1      22.550  26.153  26.015  1.00  0.00     0.274 HD
ATOM     13  H12 UNL     1      21.615  24.979  25.647  1.00  0.00     0.274 HD
ATOM     14  H11 UNL     1      20.971  26.202  26.621  1.00  0.00     0.274 HD
ENDBRANCH  10  11
ENDBRANCH   4  10
BRANCH   8  15
HETATM   15  N4  UNL     1      16.965  25.342  28.634  1.00  0.00    -0.344 N 
ATOM     16  H42 UNL     1      15.956  25.474  28.703  1.00  0.00     0.176 HD
ATOM     17  H41 UNL     1      17.431  25.195  27.738  1.00  0.00     0.176 HD
ENDBRANCH   8  15
TORSDOF 3
ENDMDL
MODEL 4
REMARK VINA RESULT: -4.962955329      1.957      2.577
REMARK  3 active torsions:
REMARK  status: ('A' for Active; 'I' for Inactive)
REMARK    1  A    between atoms: C4_4  and  C5_5 
REMARK    2  A    between atoms: C5_5  and  N1_6 
REMARK    3  A    between atoms: N3_13  and  N4_15 
ROOT
HETATM    1  C1  UNL     1      18.030  24.888  27.914  1.00  0.00     0.027 C 
HETATM    2  C2  UNL     1      18.957  25.105  28.852  1.00  0.00     0.002 A 
HETATM    3  C3  UNL     1      18.773  25.366  30.256  1.00  0.00     0.041 A 
HETATM    4  C4  UNL     1      19.936  25.530  30.874  1.00  0.00     0.037 A 
HETATM    5  N2  UNL     1      20.965  25.389  29.917  1.00  0.00    -0.343 N 
ATOM      6  H2  UNL     1      21.962  25.468  30.115  1.00  0.00     0.167 HD
HETATM    7  C6  UNL     1      20.396  25.117  28.620  1.00  0.00     0.129 A 
HETATM    8  N3  UNL     1      21.033  24.929  27.507  1.00  0.00    -0.291 N 
ATOM      9  H3  UNL     1      20.531  24.743  26.640  1.00  0.00     0.188 HD
ENDROOT
BRANCH   4  10
HETATM   10  C5  UNL     1      20.184  25.817  32.313  1.00  0.00     0.286 C 
BRANCH  10  11
HETATM   11  N1  UNL     1      18.952  26.233  32.960  1.00  0.00    -0.074 N 
ATOM     12  H13 UNL     1      19.113  26.550  33.917  1.00  0.00     0.274 HD
ATOM     13  H12 UNL     1      18.593  27.105  32.572  1.00  0.00     0.274 HD
ATOM     14  H11 UNL     1      18.262  25.484  32.917  1.00  0.00     0.274 HD
ENDBRANCH  10  11
ENDBRANCH   4  10
BRANCH   8  15
HETATM   15  N4  UNL     1      22.430  24.991  27.533  1.00  0.00    -0.344 N 
ATOM     16  H42 UNL     1      22.979  24.419  26.892  1.00  0.00     0.176 HD
ATOM     17  H41 UNL     1      22.868  25.619  28.208  1.00  0.00     0.176 HD
ENDBRANCH   8  15
TORSDOF 3
ENDMDL
MODEL 5
REMARK VINA RESULT: -4.900934861      1.913      3.946
REMARK  3 active torsions:
REMARK  status: ('A' for Active; 'I' for Inactive)
REMARK    1  A    between atoms: C4_4  and  C5_5 
REMARK    2  A    between atoms: C5_5  and  N1_6 
REMARK    3  A    between atoms: N3_13  and  N4_15 
ROOT
HETATM    1  C1  UNL     1      17.237  25.254  28.752  1.00  0.00     0.027 C 
HETATM    2  C2  UNL     1      18.561  25.217  28.935  1.00  0.00     0.002 A 
HETATM    3  C3  UNL     1      19.600  25.045  27.955  1.00  0.00     0.041 A 
HETATM    4  C4  UNL     1      20.802  25.062  28.517  1.00  0.00     0.037 A 
HETATM    5  N2  UNL     1      20.635  25.245  29.906  1.00  0.00    -0.343 N 
ATOM      6  H2  UNL     1      21.394  25.296  30.586  1.00  0.00     0.167 HD
HETATM    7  C6  UNL     1      19.231  25.350  30.223  1.00  0.00     0.129 A 
HETATM    8  N3  UNL     1      18.700  25.523  31.392  1.00  0.00    -0.291 N 
ATOM      9  H3  UNL     1      17.689  25.583  31.506  1.00  0.00     0.188 HD
ENDROOT
BRANCH   4  10
HETATM   10  C5  UNL     1      22.130  24.918  27.861  1.00  0.00     0.286 C 
BRANCH  10  11
HETATM   11  N1  UNL     1      22.109  25.537  26.547  1.00  0.00    -0.074 N 
ATOM     12  H13 UNL     1      21.390  25.133  25.947  1.00  0.00     0.274 HD
ATOM     13  H12 UNL     1      21.757  26.493  26.581  1.00  0.00     0.274 HD
ATOM     14  H11 UNL     1      23.035  25.487  26.120  1.00  0.00     0.274 HD
ENDBRANCH  10  11
ENDBRANCH   4  10
BRANCH   8  15
HETATM   15  N4  UNL     1      19.558  25.622  32.492  1.00  0.00    -0.344 N 
ATOM     16  H42 UNL     1      19.497  26.427  33.116  1.00  0.00     0.176 HD
ATOM     17  H41 UNL     1      20.233  24.872  32.642  1.00  0.00     0.176 HD
ENDBRANCH   8  15
TORSDOF 3
ENDMDL
