MODEL 1
REMARK VINA RESULT: -5.461342816      0.000      0.000
REMARK  2 active torsions:
REMARK  status: ('A' for Active; 'I' for Inactive)
REMARK    1  A    between atoms: N1_1  and  C1_5 
REMARK    2  A    between atoms: C3_7  and  C4_8 
ROOT
HETATM    1  C4  UNL     1      19.600  25.655  29.064  1.00  0.00     0.397 C 
HETATM    2  N2  UNL     1      19.861  24.716  27.961  1.00  0.00     0.016 N 
ATOM      3  H21 UNL     1      19.170  24.560  27.226  1.00  0.00     0.284 HD
ATOM      4  H22 UNL     1      19.885  23.709  28.119  1.00  0.00     0.284 HD
HETATM    5  C5  UNL     1      21.066  25.460  27.705  1.00  0.00     0.476 A 
HETATM    6  C6  UNL     1      22.329  24.912  27.491  1.00  0.00     0.339 A 
HETATM    7  N3  UNL     1      21.572  25.641  26.387  1.00  0.00    -0.008 N 
ATOM      8  H31 UNL     1      21.743  26.421  25.752  1.00  0.00     0.282 HD
ATOM      9  H32 UNL     1      21.266  25.445  25.434  1.00  0.00     0.282 HD
HETATM   10  N4  UNL     1      20.650  26.539  28.527  1.00  0.00     0.016 N 
ATOM     11  H41 UNL     1      21.308  27.009  29.149  1.00  0.00     0.284 HD
ATOM     12  H42 UNL     1      20.415  27.446  28.122  1.00  0.00     0.284 HD
ENDROOT
BRANCH   1  13
HETATM   13  C3  UNL     1      20.049  25.119  30.390  1.00  0.00     0.048 C 
HETATM   14  C2  UNL     1      19.077  25.287  31.532  1.00  0.00     0.041 C 
HETATM   15  C1  UNL     1      20.277  25.680  32.384  1.00  0.00     0.184 C 
HETATM   16  C7  UNL     1      20.928  26.168  31.083  1.00  0.00     0.041 C 
BRANCH  15  17
HETATM   17  N1  UNL     1      20.970  24.528  32.861  1.00  0.00    -0.075 N 
ATOM     18  H13 UNL     1      21.039  24.529  33.879  1.00  0.00     0.274 HD
ATOM     19  H12 UNL     1      20.415  23.681  32.743  1.00  0.00     0.274 HD
ATOM     20  H11 UNL     1      21.886  24.441  32.422  1.00  0.00     0.274 HD
ENDBRANCH  15  17
ENDBRANCH   1  13
TORSDOF 2
ENDMDL
MODEL 2
REMARK VINA RESULT: -5.048690533      1.520      1.983
REMARK  2 active torsions:
REMARK  status: ('A' for Active; 'I' for Inactive)
REMARK    1  A    between atoms: N1_1  and  C1_5 
REMARK    2  A    between atoms: C3_7  and  C4_8 
ROOT
HETATM    1  C4  UNL     1      21.533  24.246  30.045  1.00  0.00     0.397 C 
HETATM    2  N2  UNL     1      22.322  25.220  29.274  1.00  0.00     0.016 N 
ATOM      3  H21 UNL     1      23.339  25.155  29.224  1.00  0.00     0.284 HD
ATOM      4  H22 UNL     1      22.423  26.185  29.588  1.00  0.00     0.284 HD
HETATM    5  C5  UNL     1      21.498  24.887  28.142  1.00  0.00     0.476 A 
HETATM    6  C6  UNL     1      20.895  25.800  27.279  1.00  0.00     0.339 A 
HETATM    7  N3  UNL     1      22.012  24.873  26.815  1.00  0.00    -0.008 N 
ATOM      8  H31 UNL     1      22.154  24.185  26.075  1.00  0.00     0.282 HD
ATOM      9  H32 UNL     1      22.923  24.966  26.365  1.00  0.00     0.282 HD
HETATM   10  N4  UNL     1      20.978  23.731  28.781  1.00  0.00     0.016 N 
ATOM     11  H41 UNL     1      19.990  23.488  28.702  1.00  0.00     0.284 HD
ATOM     12  H42 UNL     1      21.214  22.797  28.446  1.00  0.00     0.284 HD
ENDROOT
BRANCH   1  13
HETATM   13  C3  UNL     1      20.433  24.894  30.830  1.00  0.00     0.048 C 
HETATM   14  C2  UNL     1      20.656  26.337  31.210  1.00  0.00     0.041 C 
HETATM   15  C1  UNL     1      20.097  25.975  32.580  1.00  0.00     0.184 C 
HETATM   16  C7  UNL     1      20.612  24.554  32.316  1.00  0.00     0.041 C 
BRANCH  15  17
HETATM   17  N1  UNL     1      18.670  25.975  32.571  1.00  0.00    -0.075 N 
ATOM     18  H13 UNL     1      18.301  26.613  31.866  1.00  0.00     0.274 HD
ATOM     19  H12 UNL     1      18.297  25.101  32.201  1.00  0.00     0.274 HD
ATOM     20  H11 UNL     1      18.297  26.181  33.497  1.00  0.00     0.274 HD
ENDBRANCH  15  17
ENDBRANCH   1  13
TORSDOF 2
ENDMDL
MODEL 3
REMARK VINA RESULT: -4.951641265      1.605      4.332
REMARK  2 active torsions:
REMARK  status: ('A' for Active; 'I' for Inactive)
REMARK    1  A    between atoms: N1_1  and  C1_5 
REMARK    2  A    between atoms: C3_7  and  C4_8 
ROOT
HETATM    1  C4  UNL     1      19.894  26.166  29.663  1.00  0.00     0.397 C 
HETATM    2  N2  UNL     1      20.797  26.499  30.776  1.00  0.00     0.016 N 
ATOM      3  H21 UNL     1      20.960  27.468  31.052  1.00  0.00     0.284 HD
ATOM      4  H22 UNL     1      21.806  26.379  30.692  1.00  0.00     0.284 HD
HETATM    5  C5  UNL     1      20.006  25.615  31.591  1.00  0.00     0.476 A 
HETATM    6  C6  UNL     1      20.504  24.637  32.449  1.00  0.00     0.339 A 
HETATM    7  N3  UNL     1      19.776  25.870  32.972  1.00  0.00    -0.008 N 
ATOM      8  H31 UNL     1      18.976  26.067  33.574  1.00  0.00     0.282 HD
ATOM      9  H32 UNL     1      19.961  26.623  33.635  1.00  0.00     0.282 HD
HETATM   10  N4  UNL     1      18.961  25.564  30.632  1.00  0.00     0.016 N 
ATOM     11  H41 UNL     1      18.483  24.686  30.424  1.00  0.00     0.284 HD
ATOM     12  H42 UNL     1      18.054  25.991  30.822  1.00  0.00     0.284 HD
ENDROOT
BRANCH   1  13
HETATM   13  C3  UNL     1      20.445  25.085  28.783  1.00  0.00     0.048 C 
HETATM   14  C2  UNL     1      21.882  24.701  29.032  1.00  0.00     0.041 C 
HETATM   15  C1  UNL     1      22.048  24.671  27.518  1.00  0.00     0.184 C 
HETATM   16  C7  UNL     1      20.919  25.708  27.463  1.00  0.00     0.041 C 
BRANCH  15  17
HETATM   17  N1  UNL     1      21.589  23.435  26.974  1.00  0.00    -0.075 N 
ATOM     18  H13 UNL     1      20.587  23.311  27.118  1.00  0.00     0.274 HD
ATOM     19  H12 UNL     1      21.600  23.447  25.954  1.00  0.00     0.274 HD
ATOM     20  H11 UNL     1      22.122  22.649  27.345  1.00  0.00     0.274 HD
ENDBRANCH  15  17
ENDBRANCH   1  13
TORSDOF 2
ENDMDL
MODEL 4
REMARK VINA RESULT: -4.918011211      1.530      4.701
REMARK  2 active torsions:
REMARK  status: ('A' for Active; 'I' for Inactive)
REMARK    1  A    between atoms: N1_1  and  C1_5 
REMARK    2  A    between atoms: C3_7  and  C4_8 
ROOT
HETATM    1  C4  UNL     1      19.893  24.666  31.493  1.00  0.00     0.397 C 
HETATM    2  N2  UNL     1      18.815  25.459  32.105  1.00  0.00     0.016 N 
ATOM      3  H21 UNL     1      18.013  25.008  32.546  1.00  0.00     0.284 HD
ATOM      4  H22 UNL     1      18.165  25.999  31.533  1.00  0.00     0.284 HD
HETATM    5  C5  UNL     1      19.831  26.107  32.890  1.00  0.00     0.476 A 
HETATM    6  C6  UNL     1      19.954  27.481  33.088  1.00  0.00     0.339 A 
HETATM    7  N3  UNL     1      19.591  26.534  34.227  1.00  0.00    -0.008 N 
ATOM      8  H31 UNL     1      19.945  26.313  35.158  1.00  0.00     0.282 HD
ATOM      9  H32 UNL     1      18.846  26.445  34.918  1.00  0.00     0.282 HD
HETATM   10  N4  UNL     1      20.802  25.127  32.556  1.00  0.00     0.016 N 
ATOM     11  H41 UNL     1      21.764  25.394  32.344  1.00  0.00     0.284 HD
ATOM     12  H42 UNL     1      21.157  24.480  33.260  1.00  0.00     0.284 HD
ENDROOT
BRANCH   1  13
HETATM   13  C3  UNL     1      20.348  25.234  30.183  1.00  0.00     0.048 C 
HETATM   14  C2  UNL     1      19.305  25.303  29.095  1.00  0.00     0.041 C 
HETATM   15  C1  UNL     1      20.386  24.806  28.144  1.00  0.00     0.184 C 
HETATM   16  C7  UNL     1      21.021  24.124  29.363  1.00  0.00     0.041 C 
BRANCH  15  17
HETATM   17  N1  UNL     1      21.219  25.877  27.706  1.00  0.00    -0.075 N 
ATOM     18  H13 UNL     1      21.057  26.724  28.251  1.00  0.00     0.274 HD
ATOM     19  H12 UNL     1      22.196  25.717  27.954  1.00  0.00     0.274 HD
ATOM     20  H11 UNL     1      21.108  26.045  26.707  1.00  0.00     0.274 HD
ENDBRANCH  15  17
ENDBRANCH   1  13
TORSDOF 2
ENDMDL
MODEL 5
REMARK VINA RESULT: -4.724914826      0.672      1.055
REMARK  2 active torsions:
REMARK  status: ('A' for Active; 'I' for Inactive)
REMARK    1  A    between atoms: N1_1  and  C1_5 
REMARK    2  A    between atoms: C3_7  and  C4_8 
ROOT
HETATM    1  C4  UNL     1      19.666  25.852  29.200  1.00  0.00     0.397 C 
HETATM    2  N2  UNL     1      20.076  24.698  28.384  1.00  0.00     0.016 N 
ATOM      3  H21 UNL     1      19.411  24.217  27.778  1.00  0.00     0.284 HD
ATOM      4  H22 UNL     1      20.298  23.799  28.813  1.00  0.00     0.284 HD
HETATM    5  C5  UNL     1      21.108  25.538  27.838  1.00  0.00     0.476 A 
HETATM    6  C6  UNL     1      22.448  25.186  27.687  1.00  0.00     0.339 A 
HETATM    7  N3  UNL     1      21.538  25.421  26.487  1.00  0.00    -0.008 N 
ATOM      8  H31 UNL     1      21.540  26.003  25.649  1.00  0.00     0.282 HD
ATOM      9  H32 UNL     1      21.252  24.907  25.653  1.00  0.00     0.282 HD
HETATM   10  N4  UNL     1      20.512  26.716  28.358  1.00  0.00     0.016 N 
ATOM     11  H41 UNL     1      21.082  27.455  28.771  1.00  0.00     0.284 HD
ATOM     12  H42 UNL     1      20.097  27.411  27.737  1.00  0.00     0.284 HD
ENDROOT
BRANCH   1  13
HETATM   13  C3  UNL     1      20.241  25.808  30.583  1.00  0.00     0.048 C 
HETATM   14  C2  UNL     1      21.051  24.580  30.922  1.00  0.00     0.041 C 
HETATM   15  C1  UNL     1      20.341  24.588  32.270  1.00  0.00     0.184 C 
HETATM   16  C7  UNL     1      19.175  25.279  31.552  1.00  0.00     0.041 C 
BRANCH  15  17
HETATM   17  N1  UNL     1      20.958  25.505  33.171  1.00  0.00    -0.075 N 
ATOM     18  H13 UNL     1      21.668  25.047  33.744  1.00  0.00     0.274 HD
ATOM     19  H12 UNL     1      21.558  26.168  32.681  1.00  0.00     0.274 HD
ATOM     20  H11 UNL     1      20.263  25.982  33.745  1.00  0.00     0.274 HD
ENDBRANCH  15  17
ENDBRANCH   1  13
TORSDOF 2
ENDMDL
