MODEL 1
REMARK VINA RESULT: -7.685220187      0.000      0.000
REMARK  6 active torsions:
REMARK  status: ('A' for Active; 'I' for Inactive)
REMARK       I    between atoms: C1_2  and  N1_3 
REMARK    1  A    between atoms: C1_2  and  O3_11 
REMARK    2  A    between atoms: N1_3  and  C2_5 
REMARK    3  A    between atoms: O3_11  and  C7_12 
REMARK    4  A    between atoms: C7_12  and  C8_13 
REMARK    5  A    between atoms: C8_13  and  C9_14 
REMARK    6  A    between atoms: C9_14  and  C10_15 
ROOT
HETATM    1  O1  UNL     1       0.481  10.032  20.336  1.00  0.00    -0.239 OA
HETATM    2  C1  UNL     1       1.668   9.777  20.658  1.00  0.00     0.360 C 
HETATM    3  N1  UNL     1       2.518  10.886  21.022  1.00  0.00    -0.332 N 
ATOM      4  H1  UNL     1       3.485  10.701  21.288  1.00  0.00     0.165 HD
ENDROOT
BRANCH   2   5
HETATM    5  O3  UNL     1       2.103   8.485  20.654  1.00  0.00    -0.304 OA
BRANCH   5   6
HETATM    6  C7  UNL     1       3.448   8.085  20.627  1.00  0.00     0.180 C 
BRANCH   6   7
HETATM    7  C8  UNL     1       3.925   7.559  21.941  1.00  0.00     0.027 C 
BRANCH   7   8
HETATM    8  C9  UNL     1       4.658   8.597  22.761  1.00  0.00     0.007 C 
BRANCH   8   9
HETATM    9  C10 UNL     1       3.984   8.705  24.087  1.00  0.00    -0.014 C 
HETATM   10  C11 UNL     1       4.789   8.193  25.237  1.00  0.00     0.004 C 
HETATM   11  C12 UNL     1       3.963   8.683  26.432  1.00  0.00     0.000 C 
HETATM   12  C13 UNL     1       3.191   9.888  25.944  1.00  0.00     0.000 C 
HETATM   13  C14 UNL     1       3.667  10.117  24.502  1.00  0.00     0.004 C 
ENDBRANCH   8   9
ENDBRANCH   7   8
ENDBRANCH   6   7
ENDBRANCH   5   6
ENDBRANCH   2   5
BRANCH   3  14
HETATM   14  C2  UNL     1       2.045  12.230  21.022  1.00  0.00     0.090 C 
HETATM   15  C3  UNL     1       2.419  12.914  22.328  1.00  0.00     0.051 C 
HETATM   16  C4  UNL     1       1.626  14.206  22.384  1.00  0.00     0.169 C 
HETATM   17  O2  UNL     1       1.183  14.558  21.123  1.00  0.00    -0.391 OA
HETATM   18  C5  UNL     1       2.194  14.501  20.167  1.00  0.00     0.169 C 
HETATM   19  C6  UNL     1       2.655  13.072  19.919  1.00  0.00     0.051 C 
ENDBRANCH   3  14
TORSDOF 6
ENDMDL
MODEL 2
REMARK VINA RESULT: -7.665641839      0.848      1.473
REMARK  6 active torsions:
REMARK  status: ('A' for Active; 'I' for Inactive)
REMARK       I    between atoms: C1_2  and  N1_3 
REMARK    1  A    between atoms: C1_2  and  O3_11 
REMARK    2  A    between atoms: N1_3  and  C2_5 
REMARK    3  A    between atoms: O3_11  and  C7_12 
REMARK    4  A    between atoms: C7_12  and  C8_13 
REMARK    5  A    between atoms: C8_13  and  C9_14 
REMARK    6  A    between atoms: C9_14  and  C10_15 
ROOT
HETATM    1  O1  UNL     1       0.585   9.757  20.816  1.00  0.00    -0.239 OA
HETATM    2  C1  UNL     1       1.830   9.594  20.776  1.00  0.00     0.360 C 
HETATM    3  N1  UNL     1       2.664  10.772  20.828  1.00  0.00    -0.332 N 
ATOM      4  H1  UNL     1       3.677  10.662  20.796  1.00  0.00     0.165 HD
ENDROOT
BRANCH   2   5
HETATM    5  O3  UNL     1       2.340   8.333  20.688  1.00  0.00    -0.304 OA
BRANCH   5   6
HETATM    6  C7  UNL     1       3.702   8.003  20.780  1.00  0.00     0.180 C 
BRANCH   6   7
HETATM    7  C8  UNL     1       4.096   7.542  22.145  1.00  0.00     0.027 C 
BRANCH   7   8
HETATM    8  C9  UNL     1       4.585   8.667  23.029  1.00  0.00     0.007 C 
BRANCH   8   9
HETATM    9  C10 UNL     1       5.078   8.076  24.307  1.00  0.00    -0.014 C 
HETATM   10  C11 UNL     1       4.180   8.296  25.481  1.00  0.00     0.004 C 
HETATM   11  C12 UNL     1       4.810   7.366  26.525  1.00  0.00     0.000 C 
HETATM   12  C13 UNL     1       5.536   6.291  25.749  1.00  0.00     0.000 C 
HETATM   13  C14 UNL     1       5.226   6.579  24.273  1.00  0.00     0.004 C 
ENDBRANCH   8   9
ENDBRANCH   7   8
ENDBRANCH   6   7
ENDBRANCH   5   6
ENDBRANCH   2   5
BRANCH   3  14
HETATM   14  C2  UNL     1       2.113  12.082  20.921  1.00  0.00     0.090 C 
HETATM   15  C3  UNL     1       2.487  12.711  22.254  1.00  0.00     0.051 C 
HETATM   16  C4  UNL     1       1.622  13.947  22.411  1.00  0.00     0.169 C 
HETATM   17  O2  UNL     1       1.118  14.344  21.186  1.00  0.00    -0.391 OA
HETATM   18  C5  UNL     1       2.100  14.404  20.199  1.00  0.00     0.169 C 
HETATM   19  C6  UNL     1       2.636  13.022  19.853  1.00  0.00     0.051 C 
ENDBRANCH   3  14
TORSDOF 6
ENDMDL
MODEL 3
REMARK VINA RESULT: -7.419780351      4.768      8.691
REMARK  6 active torsions:
REMARK  status: ('A' for Active; 'I' for Inactive)
REMARK       I    between atoms: C1_2  and  N1_3 
REMARK    1  A    between atoms: C1_2  and  O3_11 
REMARK    2  A    between atoms: N1_3  and  C2_5 
REMARK    3  A    between atoms: O3_11  and  C7_12 
REMARK    4  A    between atoms: C7_12  and  C8_13 
REMARK    5  A    between atoms: C8_13  and  C9_14 
REMARK    6  A    between atoms: C9_14  and  C10_15 
ROOT
HETATM    1  O1  UNL     1       7.719   6.296  23.971  1.00  0.00    -0.239 OA
HETATM    2  C1  UNL     1       6.475   6.185  24.100  1.00  0.00     0.360 C 
HETATM    3  N1  UNL     1       5.983   5.265  25.099  1.00  0.00    -0.332 N 
ATOM      4  H1  UNL     1       4.976   5.159  25.220  1.00  0.00     0.165 HD
ENDROOT
BRANCH   2   5
HETATM    5  O3  UNL     1       5.648   6.925  23.309  1.00  0.00    -0.304 OA
BRANCH   5   6
HETATM    6  C7  UNL     1       5.110   8.176  23.647  1.00  0.00     0.180 C 
BRANCH   6   7
HETATM    7  C8  UNL     1       4.024   8.611  22.719  1.00  0.00     0.027 C 
BRANCH   7   8
HETATM    8  C9  UNL     1       4.067   7.899  21.385  1.00  0.00     0.007 C 
BRANCH   8   9
HETATM    9  C10 UNL     1       2.886   8.334  20.585  1.00  0.00    -0.014 C 
HETATM   10  C11 UNL     1       1.894   7.254  20.302  1.00  0.00     0.004 C 
HETATM   11  C12 UNL     1       0.721   8.058  19.729  1.00  0.00     0.000 C 
HETATM   12  C13 UNL     1       0.853   9.455  20.292  1.00  0.00     0.000 C 
HETATM   13  C14 UNL     1       2.049   9.392  21.253  1.00  0.00     0.004 C 
ENDBRANCH   8   9
ENDBRANCH   7   8
ENDBRANCH   6   7
ENDBRANCH   5   6
ENDBRANCH   2   5
BRANCH   3  14
HETATM   14  C2  UNL     1       6.863   4.500  25.918  1.00  0.00     0.090 C 
HETATM   15  C3  UNL     1       6.543   4.735  27.387  1.00  0.00     0.051 C 
HETATM   16  C4  UNL     1       7.696   4.153  28.181  1.00  0.00     0.169 C 
HETATM   17  O2  UNL     1       8.412   3.256  27.410  1.00  0.00    -0.391 OA
HETATM   18  C5  UNL     1       7.592   2.338  26.758  1.00  0.00     0.169 C 
HETATM   19  C6  UNL     1       6.732   3.007  25.695  1.00  0.00     0.051 C 
ENDBRANCH   3  14
TORSDOF 6
ENDMDL
MODEL 4
REMARK VINA RESULT: -7.418002015      5.008      8.949
REMARK  6 active torsions:
REMARK  status: ('A' for Active; 'I' for Inactive)
REMARK       I    between atoms: C1_2  and  N1_3 
REMARK    1  A    between atoms: C1_2  and  O3_11 
REMARK    2  A    between atoms: N1_3  and  C2_5 
REMARK    3  A    between atoms: O3_11  and  C7_12 
REMARK    4  A    between atoms: C7_12  and  C8_13 
REMARK    5  A    between atoms: C8_13  and  C9_14 
REMARK    6  A    between atoms: C9_14  and  C10_15 
ROOT
HETATM    1  O1  UNL     1       5.399   6.118  25.522  1.00  0.00    -0.239 OA
HETATM    2  C1  UNL     1       6.041   5.854  24.476  1.00  0.00     0.360 C 
HETATM    3  N1  UNL     1       6.813   4.634  24.452  1.00  0.00    -0.332 N 
ATOM      4  H1  UNL     1       7.342   4.399  23.612  1.00  0.00     0.165 HD
ENDROOT
BRANCH   2   5
HETATM    5  O3  UNL     1       5.985   6.711  23.418  1.00  0.00    -0.304 OA
BRANCH   5   6
HETATM    6  C7  UNL     1       5.247   7.904  23.381  1.00  0.00     0.180 C 
BRANCH   6   7
HETATM    7  C8  UNL     1       3.977   7.779  22.605  1.00  0.00     0.027 C 
BRANCH   7   8
HETATM    8  C9  UNL     1       4.192   7.825  21.109  1.00  0.00     0.007 C 
BRANCH   8   9
HETATM    9  C10 UNL     1       2.952   8.356  20.475  1.00  0.00    -0.014 C 
HETATM   10  C11 UNL     1       1.889   7.334  20.233  1.00  0.00     0.004 C 
HETATM   11  C12 UNL     1       0.697   8.217  19.848  1.00  0.00     0.000 C 
HETATM   12  C13 UNL     1       0.948   9.565  20.484  1.00  0.00     0.000 C 
HETATM   13  C14 UNL     1       2.238   9.394  21.300  1.00  0.00     0.004 C 
ENDBRANCH   8   9
ENDBRANCH   7   8
ENDBRANCH   6   7
ENDBRANCH   5   6
ENDBRANCH   2   5
BRANCH   3  14
HETATM   14  C2  UNL     1       6.859   3.749  25.568  1.00  0.00     0.090 C 
HETATM   15  C3  UNL     1       7.070   2.320  25.091  1.00  0.00     0.051 C 
HETATM   16  C4  UNL     1       6.795   1.420  26.281  1.00  0.00     0.169 C 
HETATM   17  O2  UNL     1       6.872   2.138  27.460  1.00  0.00    -0.391 OA
HETATM   18  C5  UNL     1       8.023   2.919  27.535  1.00  0.00     0.169 C 
HETATM   19  C6  UNL     1       8.005   4.047  26.514  1.00  0.00     0.051 C 
ENDBRANCH   3  14
TORSDOF 6
ENDMDL
MODEL 5
REMARK VINA RESULT: -7.333383511      5.912      7.840
REMARK  6 active torsions:
REMARK  status: ('A' for Active; 'I' for Inactive)
REMARK       I    between atoms: C1_2  and  N1_3 
REMARK    1  A    between atoms: C1_2  and  O3_11 
REMARK    2  A    between atoms: N1_3  and  C2_5 
REMARK    3  A    between atoms: O3_11  and  C7_12 
REMARK    4  A    between atoms: C7_12  and  C8_13 
REMARK    5  A    between atoms: C8_13  and  C9_14 
REMARK    6  A    between atoms: C9_14  and  C10_15 
ROOT
HETATM    1  O1  UNL     1       7.497   6.535  23.777  1.00  0.00    -0.239 OA
HETATM    2  C1  UNL     1       6.683   5.849  24.443  1.00  0.00     0.360 C 
HETATM    3  N1  UNL     1       5.344   6.365  24.604  1.00  0.00    -0.332 N 
ATOM      4  H1  UNL     1       4.666   5.824  25.141  1.00  0.00     0.165 HD
ENDROOT
BRANCH   2   5
HETATM    5  O3  UNL     1       7.084   4.662  24.980  1.00  0.00    -0.304 OA
BRANCH   5   6
HETATM    6  C7  UNL     1       7.966   4.521  26.063  1.00  0.00     0.180 C 
BRANCH   6   7
HETATM    7  C8  UNL     1       7.378   3.741  27.193  1.00  0.00     0.027 C 
BRANCH   7   8
HETATM    8  C9  UNL     1       7.608   2.251  27.064  1.00  0.00     0.007 C 
BRANCH   8   9
HETATM    9  C10 UNL     1       7.504   1.644  28.421  1.00  0.00    -0.014 C 
HETATM   10  C11 UNL     1       6.680   2.425  29.392  1.00  0.00     0.004 C 
HETATM   11  C12 UNL     1       6.551   1.433  30.554  1.00  0.00     0.000 C 
HETATM   12  C13 UNL     1       6.721   0.056  29.952  1.00  0.00     0.000 C 
HETATM   13  C14 UNL     1       6.849   0.289  28.440  1.00  0.00     0.004 C 
ENDBRANCH   8   9
ENDBRANCH   7   8
ENDBRANCH   6   7
ENDBRANCH   5   6
ENDBRANCH   2   5
BRANCH   3  14
HETATM   14  C2  UNL     1       4.941   7.608  24.035  1.00  0.00     0.090 C 
HETATM   15  C3  UNL     1       4.220   7.368  22.717  1.00  0.00     0.051 C 
HETATM   16  C4  UNL     1       4.107   8.716  22.031  1.00  0.00     0.169 C 
HETATM   17  O2  UNL     1       4.278   9.740  22.944  1.00  0.00    -0.391 OA
HETATM   18  C5  UNL     1       3.504   9.569  24.090  1.00  0.00     0.169 C 
HETATM   19  C6  UNL     1       3.969   8.373  24.910  1.00  0.00     0.051 C 
ENDBRANCH   3  14
TORSDOF 6
ENDMDL
