MODEL 1
REMARK VINA RESULT: -6.539525122      0.000      0.000
REMARK  6 active torsions:
REMARK  status: ('A' for Active; 'I' for Inactive)
REMARK    1  A    between atoms: C2_2  and  C3_3 
REMARK    2  A    between atoms: C3_3  and  C4_4 
REMARK    3  A    between atoms: C4_4  and  C5_5 
REMARK    4  A    between atoms: C5_5  and  C6_6 
REMARK    5  A    between atoms: C6_6  and  N1_7 
REMARK    6  A    between atoms: C14_16  and  N2_17 
ROOT
HETATM    1  C3  UNL     1       7.415   3.607  29.556  1.00  0.00     0.036 C 
HETATM    2  S1  UNL     1       6.407   5.122  29.851  1.00  0.00    -0.157 SA
HETATM    3  C12 UNL     1       7.753   6.186  30.505  1.00  0.00     0.077 C 
HETATM    4  C13 UNL     1       8.956   5.338  30.226  1.00  0.00     0.044 C 
HETATM    5  C14 UNL     1       8.573   3.906  30.477  1.00  0.00     0.202 C 
ENDROOT
BRANCH   1   6
HETATM    6  C2  UNL     1       6.670   2.381  29.934  1.00  0.00     0.018 C 
HETATM    7  C1  UNL     1       6.917   1.222  28.984  1.00  0.00     0.006 C 
ENDBRANCH   1   6
BRANCH   1   8
HETATM    8  C4  UNL     1       7.770   3.628  28.119  1.00  0.00     0.024 C 
BRANCH   8   9
HETATM    9  C5  UNL     1       6.811   4.486  27.365  1.00  0.00     0.021 C 
BRANCH   9  10
HETATM   10  C6  UNL     1       7.381   4.893  25.994  1.00  0.00     0.117 C 
BRANCH  10  11
HETATM   11  N1  UNL     1       6.519   5.914  25.500  1.00  0.00    -0.412 N 
HETATM   12  C7  UNL     1       5.252   6.005  26.155  1.00  0.00     0.117 C 
HETATM   13  C8  UNL     1       4.848   7.484  26.094  1.00  0.00     0.019 C 
HETATM   14  C9  UNL     1       4.895   7.955  24.661  1.00  0.00     0.003 C 
HETATM   15  C10 UNL     1       5.274   6.894  23.684  1.00  0.00     0.019 C 
HETATM   16  C11 UNL     1       6.478   6.077  24.086  1.00  0.00     0.117 C 
ENDBRANCH  10  11
ENDBRANCH   9  10
ENDBRANCH   8   9
ENDBRANCH   1   8
BRANCH   5  17
HETATM   17  N2  UNL     1       9.675   3.032  30.295  1.00  0.00    -0.073 N 
ATOM     18  H23 UNL     1       9.394   2.062  30.439  1.00  0.00     0.274 HD
ATOM     19  H22 UNL     1       9.942   2.987  29.312  1.00  0.00     0.274 HD
ATOM     20  H21 UNL     1      10.478   3.268  30.879  1.00  0.00     0.274 HD
ENDBRANCH   5  17
TORSDOF 6
ENDMDL
MODEL 2
REMARK VINA RESULT: -6.529542030      0.468      1.275
REMARK  6 active torsions:
REMARK  status: ('A' for Active; 'I' for Inactive)
REMARK    1  A    between atoms: C2_2  and  C3_3 
REMARK    2  A    between atoms: C3_3  and  C4_4 
REMARK    3  A    between atoms: C4_4  and  C5_5 
REMARK    4  A    between atoms: C5_5  and  C6_6 
REMARK    5  A    between atoms: C6_6  and  N1_7 
REMARK    6  A    between atoms: C14_16  and  N2_17 
ROOT
HETATM    1  C3  UNL     1       7.501   3.572  29.551  1.00  0.00     0.036 C 
HETATM    2  S1  UNL     1       6.536   5.030  30.135  1.00  0.00    -0.157 SA
HETATM    3  C12 UNL     1       7.933   5.965  30.876  1.00  0.00     0.077 C 
HETATM    4  C13 UNL     1       9.105   5.161  30.402  1.00  0.00     0.044 C 
HETATM    5  C14 UNL     1       8.711   3.710  30.444  1.00  0.00     0.202 C 
ENDROOT
BRANCH   1   6
HETATM    6  C2  UNL     1       6.755   2.308  29.770  1.00  0.00     0.018 C 
HETATM    7  C1  UNL     1       6.878   1.339  28.607  1.00  0.00     0.006 C 
ENDBRANCH   1   6
BRANCH   1   8
HETATM    8  C4  UNL     1       7.782   3.817  28.118  1.00  0.00     0.024 C 
BRANCH   8   9
HETATM    9  C5  UNL     1       6.810   4.804  27.566  1.00  0.00     0.021 C 
BRANCH   9  10
HETATM   10  C6  UNL     1       6.463   4.488  26.099  1.00  0.00     0.117 C 
BRANCH  10  11
HETATM   11  N1  UNL     1       5.777   5.634  25.605  1.00  0.00    -0.412 N 
HETATM   12  C7  UNL     1       6.375   6.250  24.461  1.00  0.00     0.117 C 
HETATM   13  C8  UNL     1       5.219   6.859  23.655  1.00  0.00     0.019 C 
HETATM   14  C9  UNL     1       4.407   7.761  24.552  1.00  0.00     0.003 C 
HETATM   15  C10 UNL     1       4.929   7.865  25.945  1.00  0.00     0.019 C 
HETATM   16  C11 UNL     1       5.275   6.541  26.581  1.00  0.00     0.117 C 
ENDBRANCH  10  11
ENDBRANCH   9  10
ENDBRANCH   8   9
ENDBRANCH   1   8
BRANCH   5  17
HETATM   17  N2  UNL     1       9.786   2.866  30.068  1.00  0.00    -0.073 N 
ATOM     18  H23 UNL     1       9.972   2.942  29.068  1.00  0.00     0.274 HD
ATOM     19  H22 UNL     1      10.669   3.222  30.433  1.00  0.00     0.274 HD
ATOM     20  H21 UNL     1       9.648   1.892  30.338  1.00  0.00     0.274 HD
ENDBRANCH   5  17
TORSDOF 6
ENDMDL
MODEL 3
REMARK VINA RESULT: -6.233140282      1.426      1.817
REMARK  6 active torsions:
REMARK  status: ('A' for Active; 'I' for Inactive)
REMARK    1  A    between atoms: C2_2  and  C3_3 
REMARK    2  A    between atoms: C3_3  and  C4_4 
REMARK    3  A    between atoms: C4_4  and  C5_5 
REMARK    4  A    between atoms: C5_5  and  C6_6 
REMARK    5  A    between atoms: C6_6  and  N1_7 
REMARK    6  A    between atoms: C14_16  and  N2_17 
ROOT
HETATM    1  C3  UNL     1       7.471   3.423  30.066  1.00  0.00     0.036 C 
HETATM    2  S1  UNL     1       6.355   3.847  31.471  1.00  0.00    -0.157 SA
HETATM    3  C12 UNL     1       7.627   3.856  32.796  1.00  0.00     0.077 C 
HETATM    4  C13 UNL     1       8.887   3.750  31.992  1.00  0.00     0.044 C 
HETATM    5  C14 UNL     1       8.617   2.820  30.841  1.00  0.00     0.202 C 
ENDROOT
BRANCH   1   6
HETATM    6  C2  UNL     1       6.826   2.463  29.135  1.00  0.00     0.018 C 
HETATM    7  C1  UNL     1       6.682   1.072  29.726  1.00  0.00     0.006 C 
ENDBRANCH   1   6
BRANCH   1   8
HETATM    8  C4  UNL     1       7.802   4.707  29.407  1.00  0.00     0.024 C 
BRANCH   8   9
HETATM    9  C5  UNL     1       6.796   5.016  28.350  1.00  0.00     0.021 C 
BRANCH   9  10
HETATM   10  C6  UNL     1       6.083   6.353  28.628  1.00  0.00     0.117 C 
BRANCH  10  11
HETATM   11  N1  UNL     1       5.650   6.835  27.360  1.00  0.00    -0.412 N 
HETATM   12  C7  UNL     1       4.333   7.392  27.342  1.00  0.00     0.117 C 
HETATM   13  C8  UNL     1       4.349   8.483  26.262  1.00  0.00     0.019 C 
HETATM   14  C9  UNL     1       4.842   7.892  24.964  1.00  0.00     0.003 C 
HETATM   15  C10 UNL     1       5.149   6.434  25.036  1.00  0.00     0.019 C 
HETATM   16  C11 UNL     1       5.976   6.030  26.232  1.00  0.00     0.117 C 
ENDBRANCH  10  11
ENDBRANCH   9  10
ENDBRANCH   8   9
ENDBRANCH   1   8
BRANCH   5  17
HETATM   17  N2  UNL     1       9.778   2.611  30.056  1.00  0.00    -0.073 N 
ATOM     18  H23 UNL     1       9.565   2.704  29.063  1.00  0.00     0.274 HD
ATOM     19  H22 UNL     1      10.431   3.388  30.162  1.00  0.00     0.274 HD
ATOM     20  H21 UNL     1      10.240   1.722  30.246  1.00  0.00     0.274 HD
ENDBRANCH   5  17
TORSDOF 6
ENDMDL
MODEL 4
REMARK VINA RESULT: -6.184033497      1.760      2.367
REMARK  6 active torsions:
REMARK  status: ('A' for Active; 'I' for Inactive)
REMARK    1  A    between atoms: C2_2  and  C3_3 
REMARK    2  A    between atoms: C3_3  and  C4_4 
REMARK    3  A    between atoms: C4_4  and  C5_5 
REMARK    4  A    between atoms: C5_5  and  C6_6 
REMARK    5  A    between atoms: C6_6  and  N1_7 
REMARK    6  A    between atoms: C14_16  and  N2_17 
ROOT
HETATM    1  C3  UNL     1       7.847   3.274  30.505  1.00  0.00     0.036 C 
HETATM    2  S1  UNL     1       8.342   3.601  32.251  1.00  0.00    -0.157 SA
HETATM    3  C12 UNL     1      10.078   3.015  32.124  1.00  0.00     0.077 C 
HETATM    4  C13 UNL     1      10.212   2.817  30.645  1.00  0.00     0.044 C 
HETATM    5  C14 UNL     1       8.907   2.266  30.138  1.00  0.00     0.202 C 
ENDROOT
BRANCH   1   6
HETATM    6  C2  UNL     1       6.469   2.728  30.428  1.00  0.00     0.018 C 
HETATM    7  C1  UNL     1       6.293   1.450  31.230  1.00  0.00     0.006 C 
ENDBRANCH   1   6
BRANCH   1   8
HETATM    8  C4  UNL     1       7.978   4.568  29.796  1.00  0.00     0.024 C 
BRANCH   8   9
HETATM    9  C5  UNL     1       6.768   4.820  28.961  1.00  0.00     0.021 C 
BRANCH   9  10
HETATM   10  C6  UNL     1       6.291   6.279  29.092  1.00  0.00     0.117 C 
BRANCH  10  11
HETATM   11  N1  UNL     1       5.789   6.642  27.810  1.00  0.00    -0.412 N 
HETATM   12  C7  UNL     1       4.447   7.134  27.802  1.00  0.00     0.117 C 
HETATM   13  C8  UNL     1       4.370   8.139  26.644  1.00  0.00     0.019 C 
HETATM   14  C9  UNL     1       4.844   7.473  25.375  1.00  0.00     0.003 C 
HETATM   15  C10 UNL     1       5.224   6.041  25.545  1.00  0.00     0.019 C 
HETATM   16  C11 UNL     1       6.114   5.768  26.733  1.00  0.00     0.117 C 
ENDBRANCH  10  11
ENDBRANCH   9  10
ENDBRANCH   8   9
ENDBRANCH   1   8
BRANCH   5  17
HETATM   17  N2  UNL     1       8.963   1.988  28.749  1.00  0.00    -0.073 N 
ATOM     18  H23 UNL     1       9.600   1.215  28.560  1.00  0.00     0.274 HD
ATOM     19  H22 UNL     1       8.089   1.569  28.429  1.00  0.00     0.274 HD
ATOM     20  H21 UNL     1       9.202   2.802  28.184  1.00  0.00     0.274 HD
ENDBRANCH   5  17
TORSDOF 6
ENDMDL
MODEL 5
REMARK VINA RESULT: -6.059979038      3.269      7.334
REMARK  6 active torsions:
REMARK  status: ('A' for Active; 'I' for Inactive)
REMARK    1  A    between atoms: C2_2  and  C3_3 
REMARK    2  A    between atoms: C3_3  and  C4_4 
REMARK    3  A    between atoms: C4_4  and  C5_5 
REMARK    4  A    between atoms: C5_5  and  C6_6 
REMARK    5  A    between atoms: C6_6  and  N1_7 
REMARK    6  A    between atoms: C14_16  and  N2_17 
ROOT
HETATM    1  C3  UNL     1       7.884   2.882  29.460  1.00  0.00     0.036 C 
HETATM    2  S1  UNL     1       7.048   4.321  30.255  1.00  0.00    -0.157 SA
HETATM    3  C12 UNL     1       6.531   5.180  28.717  1.00  0.00     0.077 C 
HETATM    4  C13 UNL     1       6.855   4.147  27.682  1.00  0.00     0.044 C 
HETATM    5  C14 UNL     1       8.135   3.474  28.094  1.00  0.00     0.202 C 
ENDROOT
BRANCH   1   6
HETATM    6  C2  UNL     1       9.131   2.519  30.178  1.00  0.00     0.018 C 
HETATM    7  C1  UNL     1       9.595   3.596  31.142  1.00  0.00     0.006 C 
ENDBRANCH   1   6
BRANCH   1   8
HETATM    8  C4  UNL     1       6.893   1.782  29.465  1.00  0.00     0.024 C 
BRANCH   8   9
HETATM    9  C5  UNL     1       6.422   1.521  30.856  1.00  0.00     0.021 C 
BRANCH   9  10
HETATM   10  C6  UNL     1       6.480   0.020  31.195  1.00  0.00     0.117 C 
BRANCH  10  11
HETATM   11  N1  UNL     1       6.556  -0.056  32.615  1.00  0.00    -0.412 N 
HETATM   12  C7  UNL     1       5.355   0.298  33.305  1.00  0.00     0.117 C 
HETATM   13  C8  UNL     1       5.341  -0.541  34.591  1.00  0.00     0.019 C 
HETATM   14  C9  UNL     1       6.632  -0.324  35.341  1.00  0.00     0.003 C 
HETATM   15  C10 UNL     1       7.559   0.648  34.691  1.00  0.00     0.019 C 
HETATM   16  C11 UNL     1       7.755   0.426  33.211  1.00  0.00     0.117 C 
ENDBRANCH  10  11
ENDBRANCH   9  10
ENDBRANCH   8   9
ENDBRANCH   1   8
BRANCH   5  17
HETATM   17  N2  UNL     1       8.553   2.517  27.136  1.00  0.00    -0.073 N 
ATOM     18  H23 UNL     1       9.523   2.677  26.865  1.00  0.00     0.274 HD
ATOM     19  H22 UNL     1       8.646   1.595  27.562  1.00  0.00     0.274 HD
ATOM     20  H21 UNL     1       7.950   2.477  26.315  1.00  0.00     0.274 HD
ENDBRANCH   5  17
TORSDOF 6
ENDMDL
