MODEL 1
REMARK VINA RESULT: -6.858744392      0.000      0.000
REMARK  6 active torsions:
REMARK  status: ('A' for Active; 'I' for Inactive)
REMARK    1  A    between atoms: C2_2  and  S1_3 
REMARK    2  A    between atoms: S1_3  and  C3_4 
REMARK    3  A    between atoms: C3_4  and  N1_5 
REMARK    4  A    between atoms: C3_4  and  C12_15 
REMARK       I    between atoms: N1_5  and  C4_6 
REMARK    5  A    between atoms: C4_6  and  C5_8 
REMARK    6  A    between atoms: C5_8  and  C6_9 
ROOT
HETATM    1  N1  UNL     1       4.644   7.755  24.960  1.00  0.00    -0.356 NA
HETATM    2  C4  UNL     1       4.712   7.584  23.660  1.00  0.00     0.296 C 
HETATM    3  O1  UNL     1       5.601   6.804  23.154  1.00  0.00    -0.257 OA
ENDROOT
BRANCH   2   4
HETATM    4  C5  UNL     1       3.808   8.253  22.703  1.00  0.00     0.146 C 
BRANCH   4   5
HETATM    5  C6  UNL     1       3.982   8.084  21.269  1.00  0.00    -0.014 C 
HETATM    6  C7  UNL     1       2.996   8.438  20.272  1.00  0.00    -0.083 C 
HETATM    7  C8  UNL     1       2.532   9.874  20.254  1.00  0.00     0.034 C 
HETATM    8  C11 UNL     1       1.809   7.584  20.033  1.00  0.00     0.034 C 
HETATM    9  C9  UNL     1       1.147   9.752  20.899  1.00  0.00     0.005 C 
HETATM   10  C10 UNL     1       0.649   8.371  20.626  1.00  0.00     0.005 C 
ENDBRANCH   4   5
ENDBRANCH   2   4
BRANCH   1  11
HETATM   11  C3  UNL     1       4.671   7.958  26.146  1.00  0.00     0.223 C 
BRANCH  11  12
HETATM   12  S1  UNL     1       5.382   6.723  27.219  1.00  0.00    -0.091 SA
BRANCH  12  13
HETATM   13  C2  UNL     1       6.305   5.446  26.375  1.00  0.00     0.077 C 
HETATM   14  C1  UNL     1       7.047   4.559  27.357  1.00  0.00     0.016 C 
ENDBRANCH  12  13
ENDBRANCH  11  12
BRANCH  11  15
HETATM   15  C12 UNL     1       4.101   9.195  26.687  1.00  0.00     0.248 C 
HETATM   16  O2  UNL     1       4.559  10.291  26.187  1.00  0.00    -0.642 OA
HETATM   17  O3  UNL     1       3.151   9.207  27.659  1.00  0.00    -0.642 OA
ENDBRANCH  11  15
ENDBRANCH   1  11
TORSDOF 6
ENDMDL
MODEL 2
REMARK VINA RESULT: -6.854195580      4.805      6.826
REMARK  6 active torsions:
REMARK  status: ('A' for Active; 'I' for Inactive)
REMARK    1  A    between atoms: C2_2  and  S1_3 
REMARK    2  A    between atoms: S1_3  and  C3_4 
REMARK    3  A    between atoms: C3_4  and  N1_5 
REMARK    4  A    between atoms: C3_4  and  C12_15 
REMARK       I    between atoms: N1_5  and  C4_6 
REMARK    5  A    between atoms: C4_6  and  C5_8 
REMARK    6  A    between atoms: C5_8  and  C6_9 
ROOT
HETATM    1  N1  UNL     1       0.733   9.659  20.503  1.00  0.00    -0.356 NA
HETATM    2  C4  UNL     1       1.056  10.881  20.857  1.00  0.00     0.296 C 
HETATM    3  O1  UNL     1       1.062  11.829  19.987  1.00  0.00    -0.257 OA
ENDROOT
BRANCH   2   4
HETATM    4  C5  UNL     1       1.432  11.256  22.235  1.00  0.00     0.146 C 
BRANCH   4   5
HETATM    5  C6  UNL     1       2.614  12.062  22.494  1.00  0.00    -0.014 C 
HETATM    6  C7  UNL     1       3.316  12.114  23.757  1.00  0.00    -0.083 C 
HETATM    7  C8  UNL     1       3.838  10.806  24.299  1.00  0.00     0.034 C 
HETATM    8  C11 UNL     1       2.776  12.887  24.901  1.00  0.00     0.034 C 
HETATM    9  C9  UNL     1       2.824  10.515  25.412  1.00  0.00     0.005 C 
HETATM   10  C10 UNL     1       2.283  11.827  25.876  1.00  0.00     0.005 C 
ENDBRANCH   4   5
ENDBRANCH   2   4
BRANCH   1  11
HETATM   11  C3  UNL     1       0.521   8.536  20.123  1.00  0.00     0.223 C 
BRANCH  11  12
HETATM   12  S1  UNL     1       1.859   7.356  20.123  1.00  0.00    -0.091 SA
BRANCH  12  13
HETATM   13  C2  UNL     1       3.466   8.053  20.476  1.00  0.00     0.077 C 
HETATM   14  C1  UNL     1       3.816   7.920  21.947  1.00  0.00     0.016 C 
ENDBRANCH  12  13
ENDBRANCH  11  12
BRANCH  11  15
HETATM   15  C12 UNL     1      -0.814   8.168  19.646  1.00  0.00     0.248 C 
HETATM   16  O2  UNL     1      -1.459   9.088  19.014  1.00  0.00    -0.642 OA
HETATM   17  O3  UNL     1      -1.359   6.940  19.851  1.00  0.00    -0.642 OA
ENDBRANCH  11  15
ENDBRANCH   1  11
TORSDOF 6
ENDMDL
MODEL 3
REMARK VINA RESULT: -6.851239481      2.047      3.569
REMARK  6 active torsions:
REMARK  status: ('A' for Active; 'I' for Inactive)
REMARK    1  A    between atoms: C2_2  and  S1_3 
REMARK    2  A    between atoms: S1_3  and  C3_4 
REMARK    3  A    between atoms: C3_4  and  N1_5 
REMARK    4  A    between atoms: C3_4  and  C12_15 
REMARK       I    between atoms: N1_5  and  C4_6 
REMARK    5  A    between atoms: C4_6  and  C5_8 
REMARK    6  A    between atoms: C5_8  and  C6_9 
ROOT
HETATM    1  N1  UNL     1       5.130   7.339  25.817  1.00  0.00    -0.356 NA
HETATM    2  C4  UNL     1       4.220   8.194  26.227  1.00  0.00     0.296 C 
HETATM    3  O1  UNL     1       3.759   8.125  27.426  1.00  0.00    -0.257 OA
ENDROOT
BRANCH   2   4
HETATM    4  C5  UNL     1       3.667   9.265  25.374  1.00  0.00     0.146 C 
BRANCH   4   5
HETATM    5  C6  UNL     1       4.383   9.724  24.194  1.00  0.00    -0.014 C 
HETATM    6  C7  UNL     1       3.826  10.589  23.179  1.00  0.00    -0.083 C 
HETATM    7  C8  UNL     1       3.305  11.929  23.636  1.00  0.00     0.034 C 
HETATM    8  C11 UNL     1       2.880  10.067  22.164  1.00  0.00     0.034 C 
HETATM    9  C9  UNL     1       1.791  11.694  23.598  1.00  0.00     0.005 C 
HETATM   10  C10 UNL     1       1.531  10.640  22.572  1.00  0.00     0.005 C 
ENDBRANCH   4   5
ENDBRANCH   2   4
BRANCH   1  11
HETATM   11  C3  UNL     1       5.893   6.484  25.449  1.00  0.00     0.223 C 
BRANCH  11  12
HETATM   12  S1  UNL     1       6.386   5.212  26.598  1.00  0.00    -0.091 SA
BRANCH  12  13
HETATM   13  C2  UNL     1       6.841   3.660  25.839  1.00  0.00     0.077 C 
HETATM   14  C1  UNL     1       7.924   2.952  26.634  1.00  0.00     0.016 C 
ENDBRANCH  12  13
ENDBRANCH  11  12
BRANCH  11  15
HETATM   15  C12 UNL     1       6.420   6.517  24.083  1.00  0.00     0.248 C 
HETATM   16  O2  UNL     1       5.544   6.634  23.144  1.00  0.00    -0.642 OA
HETATM   17  O3  UNL     1       7.747   6.428  23.800  1.00  0.00    -0.642 OA
ENDBRANCH  11  15
ENDBRANCH   1  11
TORSDOF 6
ENDMDL
MODEL 4
REMARK VINA RESULT: -6.830044961      1.545      2.915
REMARK  6 active torsions:
REMARK  status: ('A' for Active; 'I' for Inactive)
REMARK    1  A    between atoms: C2_2  and  S1_3 
REMARK    2  A    between atoms: S1_3  and  C3_4 
REMARK    3  A    between atoms: C3_4  and  N1_5 
REMARK    4  A    between atoms: C3_4  and  C12_15 
REMARK       I    between atoms: N1_5  and  C4_6 
REMARK    5  A    between atoms: C4_6  and  C5_8 
REMARK    6  A    between atoms: C5_8  and  C6_9 
ROOT
HETATM    1  N1  UNL     1       5.214   7.753  24.807  1.00  0.00    -0.356 NA
HETATM    2  C4  UNL     1       4.585   8.774  24.271  1.00  0.00     0.296 C 
HETATM    3  O1  UNL     1       4.769   9.962  24.728  1.00  0.00    -0.257 OA
ENDROOT
BRANCH   2   4
HETATM    4  C5  UNL     1       3.643   8.647  23.141  1.00  0.00     0.146 C 
BRANCH   4   5
HETATM    5  C6  UNL     1       4.110   8.253  21.821  1.00  0.00    -0.014 C 
HETATM    6  C7  UNL     1       3.329   8.355  20.608  1.00  0.00    -0.083 C 
HETATM    7  C8  UNL     1       2.815   9.725  20.242  1.00  0.00     0.034 C 
HETATM    8  C11 UNL     1       2.254   7.381  20.306  1.00  0.00     0.034 C 
HETATM    9  C9  UNL     1       1.335   9.604  20.624  1.00  0.00     0.005 C 
HETATM   10  C10 UNL     1       0.965   8.162  20.515  1.00  0.00     0.005 C 
ENDBRANCH   4   5
ENDBRANCH   2   4
BRANCH   1  11
HETATM   11  C3  UNL     1       5.736   6.833  25.382  1.00  0.00     0.223 C 
BRANCH  11  12
HETATM   12  S1  UNL     1       5.373   6.574  27.109  1.00  0.00    -0.091 SA
BRANCH  12  13
HETATM   13  C2  UNL     1       4.209   7.737  27.807  1.00  0.00     0.077 C 
HETATM   14  C1  UNL     1       3.544   7.175  29.051  1.00  0.00     0.016 C 
ENDBRANCH  12  13
ENDBRANCH  11  12
BRANCH  11  15
HETATM   15  C12 UNL     1       6.672   5.964  24.666  1.00  0.00     0.248 C 
HETATM   16  O2  UNL     1       7.403   6.539  23.773  1.00  0.00    -0.642 OA
HETATM   17  O3  UNL     1       6.778   4.631  24.911  1.00  0.00    -0.642 OA
ENDBRANCH  11  15
ENDBRANCH   1  11
TORSDOF 6
ENDMDL
MODEL 5
REMARK VINA RESULT: -6.827728791      2.587      3.615
REMARK  6 active torsions:
REMARK  status: ('A' for Active; 'I' for Inactive)
REMARK    1  A    between atoms: C2_2  and  S1_3 
REMARK    2  A    between atoms: S1_3  and  C3_4 
REMARK    3  A    between atoms: C3_4  and  N1_5 
REMARK    4  A    between atoms: C3_4  and  C12_15 
REMARK       I    between atoms: N1_5  and  C4_6 
REMARK    5  A    between atoms: C4_6  and  C5_8 
REMARK    6  A    between atoms: C5_8  and  C6_9 
ROOT
HETATM    1  N1  UNL     1       5.115   7.419  23.920  1.00  0.00    -0.356 NA
HETATM    2  C4  UNL     1       4.647   8.100  22.899  1.00  0.00     0.296 C 
HETATM    3  O1  UNL     1       4.515   7.538  21.749  1.00  0.00    -0.257 OA
ENDROOT
BRANCH   2   4
HETATM    4  C5  UNL     1       4.253   9.521  22.981  1.00  0.00     0.146 C 
BRANCH   4   5
HETATM    5  C6  UNL     1       2.973   9.909  23.553  1.00  0.00    -0.014 C 
HETATM    6  C7  UNL     1       1.940  10.631  22.845  1.00  0.00    -0.083 C 
HETATM    7  C8  UNL     1       1.415  10.002  21.578  1.00  0.00     0.034 C 
HETATM    8  C11 UNL     1       2.055  12.089  22.604  1.00  0.00     0.034 C 
HETATM    9  C9  UNL     1       2.095  10.865  20.509  1.00  0.00     0.005 C 
HETATM   10  C10 UNL     1       2.351  12.205  21.116  1.00  0.00     0.005 C 
ENDBRANCH   4   5
ENDBRANCH   2   4
BRANCH   1  11
HETATM   11  C3  UNL     1       5.632   6.790  24.806  1.00  0.00     0.223 C 
BRANCH  11  12
HETATM   12  S1  UNL     1       5.015   6.974  26.470  1.00  0.00    -0.091 SA
BRANCH  12  13
HETATM   13  C2  UNL     1       4.206   8.534  26.796  1.00  0.00     0.077 C 
HETATM   14  C1  UNL     1       3.790   8.648  28.251  1.00  0.00     0.016 C 
ENDBRANCH  12  13
ENDBRANCH  11  12
BRANCH  11  15
HETATM   15  C12 UNL     1       6.766   5.911  24.512  1.00  0.00     0.248 C 
HETATM   16  O2  UNL     1       7.701   6.423  23.787  1.00  0.00    -0.642 OA
HETATM   17  O3  UNL     1       6.845   4.631  24.962  1.00  0.00    -0.642 OA
ENDBRANCH  11  15
ENDBRANCH   1  11
TORSDOF 6
ENDMDL
