MODEL 1
REMARK VINA RESULT: -7.690276772      0.000      0.000
REMARK  5 active torsions:
REMARK  status: ('A' for Active; 'I' for Inactive)
REMARK    1  A    between atoms: C2_2  and  C3_3 
REMARK    2  A    between atoms: C3_3  and  S1_6 
REMARK    3  A    between atoms: S1_6  and  C5_7 
REMARK    4  A    between atoms: C5_7  and  C6_8 
REMARK       I    between atoms: C6_8  and  N2_10 
REMARK    5  A    between atoms: N2_10  and  C7_12 
ROOT
HETATM    1  C3  UNL     1       4.300   9.430  22.751  1.00  0.00     0.154 C 
HETATM    2  C4  UNL     1       3.993  10.749  23.440  1.00  0.00     0.074 C 
HETATM    3  N1  UNL     1       3.757  11.725  24.002  1.00  0.00    -0.196 NA
ENDROOT
BRANCH   1   4
HETATM    4  C2  UNL     1       3.031   9.123  22.002  1.00  0.00     0.025 C 
HETATM    5  C1  UNL     1       3.347   8.260  20.788  1.00  0.00     0.007 C 
ENDBRANCH   1   4
BRANCH   1   6
HETATM    6  S1  UNL     1       4.602   8.218  24.041  1.00  0.00    -0.140 SA
BRANCH   6   7
HETATM    7  C5  UNL     1       5.268   6.682  23.470  1.00  0.00     0.177 C 
BRANCH   7   8
HETATM    8  C6  UNL     1       6.403   6.122  24.199  1.00  0.00     0.227 C 
HETATM    9  O1  UNL     1       7.573   6.393  23.912  1.00  0.00    -0.273 OA
HETATM   10  N2  UNL     1       6.095   5.246  25.291  1.00  0.00    -0.352 N 
ATOM     11  H2  UNL     1       5.115   5.036  25.478  1.00  0.00     0.163 HD
BRANCH  10  12
HETATM   12  C7  UNL     1       7.097   4.643  26.143  1.00  0.00     0.117 C 
HETATM   13  C8  UNL     1       6.943   3.161  26.040  1.00  0.00    -0.005 C 
HETATM   14  C9  UNL     1       7.628   2.176  26.821  1.00  0.00    -0.028 C 
HETATM   15  C10 UNL     1       7.108   1.641  28.166  1.00  0.00     0.038 C 
HETATM   16  C11 UNL     1       6.917   2.816  29.179  1.00  0.00     0.083 C 
HETATM   17  C12 UNL     1       6.837   3.985  28.407  1.00  0.00    -0.180 C 
HETATM   18  C13 UNL     1       6.758   5.118  27.621  1.00  0.00     0.109 C 
ENDBRANCH  10  12
ENDBRANCH   7   8
ENDBRANCH   6   7
ENDBRANCH   1   6
TORSDOF 5
ENDMDL
MODEL 2
REMARK VINA RESULT: -7.590423960      1.396      1.750
REMARK  5 active torsions:
REMARK  status: ('A' for Active; 'I' for Inactive)
REMARK    1  A    between atoms: C2_2  and  C3_3 
REMARK    2  A    between atoms: C3_3  and  S1_6 
REMARK    3  A    between atoms: S1_6  and  C5_7 
REMARK    4  A    between atoms: C5_7  and  C6_8 
REMARK       I    between atoms: C6_8  and  N2_10 
REMARK    5  A    between atoms: N2_10  and  C7_12 
ROOT
HETATM    1  C3  UNL     1       3.424   8.965  22.946  1.00  0.00     0.154 C 
HETATM    2  C4  UNL     1       3.452   8.508  21.497  1.00  0.00     0.074 C 
HETATM    3  N1  UNL     1       3.517   8.151  20.405  1.00  0.00    -0.196 NA
ENDROOT
BRANCH   1   4
HETATM    4  C2  UNL     1       3.383  10.466  22.839  1.00  0.00     0.025 C 
HETATM    5  C1  UNL     1       1.936  10.939  22.818  1.00  0.00     0.007 C 
ENDBRANCH   1   4
BRANCH   1   6
HETATM    6  S1  UNL     1       4.954   8.409  23.704  1.00  0.00    -0.140 SA
BRANCH   6   7
HETATM    7  C5  UNL     1       5.321   6.697  23.458  1.00  0.00     0.177 C 
BRANCH   7   8
HETATM    8  C6  UNL     1       6.446   6.131  24.198  1.00  0.00     0.227 C 
HETATM    9  O1  UNL     1       7.620   6.382  23.910  1.00  0.00    -0.273 OA
HETATM   10  N2  UNL     1       6.124   5.275  25.300  1.00  0.00    -0.352 N 
ATOM     11  H2  UNL     1       5.140   5.081  25.488  1.00  0.00     0.163 HD
BRANCH  10  12
HETATM   12  C7  UNL     1       7.115   4.669  26.163  1.00  0.00     0.117 C 
HETATM   13  C8  UNL     1       6.972   3.187  26.043  1.00  0.00    -0.005 C 
HETATM   14  C9  UNL     1       7.650   2.200  26.826  1.00  0.00    -0.028 C 
HETATM   15  C10 UNL     1       7.111   1.648  28.157  1.00  0.00     0.038 C 
HETATM   16  C11 UNL     1       6.896   2.812  29.178  1.00  0.00     0.083 C 
HETATM   17  C12 UNL     1       6.821   3.988  28.416  1.00  0.00    -0.180 C 
HETATM   18  C13 UNL     1       6.748   5.128  27.640  1.00  0.00     0.109 C 
ENDBRANCH  10  12
ENDBRANCH   7   8
ENDBRANCH   6   7
ENDBRANCH   1   6
TORSDOF 5
ENDMDL
MODEL 3
REMARK VINA RESULT: -7.544364530      1.683      2.312
REMARK  5 active torsions:
REMARK  status: ('A' for Active; 'I' for Inactive)
REMARK    1  A    between atoms: C2_2  and  C3_3 
REMARK    2  A    between atoms: C3_3  and  S1_6 
REMARK    3  A    between atoms: S1_6  and  C5_7 
REMARK    4  A    between atoms: C5_7  and  C6_8 
REMARK       I    between atoms: C6_8  and  N2_10 
REMARK    5  A    between atoms: N2_10  and  C7_12 
ROOT
HETATM    1  C3  UNL     1       3.912   8.618  25.372  1.00  0.00     0.154 C 
HETATM    2  C4  UNL     1       3.660  10.104  25.565  1.00  0.00     0.074 C 
HETATM    3  N1  UNL     1       3.501  11.238  25.679  1.00  0.00    -0.196 NA
ENDROOT
BRANCH   1   4
HETATM    4  C2  UNL     1       4.710   8.237  26.589  1.00  0.00     0.025 C 
HETATM    5  C1  UNL     1       3.874   8.459  27.842  1.00  0.00     0.007 C 
ENDBRANCH   1   4
BRANCH   1   6
HETATM    6  S1  UNL     1       4.884   8.437  23.874  1.00  0.00    -0.140 SA
BRANCH   6   7
HETATM    7  C5  UNL     1       5.305   6.769  23.463  1.00  0.00     0.177 C 
BRANCH   7   8
HETATM    8  C6  UNL     1       6.436   6.164  24.162  1.00  0.00     0.227 C 
HETATM    9  O1  UNL     1       7.608   6.417  23.866  1.00  0.00    -0.273 OA
HETATM   10  N2  UNL     1       6.123   5.265  25.232  1.00  0.00    -0.352 N 
ATOM     11  H2  UNL     1       5.141   5.072  25.426  1.00  0.00     0.163 HD
BRANCH  10  12
HETATM   12  C7  UNL     1       7.122   4.616  26.054  1.00  0.00     0.117 C 
HETATM   13  C8  UNL     1       6.939   3.141  25.905  1.00  0.00    -0.005 C 
HETATM   14  C9  UNL     1       7.613   2.120  26.647  1.00  0.00    -0.028 C 
HETATM   15  C10 UNL     1       7.096   1.551  27.979  1.00  0.00     0.038 C 
HETATM   16  C11 UNL     1       6.938   2.696  29.032  1.00  0.00     0.083 C 
HETATM   17  C12 UNL     1       6.872   3.891  28.298  1.00  0.00    -0.180 C 
HETATM   18  C13 UNL     1       6.807   5.050  27.550  1.00  0.00     0.109 C 
ENDBRANCH  10  12
ENDBRANCH   7   8
ENDBRANCH   6   7
ENDBRANCH   1   6
TORSDOF 5
ENDMDL
MODEL 4
REMARK VINA RESULT: -7.503053132      3.646      5.325
REMARK  5 active torsions:
REMARK  status: ('A' for Active; 'I' for Inactive)
REMARK    1  A    between atoms: C2_2  and  C3_3 
REMARK    2  A    between atoms: C3_3  and  S1_6 
REMARK    3  A    between atoms: S1_6  and  C5_7 
REMARK    4  A    between atoms: C5_7  and  C6_8 
REMARK       I    between atoms: C6_8  and  N2_10 
REMARK    5  A    between atoms: N2_10  and  C7_12 
ROOT
HETATM    1  C3  UNL     1       0.934   8.820  20.726  1.00  0.00     0.154 C 
HETATM    2  C4  UNL     1       1.977   7.787  20.335  1.00  0.00     0.074 C 
HETATM    3  N1  UNL     1       2.794   7.038  20.026  1.00  0.00    -0.196 NA
ENDROOT
BRANCH   1   4
HETATM    4  C2  UNL     1      -0.112   8.685  19.652  1.00  0.00     0.025 C 
HETATM    5  C1  UNL     1      -0.952   7.441  19.907  1.00  0.00     0.007 C 
ENDBRANCH   1   4
BRANCH   1   6
HETATM    6  S1  UNL     1       1.731  10.427  20.658  1.00  0.00    -0.140 SA
BRANCH   6   7
HETATM    7  C5  UNL     1       1.916  11.228  22.224  1.00  0.00     0.177 C 
BRANCH   7   8
HETATM    8  C6  UNL     1       3.121  10.938  22.996  1.00  0.00     0.227 C 
HETATM    9  O1  UNL     1       3.850  11.828  23.444  1.00  0.00    -0.273 OA
HETATM   10  N2  UNL     1       3.415   9.556  23.232  1.00  0.00    -0.352 N 
ATOM     11  H2  UNL     1       2.795   8.855  22.826  1.00  0.00     0.163 HD
BRANCH  10  12
HETATM   12  C7  UNL     1       4.543   9.097  24.014  1.00  0.00     0.117 C 
HETATM   13  C8  UNL     1       4.792   7.670  23.652  1.00  0.00    -0.005 C 
HETATM   14  C9  UNL     1       5.717   6.779  24.284  1.00  0.00    -0.028 C 
HETATM   15  C10 UNL     1       5.360   5.896  25.493  1.00  0.00     0.038 C 
HETATM   16  C11 UNL     1       4.863   6.780  26.682  1.00  0.00     0.083 C 
HETATM   17  C12 UNL     1       4.471   8.004  26.118  1.00  0.00    -0.180 C 
HETATM   18  C13 UNL     1       4.091   9.196  25.535  1.00  0.00     0.109 C 
ENDBRANCH  10  12
ENDBRANCH   7   8
ENDBRANCH   6   7
ENDBRANCH   1   6
TORSDOF 5
ENDMDL
MODEL 5
REMARK VINA RESULT: -7.477472547      1.617      1.900
REMARK  5 active torsions:
REMARK  status: ('A' for Active; 'I' for Inactive)
REMARK    1  A    between atoms: C2_2  and  C3_3 
REMARK    2  A    between atoms: C3_3  and  S1_6 
REMARK    3  A    between atoms: S1_6  and  C5_7 
REMARK    4  A    between atoms: C5_7  and  C6_8 
REMARK       I    between atoms: C6_8  and  N2_10 
REMARK    5  A    between atoms: N2_10  and  C7_12 
ROOT
HETATM    1  C3  UNL     1       4.489   9.576  24.925  1.00  0.00     0.154 C 
HETATM    2  C4  UNL     1       4.352   8.585  26.069  1.00  0.00     0.074 C 
HETATM    3  N1  UNL     1       4.251   7.801  26.905  1.00  0.00    -0.196 NA
ENDROOT
BRANCH   1   4
HETATM    4  C2  UNL     1       3.099  10.134  24.777  1.00  0.00     0.025 C 
HETATM    5  C1  UNL     1       2.765  10.295  23.300  1.00  0.00     0.007 C 
ENDBRANCH   1   4
BRANCH   1   6
HETATM    6  S1  UNL     1       4.971   8.640  23.471  1.00  0.00    -0.140 SA
BRANCH   6   7
HETATM    7  C5  UNL     1       4.963   6.884  23.686  1.00  0.00     0.177 C 
BRANCH   7   8
HETATM    8  C6  UNL     1       6.144   6.269  24.286  1.00  0.00     0.227 C 
HETATM    9  O1  UNL     1       7.285   6.479  23.865  1.00  0.00    -0.273 OA
HETATM   10  N2  UNL     1       5.919   5.414  25.413  1.00  0.00    -0.352 N 
ATOM     11  H2  UNL     1       4.957   5.254  25.713  1.00  0.00     0.163 HD
BRANCH  10  12
HETATM   12  C7  UNL     1       6.980   4.763  26.151  1.00  0.00     0.117 C 
HETATM   13  C8  UNL     1       6.831   3.290  25.951  1.00  0.00    -0.005 C 
HETATM   14  C9  UNL     1       7.574   2.260  26.611  1.00  0.00    -0.028 C 
HETATM   15  C10 UNL     1       7.148   1.623  27.946  1.00  0.00     0.038 C 
HETATM   16  C11 UNL     1       7.018   2.720  29.052  1.00  0.00     0.083 C 
HETATM   17  C12 UNL     1       6.877   3.940  28.374  1.00  0.00    -0.180 C 
HETATM   18  C13 UNL     1       6.738   5.126  27.679  1.00  0.00     0.109 C 
ENDBRANCH  10  12
ENDBRANCH   7   8
ENDBRANCH   6   7
ENDBRANCH   1   6
TORSDOF 5
ENDMDL
