MODEL 1
REMARK VINA RESULT: -3.368678801      0.000      0.000
REMARK  1 active torsions:
REMARK  status: ('A' for Active; 'I' for Inactive)
REMARK    1  A    between atoms: C2_2  and  N1_3 
ROOT
HETATM    1  N1  UNL     1      49.573  35.829  38.734  1.00  0.00     0.011 N 
HETATM    2  C3  UNL     1      49.385  35.230  40.066  1.00  0.00     0.268 C 
HETATM    3  C4  UNL     1      49.259  33.953  39.288  1.00  0.00     0.058 C 
HETATM    4  C5  UNL     1      48.079  34.231  38.406  1.00  0.00     0.150 C 
HETATM    5  N2  UNL     1      48.399  35.627  38.035  1.00  0.00    -0.046 NA
HETATM    6  C6  UNL     1      50.378  34.621  38.475  1.00  0.00     0.268 C 
ENDROOT
BRANCH   1   7
HETATM    7  C2  UNL     1      50.229  37.059  38.671  1.00  0.00     0.256 C 
HETATM    8  C1  UNL     1      50.444  37.744  40.003  1.00  0.00     0.036 C 
ENDBRANCH   1   7
TORSDOF 1
ENDMDL
MODEL 2
REMARK VINA RESULT: -3.160596421      1.024      1.664
REMARK  1 active torsions:
REMARK  status: ('A' for Active; 'I' for Inactive)
REMARK    1  A    between atoms: C2_2  and  N1_3 
ROOT
HETATM    1  N1  UNL     1      49.916  36.203  39.020  1.00  0.00     0.011 N 
HETATM    2  C3  UNL     1      50.697  35.131  38.378  1.00  0.00     0.268 C 
HETATM    3  C4  UNL     1      49.509  34.286  38.732  1.00  0.00     0.058 C 
HETATM    4  C5  UNL     1      49.465  34.404  40.226  1.00  0.00     0.150 C 
HETATM    5  N2  UNL     1      49.765  35.847  40.346  1.00  0.00    -0.046 NA
HETATM    6  C6  UNL     1      48.775  35.574  38.330  1.00  0.00     0.268 C 
ENDROOT
BRANCH   1   7
HETATM    7  C2  UNL     1      50.227  37.518  38.673  1.00  0.00     0.256 C 
HETATM    8  C1  UNL     1      50.497  38.445  39.838  1.00  0.00     0.036 C 
ENDBRANCH   1   7
TORSDOF 1
ENDMDL
MODEL 3
REMARK VINA RESULT: -3.006266411      0.903      1.572
REMARK  1 active torsions:
REMARK  status: ('A' for Active; 'I' for Inactive)
REMARK    1  A    between atoms: C2_2  and  N1_3 
ROOT
HETATM    1  N1  UNL     1      49.691  35.425  38.576  1.00  0.00     0.011 N 
HETATM    2  C3  UNL     1      48.324  34.996  38.235  1.00  0.00     0.268 C 
HETATM    3  C4  UNL     1      48.559  33.973  39.307  1.00  0.00     0.058 C 
HETATM    4  C5  UNL     1      49.745  33.223  38.780  1.00  0.00     0.150 C 
HETATM    5  N2  UNL     1      50.528  34.370  38.272  1.00  0.00    -0.046 NA
HETATM    6  C6  UNL     1      49.258  35.173  39.963  1.00  0.00     0.268 C 
ENDROOT
BRANCH   1   7
HETATM    7  C2  UNL     1      50.053  36.731  38.248  1.00  0.00     0.256 C 
HETATM    8  C1  UNL     1      50.430  37.610  39.421  1.00  0.00     0.036 C 
ENDBRANCH   1   7
TORSDOF 1
ENDMDL
MODEL 4
REMARK VINA RESULT: -2.889093417      1.209      3.104
REMARK  1 active torsions:
REMARK  status: ('A' for Active; 'I' for Inactive)
REMARK    1  A    between atoms: C2_2  and  N1_3 
ROOT
HETATM    1  N1  UNL     1      49.779  34.979  38.916  1.00  0.00     0.011 N 
HETATM    2  C3  UNL     1      48.806  35.732  38.106  1.00  0.00     0.268 C 
HETATM    3  C4  UNL     1      49.929  36.719  37.980  1.00  0.00     0.058 C 
HETATM    4  C5  UNL     1      50.185  37.097  39.407  1.00  0.00     0.150 C 
HETATM    5  N2  UNL     1      50.066  35.757  40.020  1.00  0.00    -0.046 NA
HETATM    6  C6  UNL     1      50.740  35.418  37.887  1.00  0.00     0.268 C 
ENDROOT
BRANCH   1   7
HETATM    7  C2  UNL     1      49.573  33.607  39.053  1.00  0.00     0.256 C 
HETATM    8  C1  UNL     1      48.173  33.129  38.731  1.00  0.00     0.036 C 
ENDBRANCH   1   7
TORSDOF 1
ENDMDL
MODEL 5
REMARK VINA RESULT: -2.872251705      1.295      3.170
REMARK  1 active torsions:
REMARK  status: ('A' for Active; 'I' for Inactive)
REMARK    1  A    between atoms: C2_2  and  N1_3 
ROOT
HETATM    1  N1  UNL     1      48.638  34.343  38.658  1.00  0.00     0.011 N 
HETATM    2  C3  UNL     1      50.064  33.975  38.663  1.00  0.00     0.268 C 
HETATM    3  C4  UNL     1      50.253  35.387  39.133  1.00  0.00     0.058 C 
HETATM    4  C5  UNL     1      49.677  36.181  38.000  1.00  0.00     0.150 C 
HETATM    5  N2  UNL     1      48.488  35.347  37.723  1.00  0.00    -0.046 NA
HETATM    6  C6  UNL     1      48.975  35.044  39.911  1.00  0.00     0.268 C 
ENDROOT
BRANCH   1   7
HETATM    7  C2  UNL     1      47.708  33.306  38.737  1.00  0.00     0.256 C 
HETATM    8  C1  UNL     1      46.534  33.420  37.789  1.00  0.00     0.036 C 
ENDBRANCH   1   7
TORSDOF 1
ENDMDL
