MODEL 1
REMARK VINA RESULT: -3.958160153      0.000      0.000
REMARK  1 active torsions:
REMARK  status: ('A' for Active; 'I' for Inactive)
REMARK    1  A    between atoms: C3_3  and  N1_4 
ROOT
HETATM    1  C1  UNL     1      50.526  38.012  39.008  1.00  0.00     0.013 C 
HETATM    2  C2  UNL     1      50.495  36.861  38.666  1.00  0.00    -0.089 C 
HETATM    3  C3  UNL     1      50.454  35.486  38.242  1.00  0.00     0.331 C 
ENDROOT
BRANCH   3   4
HETATM    4  N1  UNL     1      49.453  34.712  38.902  1.00  0.00    -0.036 N 
HETATM    5  C4  UNL     1      49.379  35.153  40.293  1.00  0.00     0.275 C 
HETATM    6  C5  UNL     1      48.184  34.912  38.217  1.00  0.00     0.267 C 
HETATM    7  C6  UNL     1      47.452  33.599  38.272  1.00  0.00     0.262 C 
HETATM    8  N2  UNL     1      48.298  32.769  39.087  1.00  0.00    -0.049 N 
HETATM    9  C7  UNL     1      49.654  33.304  38.878  1.00  0.00     0.468 C 
ATOM     10  H22 UNL     1      48.016  32.722  40.066  1.00  0.00     0.279 HD
ATOM     11  H21 UNL     1      48.210  31.771  38.894  1.00  0.00     0.279 HD
ENDBRANCH   3   4
TORSDOF 1
ENDMDL
MODEL 2
REMARK VINA RESULT: -3.369047620      1.437      3.704
REMARK  1 active torsions:
REMARK  status: ('A' for Active; 'I' for Inactive)
REMARK    1  A    between atoms: C3_3  and  N1_4 
ROOT
HETATM    1  C1  UNL     1      47.558  32.987  38.454  1.00  0.00     0.013 C 
HETATM    2  C2  UNL     1      47.977  34.094  38.254  1.00  0.00    -0.089 C 
HETATM    3  C3  UNL     1      48.482  35.418  38.000  1.00  0.00     0.331 C 
ENDROOT
BRANCH   3   4
HETATM    4  N1  UNL     1      49.675  35.725  38.720  1.00  0.00    -0.036 N 
HETATM    5  C4  UNL     1      50.774  34.966  38.128  1.00  0.00     0.275 C 
HETATM    6  C5  UNL     1      49.915  37.158  38.632  1.00  0.00     0.267 C 
HETATM    7  C6  UNL     1      50.508  37.579  39.948  1.00  0.00     0.262 C 
HETATM    8  N2  UNL     1      50.677  36.340  40.659  1.00  0.00    -0.049 N 
HETATM    9  C7  UNL     1      49.633  35.456  40.116  1.00  0.00     0.468 C 
ATOM     10  H22 UNL     1      51.620  35.954  40.604  1.00  0.00     0.279 HD
ATOM     11  H21 UNL     1      50.654  36.438  41.674  1.00  0.00     0.279 HD
ENDBRANCH   3   4
TORSDOF 1
ENDMDL
MODEL 3
REMARK VINA RESULT: -3.290245507      3.717      5.884
REMARK  1 active torsions:
REMARK  status: ('A' for Active; 'I' for Inactive)
REMARK    1  A    between atoms: C3_3  and  N1_4 
ROOT
HETATM    1  C1  UNL     1      43.282  30.892  38.126  1.00  0.00     0.013 C 
HETATM    2  C2  UNL     1      44.259  31.575  38.274  1.00  0.00    -0.089 C 
HETATM    3  C3  UNL     1      45.421  32.403  38.462  1.00  0.00     0.331 C 
ENDROOT
BRANCH   3   4
HETATM    4  N1  UNL     1      45.831  33.092  37.281  1.00  0.00    -0.036 N 
HETATM    5  C4  UNL     1      46.325  32.105  36.325  1.00  0.00     0.275 C 
HETATM    6  C5  UNL     1      44.689  33.818  36.747  1.00  0.00     0.267 C 
HETATM    7  C6  UNL     1      45.223  35.100  36.169  1.00  0.00     0.262 C 
HETATM    8  N2  UNL     1      46.648  34.968  36.304  1.00  0.00    -0.049 N 
HETATM    9  C7  UNL     1      46.830  34.087  37.470  1.00  0.00     0.468 C 
ATOM     10  H22 UNL     1      47.118  34.643  35.459  1.00  0.00     0.279 HD
ATOM     11  H21 UNL     1      47.143  35.858  36.374  1.00  0.00     0.279 HD
ENDBRANCH   3   4
TORSDOF 1
ENDMDL
MODEL 4
REMARK VINA RESULT: -3.263381185      3.674      5.141
REMARK  1 active torsions:
REMARK  status: ('A' for Active; 'I' for Inactive)
REMARK    1  A    between atoms: C3_3  and  N1_4 
ROOT
HETATM    1  C1  UNL     1      43.819  34.999  36.461  1.00  0.00     0.013 C 
HETATM    2  C2  UNL     1      44.412  33.956  36.424  1.00  0.00    -0.089 C 
HETATM    3  C3  UNL     1      45.110  32.698  36.378  1.00  0.00     0.331 C 
ENDROOT
BRANCH   3   4
HETATM    4  N1  UNL     1      45.762  32.359  37.602  1.00  0.00    -0.036 N 
HETATM    5  C4  UNL     1      44.737  32.144  38.620  1.00  0.00     0.275 C 
HETATM    6  C5  UNL     1      46.554  31.156  37.388  1.00  0.00     0.267 C 
HETATM    7  C6  UNL     1      47.794  31.301  38.227  1.00  0.00     0.262 C 
HETATM    8  N2  UNL     1      47.574  32.521  38.955  1.00  0.00    -0.049 N 
HETATM    9  C7  UNL     1      46.694  33.318  38.085  1.00  0.00     0.468 C 
ATOM     10  H22 UNL     1      47.212  32.383  39.899  1.00  0.00     0.279 HD
ATOM     11  H21 UNL     1      48.431  33.000  39.231  1.00  0.00     0.279 HD
ENDBRANCH   3   4
TORSDOF 1
ENDMDL
MODEL 5
REMARK VINA RESULT: -3.261756102      1.263      3.841
REMARK  1 active torsions:
REMARK  status: ('A' for Active; 'I' for Inactive)
REMARK    1  A    between atoms: C3_3  and  N1_4 
ROOT
HETATM    1  C1  UNL     1      47.511  32.544  38.607  1.00  0.00     0.013 C 
HETATM    2  C2  UNL     1      48.535  33.150  38.767  1.00  0.00    -0.089 C 
HETATM    3  C3  UNL     1      49.762  33.874  38.975  1.00  0.00     0.331 C 
ENDROOT
BRANCH   3   4
HETATM    4  N1  UNL     1      49.669  35.262  38.656  1.00  0.00    -0.036 N 
HETATM    5  C4  UNL     1      48.449  35.472  37.880  1.00  0.00     0.275 C 
HETATM    6  C5  UNL     1      49.643  36.023  39.896  1.00  0.00     0.267 C 
HETATM    7  C6  UNL     1      50.395  37.299  39.636  1.00  0.00     0.262 C 
HETATM    8  N2  UNL     1      50.700  37.237  38.232  1.00  0.00    -0.049 N 
HETATM    9  C7  UNL     1      50.770  35.798  37.932  1.00  0.00     0.468 C 
ATOM     10  H22 UNL     1      50.047  37.754  37.642  1.00  0.00     0.279 HD
ATOM     11  H21 UNL     1      51.534  37.760  37.965  1.00  0.00     0.279 HD
ENDBRANCH   3   4
TORSDOF 1
ENDMDL
