MODEL 1
REMARK VINA RESULT: -3.026312944      0.000      0.000
REMARK  2 active torsions:
REMARK  status: ('A' for Active; 'I' for Inactive)
REMARK    1  A    between atoms: N2_6  and  C6_8 
REMARK    2  A    between atoms: C6_8  and  O1_9 
ROOT
HETATM    1  C1  UNL     1      47.060  34.706  37.044  1.00  0.00     0.309 C 
HETATM    2  N1  UNL     1      46.035  33.687  36.826  1.00  0.00     0.084 N 
HETATM    3  C2  UNL     1      44.746  34.296  36.695  1.00  0.00     0.309 C 
HETATM    4  C3  UNL     1      46.339  32.916  35.613  1.00  0.00     0.301 C 
HETATM    5  C4  UNL     1      46.022  31.697  36.417  1.00  0.00     0.304 C 
HETATM    6  N2  UNL     1      46.147  32.551  37.573  1.00  0.00     0.106 N 
HETATM    7  C5  UNL     1      45.127  32.261  38.536  1.00  0.00     0.312 C 
ENDROOT
BRANCH   6   8
HETATM    8  C6  UNL     1      47.462  32.366  38.181  1.00  0.00     0.436 C 
BRANCH   8   9
HETATM    9  O1  UNL     1      47.356  32.245  39.568  1.00  0.00    -0.373 OA
ATOM     10  H1  UNL     1      47.073  33.064  39.958  1.00  0.00     0.211 HD
ENDBRANCH   8   9
ENDBRANCH   6   8
TORSDOF 2
ENDMDL
MODEL 2
REMARK VINA RESULT: -2.789398391      1.741      2.766
REMARK  2 active torsions:
REMARK  status: ('A' for Active; 'I' for Inactive)
REMARK    1  A    between atoms: N2_6  and  C6_8 
REMARK    2  A    between atoms: C6_8  and  O1_9 
ROOT
HETATM    1  C1  UNL     1      44.113  31.426  38.292  1.00  0.00     0.309 C 
HETATM    2  N1  UNL     1      45.085  30.891  37.341  1.00  0.00     0.084 N 
HETATM    3  C2  UNL     1      44.830  29.503  37.095  1.00  0.00     0.309 C 
HETATM    4  C3  UNL     1      45.014  31.633  36.075  1.00  0.00     0.301 C 
HETATM    5  C4  UNL     1      46.508  31.669  36.118  1.00  0.00     0.304 C 
HETATM    6  N2  UNL     1      46.375  31.298  37.506  1.00  0.00     0.106 N 
HETATM    7  C5  UNL     1      47.360  30.324  37.870  1.00  0.00     0.312 C 
ENDROOT
BRANCH   6   8
HETATM    8  C6  UNL     1      46.523  32.483  38.348  1.00  0.00     0.436 C 
BRANCH   8   9
HETATM    9  O1  UNL     1      47.403  32.236  39.402  1.00  0.00    -0.373 OA
ATOM     10  H1  UNL     1      47.924  33.007  39.595  1.00  0.00     0.211 HD
ENDBRANCH   8   9
ENDBRANCH   6   8
TORSDOF 2
ENDMDL
MODEL 3
REMARK VINA RESULT: -2.751777103      1.657      2.962
REMARK  2 active torsions:
REMARK  status: ('A' for Active; 'I' for Inactive)
REMARK    1  A    between atoms: N2_6  and  C6_8 
REMARK    2  A    between atoms: C6_8  and  O1_9 
ROOT
HETATM    1  C1  UNL     1      47.727  32.620  38.559  1.00  0.00     0.309 C 
HETATM    2  N1  UNL     1      46.574  32.332  37.707  1.00  0.00     0.084 N 
HETATM    3  C2  UNL     1      46.595  30.964  37.287  1.00  0.00     0.309 C 
HETATM    4  C3  UNL     1      45.328  32.602  38.437  1.00  0.00     0.301 C 
HETATM    5  C4  UNL     1      44.861  33.298  37.199  1.00  0.00     0.304 C 
HETATM    6  N2  UNL     1      46.246  33.291  36.795  1.00  0.00     0.106 N 
HETATM    7  C5  UNL     1      46.370  32.982  35.402  1.00  0.00     0.312 C 
ENDROOT
BRANCH   6   8
HETATM    8  C6  UNL     1      46.842  34.597  37.063  1.00  0.00     0.436 C 
BRANCH   8   9
HETATM    9  O1  UNL     1      47.587  35.037  35.967  1.00  0.00    -0.373 OA
ATOM     10  H1  UNL     1      48.508  35.104  36.191  1.00  0.00     0.211 HD
ENDBRANCH   8   9
ENDBRANCH   6   8
TORSDOF 2
ENDMDL
MODEL 4
REMARK VINA RESULT: -2.707170847      1.219      2.021
REMARK  2 active torsions:
REMARK  status: ('A' for Active; 'I' for Inactive)
REMARK    1  A    between atoms: N2_6  and  C6_8 
REMARK    2  A    between atoms: C6_8  and  O1_9 
ROOT
HETATM    1  C1  UNL     1      46.563  32.098  35.484  1.00  0.00     0.309 C 
HETATM    2  N1  UNL     1      46.160  32.865  36.661  1.00  0.00     0.084 N 
HETATM    3  C2  UNL     1      45.991  34.246  36.322  1.00  0.00     0.309 C 
HETATM    4  C3  UNL     1      44.901  32.336  37.203  1.00  0.00     0.301 C 
HETATM    5  C4  UNL     1      45.547  32.426  38.548  1.00  0.00     0.304 C 
HETATM    6  N2  UNL     1      46.792  32.552  37.828  1.00  0.00     0.106 N 
HETATM    7  C5  UNL     1      47.635  33.537  38.436  1.00  0.00     0.312 C 
ENDROOT
BRANCH   6   8
HETATM    8  C6  UNL     1      47.479  31.264  37.806  1.00  0.00     0.436 C 
BRANCH   8   9
HETATM    9  O1  UNL     1      48.826  31.414  38.139  1.00  0.00    -0.373 OA
ATOM     10  H1  UNL     1      49.256  32.019  37.547  1.00  0.00     0.211 HD
ENDBRANCH   8   9
ENDBRANCH   6   8
TORSDOF 2
ENDMDL
MODEL 5
REMARK VINA RESULT: -2.669617641      1.069      2.074
REMARK  2 active torsions:
REMARK  status: ('A' for Active; 'I' for Inactive)
REMARK    1  A    between atoms: N2_6  and  C6_8 
REMARK    2  A    between atoms: C6_8  and  O1_9 
ROOT
HETATM    1  C1  UNL     1      46.663  31.313  35.608  1.00  0.00     0.309 C 
HETATM    2  N1  UNL     1      46.102  32.594  36.033  1.00  0.00     0.084 N 
HETATM    3  C2  UNL     1      46.349  33.600  35.044  1.00  0.00     0.309 C 
HETATM    4  C3  UNL     1      44.655  32.465  36.250  1.00  0.00     0.301 C 
HETATM    5  C4  UNL     1      44.870  33.224  37.521  1.00  0.00     0.304 C 
HETATM    6  N2  UNL     1      46.269  32.917  37.348  1.00  0.00     0.106 N 
HETATM    7  C5  UNL     1      47.084  34.048  37.677  1.00  0.00     0.312 C 
ENDROOT
BRANCH   6   8
HETATM    8  C6  UNL     1      46.633  31.786  38.197  1.00  0.00     0.436 C 
BRANCH   8   9
HETATM    9  O1  UNL     1      47.361  32.213  39.309  1.00  0.00    -0.373 OA
ATOM     10  H1  UNL     1      48.286  32.275  39.103  1.00  0.00     0.211 HD
ENDBRANCH   8   9
ENDBRANCH   6   8
TORSDOF 2
ENDMDL
