MODEL 1
REMARK VINA RESULT: -7.597770431      0.000      0.000
REMARK  20 active torsions:
REMARK  status: ('A' for Active; 'I' for Inactive)
REMARK    1  A    between atoms: C4_8  and  N3_9 
REMARK    2  A    between atoms: C5_12  and  C6_13 
REMARK    3  A    between atoms: C6_13  and  C7_14 
REMARK    4  A    between atoms: C7_14  and  O1_15 
REMARK    5  A    between atoms: C7_14  and  N4_17 
REMARK    6  A    between atoms: N4_17  and  C8_18 
REMARK    7  A    between atoms: C10_25  and  N8_26 
REMARK    8  A    between atoms: N8_26  and  C11_28 
REMARK    9  A    between atoms: C11_28  and  C13_30 
REMARK   10  A    between atoms: C13_30  and  O2_31 
REMARK   11  A    between atoms: C13_30  and  C14_33 
REMARK       I    between atoms: C14_33  and  N9_35 
REMARK   12  A    between atoms: N9_35  and  O4_37 
REMARK   13  A    between atoms: O4_37  and  C15_38 
REMARK   14  A    between atoms: C15_38  and  C16_39 
REMARK   15  A    between atoms: C16_39  and  N10_40 
REMARK   16  A    between atoms: N10_40  and  N11_41 
REMARK   17  A    between atoms: N10_40  and  C17_44 
REMARK   18  A    between atoms: C17_44  and  C18_45 
REMARK   19  A    between atoms: C19_50  and  N14_51 
REMARK   20  A    between atoms: N14_51  and  N15_53 
ROOT
HETATM    1  C13 UNL     1       9.623  18.562   5.872  1.00  0.00     0.234 C 
ENDROOT
BRANCH   1   2
HETATM    2  C11 UNL     1      10.834  19.477   5.847  1.00  0.00     0.117 C 
HETATM    3  C12 UNL     1      10.814  20.496   4.769  1.00  0.00     0.035 C 
BRANCH   2   4
HETATM    4  N8  UNL     1      12.016  18.656   5.759  1.00  0.00    -0.364 N 
ATOM      5  H8  UNL     1      12.074  17.917   5.058  1.00  0.00     0.161 HD
BRANCH   4   6
HETATM    6  C10 UNL     1      13.087  18.876   6.640  1.00  0.00     0.178 A 
HETATM    7  C8  UNL     1      13.997  17.873   7.064  1.00  0.00     0.237 A 
HETATM    8  N5  UNL     1      14.829  18.551   7.912  1.00  0.00    -0.255 N 
HETATM    9  N6  UNL     1      14.510  19.800   8.021  1.00  0.00    -0.235 N 
ATOM     10  H5  UNL     1      15.614  18.120   8.402  1.00  0.00     0.191 HD
HETATM   11  C9  UNL     1      15.169  20.849   8.827  1.00  0.00     0.200 C 
HETATM   12  N7  UNL     1      13.466  19.995   7.258  1.00  0.00    -0.265 N 
ATOM     13  H7  UNL     1      12.998  20.895   7.150  1.00  0.00     0.190 HD
BRANCH   7  14
HETATM   14  N4  UNL     1      13.999  16.711   6.730  1.00  0.00    -0.393 NA
BRANCH  14  15
HETATM   15  C7  UNL     1      13.816  15.425   6.446  1.00  0.00     0.304 C 
BRANCH  15  16
HETATM   16  C6  UNL     1      14.054  14.305   7.433  1.00  0.00     0.112 C 
BRANCH  16  17
HETATM   17  C5  UNL     1      12.945  13.856   8.226  1.00  0.00     0.013 A 
HETATM   18  C2  UNL     1      12.519  14.480   9.370  1.00  0.00     0.016 A 
HETATM   19  C1  UNL     1      13.249  15.608   9.998  1.00  0.00     0.069 C 
HETATM   20  N1  UNL     1      11.397  14.023  10.010  1.00  0.00    -0.355 N 
HETATM   21  C3  UNL     1      10.683  12.978   9.567  1.00  0.00     0.182 A 
ATOM     22  H1  UNL     1      11.091  14.499  10.859  1.00  0.00     0.166 HD
HETATM   23  N2  UNL     1      11.092  12.367   8.461  1.00  0.00    -0.339 N 
HETATM   24  C4  UNL     1      12.169  12.771   7.807  1.00  0.00     0.108 A 
ATOM     25  H2  UNL     1      10.564  11.569   8.108  1.00  0.00     0.168 HD
BRANCH  24  26
HETATM   26  N3  UNL     1      12.541  12.153   6.741  1.00  0.00    -0.385 N 
ATOM     27  H32 UNL     1      12.316  12.586   5.845  1.00  0.00     0.157 HD
ATOM     28  H31 UNL     1      13.045  11.270   6.816  1.00  0.00     0.157 HD
ENDBRANCH  24  26
ENDBRANCH  16  17
ENDBRANCH  15  16
BRANCH  15  29
HETATM   29  O1  UNL     1      14.581  15.107   5.253  1.00  0.00    -0.365 OA
ATOM     30  H1  UNL     1      13.962  14.801   4.601  1.00  0.00     0.213 HD
ENDBRANCH  15  29
ENDBRANCH  14  15
ENDBRANCH   7  14
ENDBRANCH   4   6
ENDBRANCH   2   4
ENDBRANCH   1   2
BRANCH   1  31
HETATM   31  O2  UNL     1       8.488  19.242   6.312  1.00  0.00    -0.384 OA
ATOM     32  H2  UNL     1       8.340  19.098   7.240  1.00  0.00     0.210 HD
ENDBRANCH   1  31
BRANCH   1  33
HETATM   33  C14 UNL     1       9.888  17.396   6.796  1.00  0.00     0.272 C 
HETATM   34  O3  UNL     1      10.508  16.403   6.355  1.00  0.00    -0.268 OA
HETATM   35  N9  UNL     1       9.420  17.486   8.127  1.00  0.00    -0.232 N 
ATOM     36  H9  UNL     1       8.920  18.331   8.403  1.00  0.00     0.197 HD
BRANCH  35  37
HETATM   37  O4  UNL     1       9.593  16.527   9.051  1.00  0.00    -0.273 OA
BRANCH  37  38
HETATM   38  C15 UNL     1       9.520  16.987  10.350  1.00  0.00     0.247 C 
BRANCH  38  39
HETATM   39  C16 UNL     1      10.679  17.827  10.756  1.00  0.00     0.111 C 
BRANCH  39  40
HETATM   40  N10 UNL     1      10.448  19.193  10.992  1.00  0.00    -0.304 N 
BRANCH  40  41
HETATM   41  N11 UNL     1       9.831  19.501  12.186  1.00  0.00    -0.343 N 
ATOM     42 2H11 UNL     1      10.158  18.975  12.997  1.00  0.00     0.177 HD
ATOM     43 1H11 UNL     1       8.860  19.803  12.120  1.00  0.00     0.177 HD
ENDBRANCH  40  41
BRANCH  40  44
HETATM   44  C17 UNL     1      11.340  20.168  10.501  1.00  0.00     0.225 C 
BRANCH  44  45
HETATM   45  C18 UNL     1      10.752  21.044   9.458  1.00  0.00     0.132 A 
HETATM   46  N12 UNL     1       9.555  20.749   8.860  1.00  0.00    -0.273 N 
HETATM   47  N13 UNL     1       9.271  21.694   7.974  1.00  0.00    -0.129 N 
ATOM     48  H12 UNL     1       8.975  19.934   9.063  1.00  0.00     0.189 HD
HETATM   49  C19 UNL     1      10.266  22.624   7.966  1.00  0.00     0.714 A 
ATOM     50  H13 UNL     1       8.437  21.720   7.388  1.00  0.00     0.205 HD
HETATM   51  N17 UNL     1      11.148  22.170   8.899  1.00  0.00    -0.175 N 
ATOM     52  H17 UNL     1      12.017  22.648   9.139  1.00  0.00     0.185 HD
BRANCH  49  53
HETATM   53  N14 UNL     1      10.401  23.793   7.189  1.00  0.00    -0.117 N 
ATOM     54  H14 UNL     1      10.930  24.587   7.550  1.00  0.00     0.207 HD
BRANCH  53  55
HETATM   55  N15 UNL     1       9.870  23.857   6.057  1.00  0.00    -0.235 N 
HETATM   56  N16 UNL     1       9.813  24.020   4.815  1.00  0.00    -0.330 N 
ATOM     57 2H16 UNL     1      10.798  24.217   4.642  1.00  0.00     0.178 HD
ATOM     58 1H16 UNL     1       9.380  24.071   3.892  1.00  0.00     0.178 HD
ATOM     59  H15 UNL     1       8.895  23.654   6.279  1.00  0.00     0.208 HD
ENDBRANCH  53  55
ENDBRANCH  49  53
ENDBRANCH  44  45
ENDBRANCH  40  44
ENDBRANCH  39  40
ENDBRANCH  38  39
ENDBRANCH  37  38
ENDBRANCH  35  37
ENDBRANCH   1  33
TORSDOF 20
ENDMDL
MODEL 2
REMARK VINA RESULT: -7.419637995      1.733      6.361
REMARK  20 active torsions:
REMARK  status: ('A' for Active; 'I' for Inactive)
REMARK    1  A    between atoms: C4_8  and  N3_9 
REMARK    2  A    between atoms: C5_12  and  C6_13 
REMARK    3  A    between atoms: C6_13  and  C7_14 
REMARK    4  A    between atoms: C7_14  and  O1_15 
REMARK    5  A    between atoms: C7_14  and  N4_17 
REMARK    6  A    between atoms: N4_17  and  C8_18 
REMARK    7  A    between atoms: C10_25  and  N8_26 
REMARK    8  A    between atoms: N8_26  and  C11_28 
REMARK    9  A    between atoms: C11_28  and  C13_30 
REMARK   10  A    between atoms: C13_30  and  O2_31 
REMARK   11  A    between atoms: C13_30  and  C14_33 
REMARK       I    between atoms: C14_33  and  N9_35 
REMARK   12  A    between atoms: N9_35  and  O4_37 
REMARK   13  A    between atoms: O4_37  and  C15_38 
REMARK   14  A    between atoms: C15_38  and  C16_39 
REMARK   15  A    between atoms: C16_39  and  N10_40 
REMARK   16  A    between atoms: N10_40  and  N11_41 
REMARK   17  A    between atoms: N10_40  and  C17_44 
REMARK   18  A    between atoms: C17_44  and  C18_45 
REMARK   19  A    between atoms: C19_50  and  N14_51 
REMARK   20  A    between atoms: N14_51  and  N15_53 
ROOT
HETATM    1  C13 UNL     1       9.646  18.575   5.594  1.00  0.00     0.234 C 
ENDROOT
BRANCH   1   2
HETATM    2  C11 UNL     1      10.208  19.773   4.851  1.00  0.00     0.117 C 
HETATM    3  C12 UNL     1      11.079  19.430   3.699  1.00  0.00     0.035 C 
BRANCH   2   4
HETATM    4  N8  UNL     1      10.909  20.603   5.799  1.00  0.00    -0.364 N 
ATOM      5  H8  UNL     1      11.670  20.213   6.354  1.00  0.00     0.161 HD
BRANCH   4   6
HETATM    6  C10 UNL     1      10.539  21.949   5.956  1.00  0.00     0.178 A 
HETATM    7  C8  UNL     1      10.308  22.576   7.207  1.00  0.00     0.237 A 
HETATM    8  N5  UNL     1       9.963  23.852   6.853  1.00  0.00    -0.255 N 
HETATM    9  N6  UNL     1       9.969  24.025   5.571  1.00  0.00    -0.235 N 
ATOM     10  H5  UNL     1       9.727  24.583   7.524  1.00  0.00     0.191 HD
HETATM   11  C9  UNL     1       9.665  25.254   4.809  1.00  0.00     0.200 C 
HETATM   12  N7  UNL     1      10.315  22.885   5.033  1.00  0.00    -0.265 N 
ATOM     13  H7  UNL     1      10.402  22.729   4.029  1.00  0.00     0.190 HD
BRANCH   7  14
HETATM   14  N4  UNL     1      10.405  22.069   8.300  1.00  0.00    -0.393 NA
BRANCH  14  15
HETATM   15  C7  UNL     1      10.707  21.574   9.498  1.00  0.00     0.304 C 
BRANCH  15  16
HETATM   16  C6  UNL     1      12.121  21.359   9.985  1.00  0.00     0.112 C 
BRANCH  16  17
HETATM   17  C5  UNL     1      13.062  20.754   9.086  1.00  0.00     0.013 A 
HETATM   18  C2  UNL     1      13.872  21.461   8.236  1.00  0.00     0.016 A 
HETATM   19  C1  UNL     1      13.762  22.927   8.044  1.00  0.00     0.069 C 
HETATM   20  N1  UNL     1      14.799  20.795   7.478  1.00  0.00    -0.355 N 
HETATM   21  C3  UNL     1      14.955  19.464   7.526  1.00  0.00     0.182 A 
ATOM     22  H1  UNL     1      15.396  21.335   6.851  1.00  0.00     0.166 HD
HETATM   23  N2  UNL     1      14.172  18.773   8.345  1.00  0.00    -0.339 N 
HETATM   24  C4  UNL     1      13.263  19.370   9.098  1.00  0.00     0.108 A 
ATOM     25  H2  UNL     1      14.274  17.760   8.395  1.00  0.00     0.168 HD
BRANCH  24  26
HETATM   26  N3  UNL     1      12.516  18.670   9.878  1.00  0.00    -0.385 N 
ATOM     27  H32 UNL     1      11.716  18.194   9.459  1.00  0.00     0.157 HD
ATOM     28  H31 UNL     1      12.737  18.605  10.871  1.00  0.00     0.157 HD
ENDBRANCH  24  26
ENDBRANCH  16  17
ENDBRANCH  15  16
BRANCH  15  29
HETATM   29  O1  UNL     1      10.007  20.312   9.659  1.00  0.00    -0.365 OA
ATOM     30  H1  UNL     1       9.086  20.485   9.509  1.00  0.00     0.213 HD
ENDBRANCH  15  29
ENDBRANCH  14  15
ENDBRANCH   7  14
ENDBRANCH   4   6
ENDBRANCH   2   4
ENDBRANCH   1   2
BRANCH   1  31
HETATM   31  O2  UNL     1       8.491  18.915   6.297  1.00  0.00    -0.384 OA
ATOM     32  H2  UNL     1       7.724  18.501   5.917  1.00  0.00     0.210 HD
ENDBRANCH   1  31
BRANCH   1  33
HETATM   33  C14 UNL     1      10.678  18.053   6.567  1.00  0.00     0.272 C 
HETATM   34  O3  UNL     1      10.635  18.434   7.758  1.00  0.00    -0.268 OA
HETATM   35  N9  UNL     1      11.651  17.150   6.080  1.00  0.00    -0.232 N 
ATOM     36  H9  UNL     1      11.615  16.895   5.093  1.00  0.00     0.197 HD
BRANCH  35  37
HETATM   37  O4  UNL     1      12.618  16.606   6.836  1.00  0.00    -0.273 OA
BRANCH  37  38
HETATM   38  C15 UNL     1      13.437  15.735   6.148  1.00  0.00     0.247 C 
BRANCH  38  39
HETATM   39  C16 UNL     1      13.916  14.588   6.965  1.00  0.00     0.111 C 
BRANCH  39  40
HETATM   40  N10 UNL     1      12.950  13.763   7.566  1.00  0.00    -0.304 N 
BRANCH  40  41
HETATM   41  N11 UNL     1      12.701  12.566   6.929  1.00  0.00    -0.343 N 
ATOM     42 2H11 UNL     1      12.731  12.597   5.910  1.00  0.00     0.177 HD
ATOM     43 1H11 UNL     1      12.068  11.928   7.411  1.00  0.00     0.177 HD
ENDBRANCH  40  41
BRANCH  40  44
HETATM   44  C17 UNL     1      12.786  13.750   8.967  1.00  0.00     0.225 C 
BRANCH  44  45
HETATM   45  C18 UNL     1      11.570  14.461   9.431  1.00  0.00     0.132 A 
HETATM   46  N12 UNL     1      10.698  13.893  10.323  1.00  0.00    -0.273 N 
HETATM   47  N13 UNL     1       9.709  14.743  10.560  1.00  0.00    -0.129 N 
ATOM     48  H12 UNL     1      10.794  12.966  10.737  1.00  0.00     0.189 HD
HETATM   49  C19 UNL     1       9.902  15.881   9.836  1.00  0.00     0.714 A 
ATOM     50  H13 UNL     1       8.924  14.572  11.188  1.00  0.00     0.205 HD
HETATM   51  N17 UNL     1      11.062  15.648   9.162  1.00  0.00    -0.175 N 
ATOM     52  H17 UNL     1      11.490  16.316   8.522  1.00  0.00     0.185 HD
BRANCH  49  53
HETATM   53  N14 UNL     1       9.114  17.048   9.763  1.00  0.00    -0.117 N 
ATOM     54  H14 UNL     1       8.538  17.224   8.940  1.00  0.00     0.207 HD
BRANCH  53  55
HETATM   55  N15 UNL     1       9.121  17.868  10.709  1.00  0.00    -0.235 N 
HETATM   56  N16 UNL     1       8.641  18.628  11.584  1.00  0.00    -0.330 N 
ATOM     57 2H16 UNL     1       7.651  18.468  11.398  1.00  0.00     0.178 HD
ATOM     58 1H16 UNL     1       8.647  19.296  12.354  1.00  0.00     0.178 HD
ATOM     59  H15 UNL     1      10.122  17.996  10.858  1.00  0.00     0.208 HD
ENDBRANCH  53  55
ENDBRANCH  49  53
ENDBRANCH  44  45
ENDBRANCH  40  44
ENDBRANCH  39  40
ENDBRANCH  38  39
ENDBRANCH  37  38
ENDBRANCH  35  37
ENDBRANCH   1  33
TORSDOF 20
ENDMDL
MODEL 3
REMARK VINA RESULT: -7.397744948      1.489      3.279
REMARK  20 active torsions:
REMARK  status: ('A' for Active; 'I' for Inactive)
REMARK    1  A    between atoms: C4_8  and  N3_9 
REMARK    2  A    between atoms: C5_12  and  C6_13 
REMARK    3  A    between atoms: C6_13  and  C7_14 
REMARK    4  A    between atoms: C7_14  and  O1_15 
REMARK    5  A    between atoms: C7_14  and  N4_17 
REMARK    6  A    between atoms: N4_17  and  C8_18 
REMARK    7  A    between atoms: C10_25  and  N8_26 
REMARK    8  A    between atoms: N8_26  and  C11_28 
REMARK    9  A    between atoms: C11_28  and  C13_30 
REMARK   10  A    between atoms: C13_30  and  O2_31 
REMARK   11  A    between atoms: C13_30  and  C14_33 
REMARK       I    between atoms: C14_33  and  N9_35 
REMARK   12  A    between atoms: N9_35  and  O4_37 
REMARK   13  A    between atoms: O4_37  and  C15_38 
REMARK   14  A    between atoms: C15_38  and  C16_39 
REMARK   15  A    between atoms: C16_39  and  N10_40 
REMARK   16  A    between atoms: N10_40  and  N11_41 
REMARK   17  A    between atoms: N10_40  and  C17_44 
REMARK   18  A    between atoms: C17_44  and  C18_45 
REMARK   19  A    between atoms: C19_50  and  N14_51 
REMARK   20  A    between atoms: N14_51  and  N15_53 
ROOT
HETATM    1  C13 UNL     1      10.387  18.684   6.011  1.00  0.00     0.234 C 
ENDROOT
BRANCH   1   2
HETATM    2  C11 UNL     1      11.366  19.388   5.089  1.00  0.00     0.117 C 
HETATM    3  C12 UNL     1      10.926  19.477   3.675  1.00  0.00     0.035 C 
BRANCH   2   4
HETATM    4  N8  UNL     1      12.640  18.720   5.193  1.00  0.00    -0.364 N 
ATOM      5  H8  UNL     1      12.972  18.131   4.429  1.00  0.00     0.161 HD
BRANCH   4   6
HETATM    6  C10 UNL     1      13.422  18.883   6.348  1.00  0.00     0.178 A 
HETATM    7  C8  UNL     1      14.039  17.819   7.055  1.00  0.00     0.237 A 
HETATM    8  N5  UNL     1      14.660  18.459   8.093  1.00  0.00    -0.255 N 
HETATM    9  N6  UNL     1      14.475  19.739   8.063  1.00  0.00    -0.235 N 
ATOM     10  H5  UNL     1      15.206  17.981   8.810  1.00  0.00     0.191 HD
HETATM   11  C9  UNL     1      14.988  20.763   8.998  1.00  0.00     0.200 C 
HETATM   12  N7  UNL     1      13.733  19.994   7.017  1.00  0.00    -0.265 N 
ATOM     13  H7  UNL     1      13.430  20.929   6.746  1.00  0.00     0.190 HD
BRANCH   7  14
HETATM   14  N4  UNL     1      14.000  16.644   6.773  1.00  0.00    -0.393 NA
BRANCH  14  15
HETATM   15  C7  UNL     1      13.757  15.365   6.502  1.00  0.00     0.304 C 
BRANCH  15  16
HETATM   16  C6  UNL     1      13.958  14.244   7.496  1.00  0.00     0.112 C 
BRANCH  16  17
HETATM   17  C5  UNL     1      12.824  13.807   8.259  1.00  0.00     0.013 A 
HETATM   18  C2  UNL     1      12.355  14.453   9.374  1.00  0.00     0.016 A 
HETATM   19  C1  UNL     1      13.058  15.598  10.001  1.00  0.00     0.069 C 
HETATM   20  N1  UNL     1      11.213  14.006   9.984  1.00  0.00    -0.355 N 
HETATM   21  C3  UNL     1      10.520  12.947   9.539  1.00  0.00     0.182 A 
ATOM     22  H1  UNL     1      10.875  14.498  10.811  1.00  0.00     0.166 HD
HETATM   23  N2  UNL     1      10.969  12.314   8.462  1.00  0.00    -0.339 N 
HETATM   24  C4  UNL     1      12.067  12.709   7.837  1.00  0.00     0.108 A 
ATOM     25  H2  UNL     1      10.457  11.506   8.109  1.00  0.00     0.168 HD
BRANCH  24  26
HETATM   26  N3  UNL     1      12.479  12.070   6.799  1.00  0.00    -0.385 N 
ATOM     27  H32 UNL     1      12.062  11.157   6.614  1.00  0.00     0.157 HD
ATOM     28  H31 UNL     1      13.191  12.483   6.198  1.00  0.00     0.157 HD
ENDBRANCH  24  26
ENDBRANCH  16  17
ENDBRANCH  15  16
BRANCH  15  29
HETATM   29  O1  UNL     1      14.494  15.005   5.304  1.00  0.00    -0.365 OA
ATOM     30  H1  UNL     1      14.817  15.813   4.924  1.00  0.00     0.213 HD
ENDBRANCH  15  29
ENDBRANCH  14  15
ENDBRANCH   7  14
ENDBRANCH   4   6
ENDBRANCH   2   4
ENDBRANCH   1   2
BRANCH   1  31
HETATM   31  O2  UNL     1       9.110  18.643   5.452  1.00  0.00    -0.384 OA
ATOM     32  H2  UNL     1       8.504  19.188   5.941  1.00  0.00     0.210 HD
ENDBRANCH   1  31
BRANCH   1  33
HETATM   33  C14 UNL     1      10.323  19.412   7.333  1.00  0.00     0.272 C 
HETATM   34  O3  UNL     1      10.872  18.900   8.334  1.00  0.00    -0.268 OA
HETATM   35  N9  UNL     1       9.640  20.650   7.376  1.00  0.00    -0.232 N 
ATOM     36  H9  UNL     1       9.216  20.992   6.514  1.00  0.00     0.197 HD
BRANCH  35  37
HETATM   37  O4  UNL     1       9.514  21.401   8.481  1.00  0.00    -0.273 OA
BRANCH  37  38
HETATM   38  C15 UNL     1      10.162  22.617   8.403  1.00  0.00     0.247 C 
BRANCH  38  39
HETATM   39  C16 UNL     1      11.471  22.648   9.108  1.00  0.00     0.111 C 
BRANCH  39  40
HETATM   40  N10 UNL     1      11.458  22.774  10.508  1.00  0.00    -0.304 N 
BRANCH  40  41
HETATM   41  N11 UNL     1      10.386  23.459  11.040  1.00  0.00    -0.343 N 
ATOM     42 2H11 UNL     1      10.597  24.389  11.403  1.00  0.00     0.177 HD
ATOM     43 1H11 UNL     1       9.660  22.885  11.469  1.00  0.00     0.177 HD
ENDBRANCH  40  41
BRANCH  40  44
HETATM   44  C17 UNL     1      11.996  21.759  11.326  1.00  0.00     0.225 C 
BRANCH  44  45
HETATM   45  C18 UNL     1      11.024  20.694  11.672  1.00  0.00     0.132 A 
HETATM   46  N12 UNL     1      10.564  20.524  12.952  1.00  0.00    -0.273 N 
HETATM   47  N13 UNL     1       9.713  19.507  12.973  1.00  0.00    -0.129 N 
ATOM     48  H12 UNL     1      10.833  21.089  13.758  1.00  0.00     0.189 HD
HETATM   49  C19 UNL     1       9.594  18.986  11.720  1.00  0.00     0.714 A 
ATOM     50  H13 UNL     1       9.223  19.167  13.800  1.00  0.00     0.205 HD
HETATM   51  N17 UNL     1      10.424  19.758  10.964  1.00  0.00    -0.175 N 
ATOM     52  H17 UNL     1      10.565  19.626   9.962  1.00  0.00     0.185 HD
BRANCH  49  53
HETATM   53  N14 UNL     1       8.816  17.903  11.264  1.00  0.00    -0.117 N 
ATOM     54  H14 UNL     1       8.053  17.545  11.839  1.00  0.00     0.207 HD
BRANCH  53  55
HETATM   55  N15 UNL     1       9.062  17.379  10.154  1.00  0.00    -0.235 N 
HETATM   56  N16 UNL     1       8.821  16.765   9.087  1.00  0.00    -0.330 N 
ATOM     57 2H16 UNL     1       7.823  16.605   9.225  1.00  0.00     0.178 HD
ATOM     58 1H16 UNL     1       9.022  16.338   8.182  1.00  0.00     0.178 HD
ATOM     59  H15 UNL     1      10.060  17.563  10.060  1.00  0.00     0.208 HD
ENDBRANCH  53  55
ENDBRANCH  49  53
ENDBRANCH  44  45
ENDBRANCH  40  44
ENDBRANCH  39  40
ENDBRANCH  38  39
ENDBRANCH  37  38
ENDBRANCH  35  37
ENDBRANCH   1  33
TORSDOF 20
ENDMDL
MODEL 4
REMARK VINA RESULT: -7.358876915      2.080      5.394
REMARK  20 active torsions:
REMARK  status: ('A' for Active; 'I' for Inactive)
REMARK    1  A    between atoms: C4_8  and  N3_9 
REMARK    2  A    between atoms: C5_12  and  C6_13 
REMARK    3  A    between atoms: C6_13  and  C7_14 
REMARK    4  A    between atoms: C7_14  and  O1_15 
REMARK    5  A    between atoms: C7_14  and  N4_17 
REMARK    6  A    between atoms: N4_17  and  C8_18 
REMARK    7  A    between atoms: C10_25  and  N8_26 
REMARK    8  A    between atoms: N8_26  and  C11_28 
REMARK    9  A    between atoms: C11_28  and  C13_30 
REMARK   10  A    between atoms: C13_30  and  O2_31 
REMARK   11  A    between atoms: C13_30  and  C14_33 
REMARK       I    between atoms: C14_33  and  N9_35 
REMARK   12  A    between atoms: N9_35  and  O4_37 
REMARK   13  A    between atoms: O4_37  and  C15_38 
REMARK   14  A    between atoms: C15_38  and  C16_39 
REMARK   15  A    between atoms: C16_39  and  N10_40 
REMARK   16  A    between atoms: N10_40  and  N11_41 
REMARK   17  A    between atoms: N10_40  and  C17_44 
REMARK   18  A    between atoms: C17_44  and  C18_45 
REMARK   19  A    between atoms: C19_50  and  N14_51 
REMARK   20  A    between atoms: N14_51  and  N15_53 
ROOT
HETATM    1  C13 UNL     1       9.588  18.133   5.883  1.00  0.00     0.234 C 
ENDROOT
BRANCH   1   2
HETATM    2  C11 UNL     1       9.888  19.423   5.142  1.00  0.00     0.117 C 
HETATM    3  C12 UNL     1      11.128  19.392   4.328  1.00  0.00     0.035 C 
BRANCH   2   4
HETATM    4  N8  UNL     1       9.929  20.495   6.105  1.00  0.00    -0.364 N 
ATOM      5  H8  UNL     1       9.463  20.391   7.006  1.00  0.00     0.161 HD
BRANCH   4   6
HETATM    6  C10 UNL     1      10.611  21.684   5.797  1.00  0.00     0.178 A 
HETATM    7  C8  UNL     1      11.866  22.053   6.347  1.00  0.00     0.237 A 
HETATM    8  N5  UNL     1      12.107  23.271   5.773  1.00  0.00    -0.255 N 
HETATM    9  N6  UNL     1      11.157  23.635   4.974  1.00  0.00    -0.235 N 
ATOM     10  H5  UNL     1      12.942  23.829   5.955  1.00  0.00     0.191 HD
HETATM   11  C9  UNL     1      11.059  24.870   4.168  1.00  0.00     0.200 C 
HETATM   12  N7  UNL     1      10.261  22.684   4.988  1.00  0.00    -0.265 N 
ATOM     13  H7  UNL     1       9.398  22.704   4.445  1.00  0.00     0.190 HD
BRANCH   7  14
HETATM   14  N4  UNL     1      12.529  21.414   7.132  1.00  0.00    -0.393 NA
BRANCH  14  15
HETATM   15  C7  UNL     1      13.411  20.837   7.943  1.00  0.00     0.304 C 
BRANCH  15  16
HETATM   16  C6  UNL     1      14.251  19.642   7.555  1.00  0.00     0.112 C 
BRANCH  16  17
HETATM   17  C5  UNL     1      15.228  19.170   8.493  1.00  0.00     0.013 A 
HETATM   18  C2  UNL     1      16.461  19.744   8.671  1.00  0.00     0.016 A 
HETATM   19  C1  UNL     1      16.979  20.832   7.806  1.00  0.00     0.069 C 
HETATM   20  N1  UNL     1      17.291  19.272   9.653  1.00  0.00    -0.355 N 
HETATM   21  C3  UNL     1      16.953  18.257  10.463  1.00  0.00     0.182 A 
ATOM     22  H1  UNL     1      18.204  19.710   9.774  1.00  0.00     0.166 HD
HETATM   23  N2  UNL     1      15.763  17.694  10.296  1.00  0.00    -0.339 N 
HETATM   24  C4  UNL     1      14.925  18.116   9.361  1.00  0.00     0.108 A 
ATOM     25  H2  UNL     1      15.488  16.921  10.900  1.00  0.00     0.168 HD
BRANCH  24  26
HETATM   26  N3  UNL     1      13.780  17.544   9.221  1.00  0.00    -0.385 N 
ATOM     27  H32 UNL     1      13.533  16.819   9.895  1.00  0.00     0.157 HD
ATOM     28  H31 UNL     1      13.161  17.826   8.462  1.00  0.00     0.157 HD
ENDBRANCH  24  26
ENDBRANCH  16  17
ENDBRANCH  15  16
BRANCH  15  29
HETATM   29  O1  UNL     1      12.736  20.495   9.182  1.00  0.00    -0.365 OA
ATOM     30  H1  UNL     1      12.474  19.585   9.113  1.00  0.00     0.213 HD
ENDBRANCH  15  29
ENDBRANCH  14  15
ENDBRANCH   7  14
ENDBRANCH   4   6
ENDBRANCH   2   4
ENDBRANCH   1   2
BRANCH   1  31
HETATM   31  O2  UNL     1       8.458  18.266   6.689  1.00  0.00    -0.384 OA
ATOM     32  H2  UNL     1       8.378  17.535   7.291  1.00  0.00     0.210 HD
ENDBRANCH   1  31
BRANCH   1  33
HETATM   33  C14 UNL     1      10.769  17.760   6.748  1.00  0.00     0.272 C 
HETATM   34  O3  UNL     1      11.034  18.464   7.747  1.00  0.00    -0.268 OA
HETATM   35  N9  UNL     1      11.524  16.620   6.384  1.00  0.00    -0.232 N 
ATOM     36  H9  UNL     1      11.240  16.106   5.550  1.00  0.00     0.197 HD
BRANCH  35  37
HETATM   37  O4  UNL     1      12.590  16.175   7.067  1.00  0.00    -0.273 OA
BRANCH  37  38
HETATM   38  C15 UNL     1      12.865  14.839   6.859  1.00  0.00     0.247 C 
BRANCH  38  39
HETATM   39  C16 UNL     1      12.895  14.030   8.107  1.00  0.00     0.111 C 
BRANCH  39  40
HETATM   40  N10 UNL     1      11.683  13.836   8.791  1.00  0.00    -0.304 N 
BRANCH  40  41
HETATM   41  N11 UNL     1      11.065  12.621   8.585  1.00  0.00    -0.343 N 
ATOM     42 2H11 UNL     1      10.078  12.583   8.841  1.00  0.00     0.177 HD
ATOM     43 1H11 UNL     1      11.659  11.797   8.681  1.00  0.00     0.177 HD
ENDBRANCH  40  41
BRANCH  40  44
HETATM   44  C17 UNL     1      11.472  14.417  10.059  1.00  0.00     0.225 C 
BRANCH  44  45
HETATM   45  C18 UNL     1      10.614  15.626  10.025  1.00  0.00     0.132 A 
HETATM   46  N12 UNL     1       9.424  15.648   9.346  1.00  0.00    -0.273 N 
HETATM   47  N13 UNL     1       8.870  16.845   9.483  1.00  0.00    -0.129 N 
ATOM     48  H12 UNL     1       9.027  14.869   8.820  1.00  0.00     0.189 HD
HETATM   49  C19 UNL     1       9.676  17.634  10.248  1.00  0.00     0.714 A 
ATOM     50  H13 UNL     1       7.979  17.131   9.079  1.00  0.00     0.205 HD
HETATM   51  N17 UNL     1      10.732  16.830  10.550  1.00  0.00    -0.175 N 
ATOM     52  H17 UNL     1      11.525  17.125  11.120  1.00  0.00     0.185 HD
BRANCH  49  53
HETATM   53  N14 UNL     1       9.504  18.974  10.651  1.00  0.00    -0.117 N 
ATOM     54  H14 UNL     1       9.046  19.185  11.538  1.00  0.00     0.207 HD
BRANCH  53  55
HETATM   55  N15 UNL     1       9.914  19.905   9.921  1.00  0.00    -0.235 N 
HETATM   56  N16 UNL     1       9.842  20.949   9.229  1.00  0.00    -0.330 N 
ATOM     57 2H16 UNL     1       8.846  21.137   9.341  1.00  0.00     0.178 HD
ATOM     58 1H16 UNL     1      10.177  21.708   8.635  1.00  0.00     0.178 HD
ATOM     59  H15 UNL     1      10.904  19.677   9.839  1.00  0.00     0.208 HD
ENDBRANCH  53  55
ENDBRANCH  49  53
ENDBRANCH  44  45
ENDBRANCH  40  44
ENDBRANCH  39  40
ENDBRANCH  38  39
ENDBRANCH  37  38
ENDBRANCH  35  37
ENDBRANCH   1  33
TORSDOF 20
ENDMDL
MODEL 5
REMARK VINA RESULT: -7.223829230      1.833      4.162
REMARK  20 active torsions:
REMARK  status: ('A' for Active; 'I' for Inactive)
REMARK    1  A    between atoms: C4_8  and  N3_9 
REMARK    2  A    between atoms: C5_12  and  C6_13 
REMARK    3  A    between atoms: C6_13  and  C7_14 
REMARK    4  A    between atoms: C7_14  and  O1_15 
REMARK    5  A    between atoms: C7_14  and  N4_17 
REMARK    6  A    between atoms: N4_17  and  C8_18 
REMARK    7  A    between atoms: C10_25  and  N8_26 
REMARK    8  A    between atoms: N8_26  and  C11_28 
REMARK    9  A    between atoms: C11_28  and  C13_30 
REMARK   10  A    between atoms: C13_30  and  O2_31 
REMARK   11  A    between atoms: C13_30  and  C14_33 
REMARK       I    between atoms: C14_33  and  N9_35 
REMARK   12  A    between atoms: N9_35  and  O4_37 
REMARK   13  A    between atoms: O4_37  and  C15_38 
REMARK   14  A    between atoms: C15_38  and  C16_39 
REMARK   15  A    between atoms: C16_39  and  N10_40 
REMARK   16  A    between atoms: N10_40  and  N11_41 
REMARK   17  A    between atoms: N10_40  and  C17_44 
REMARK   18  A    between atoms: C17_44  and  C18_45 
REMARK   19  A    between atoms: C19_50  and  N14_51 
REMARK   20  A    between atoms: N14_51  and  N15_53 
ROOT
HETATM    1  C13 UNL     1      11.631  19.235   4.398  1.00  0.00     0.234 C 
ENDROOT
BRANCH   1   2
HETATM    2  C11 UNL     1      12.619  18.514   5.296  1.00  0.00     0.117 C 
HETATM    3  C12 UNL     1      12.394  17.051   5.410  1.00  0.00     0.035 C 
BRANCH   2   4
HETATM    4  N8  UNL     1      12.591  19.143   6.593  1.00  0.00    -0.364 N 
ATOM      5  H8  UNL     1      11.743  19.607   6.918  1.00  0.00     0.161 HD
BRANCH   4   6
HETATM    6  C10 UNL     1      13.735  19.115   7.407  1.00  0.00     0.178 A 
HETATM    7  C8  UNL     1      13.885  18.288   8.550  1.00  0.00     0.237 A 
HETATM    8  N5  UNL     1      15.130  18.622   9.010  1.00  0.00    -0.255 N 
HETATM    9  N6  UNL     1      15.698  19.525   8.280  1.00  0.00    -0.235 N 
ATOM     10  H5  UNL     1      15.560  18.206   9.836  1.00  0.00     0.191 HD
HETATM   11  C9  UNL     1      17.035  20.133   8.446  1.00  0.00     0.200 C 
HETATM   12  N7  UNL     1      14.862  19.821   7.319  1.00  0.00    -0.265 N 
ATOM     13  H7  UNL     1      15.050  20.508   6.589  1.00  0.00     0.190 HD
BRANCH   7  14
HETATM   14  N4  UNL     1      13.082  17.492   8.978  1.00  0.00    -0.393 NA
BRANCH  14  15
HETATM   15  C7  UNL     1      12.336  16.581   9.597  1.00  0.00     0.304 C 
BRANCH  15  16
HETATM   16  C6  UNL     1      12.802  15.175   9.894  1.00  0.00     0.112 C 
BRANCH  16  17
HETATM   17  C5  UNL     1      12.376  14.122   9.015  1.00  0.00     0.013 A 
HETATM   18  C2  UNL     1      13.058  13.741   7.889  1.00  0.00     0.016 A 
HETATM   19  C1  UNL     1      14.239  14.474   7.371  1.00  0.00     0.069 C 
HETATM   20  N1  UNL     1      12.615  12.667   7.162  1.00  0.00    -0.355 N 
HETATM   21  C3  UNL     1      11.529  11.959   7.503  1.00  0.00     0.182 A 
ATOM     22  H1  UNL     1      13.135  12.395   6.328  1.00  0.00     0.166 HD
HETATM   23  N2  UNL     1      10.861  12.324   8.591  1.00  0.00    -0.339 N 
HETATM   24  C4  UNL     1      11.250  13.353   9.326  1.00  0.00     0.108 A 
ATOM     25  H2  UNL     1      10.031  11.799   8.866  1.00  0.00     0.168 HD
BRANCH  24  26
HETATM   26  N3  UNL     1      10.577  13.684  10.372  1.00  0.00    -0.385 N 
ATOM     27  H32 UNL     1      10.066  12.945  10.855  1.00  0.00     0.157 HD
ATOM     28  H31 UNL     1      10.574  14.653  10.689  1.00  0.00     0.157 HD
ENDBRANCH  24  26
ENDBRANCH  16  17
ENDBRANCH  15  16
BRANCH  15  29
HETATM   29  O1  UNL     1      11.073  16.469   8.889  1.00  0.00    -0.365 OA
ATOM     30  H1  UNL     1      10.503  17.148   9.230  1.00  0.00     0.213 HD
ENDBRANCH  15  29
ENDBRANCH  14  15
ENDBRANCH   7  14
ENDBRANCH   4   6
ENDBRANCH   2   4
ENDBRANCH   1   2
BRANCH   1  31
HETATM   31  O2  UNL     1      12.230  19.625   3.201  1.00  0.00    -0.384 OA
ATOM     32  H2  UNL     1      11.960  19.062   2.484  1.00  0.00     0.210 HD
ENDBRANCH   1  31
BRANCH   1  33
HETATM   33  C14 UNL     1      11.104  20.461   5.107  1.00  0.00     0.272 C 
HETATM   34  O3  UNL     1      10.017  20.385   5.722  1.00  0.00    -0.268 OA
HETATM   35  N9  UNL     1      11.874  21.646   5.042  1.00  0.00    -0.232 N 
ATOM     36  H9  UNL     1      12.746  21.621   4.514  1.00  0.00     0.197 HD
BRANCH  35  37
HETATM   37  O4  UNL     1      11.526  22.802   5.631  1.00  0.00    -0.273 OA
BRANCH  37  38
HETATM   38  C15 UNL     1      10.605  23.536   4.913  1.00  0.00     0.247 C 
BRANCH  38  39
HETATM   39  C16 UNL     1       9.910  24.578   5.715  1.00  0.00     0.111 C 
BRANCH  39  40
HETATM   40  N10 UNL     1      10.336  24.779   7.039  1.00  0.00    -0.304 N 
BRANCH  40  41
HETATM   41  N11 UNL     1      11.110  25.900   7.257  1.00  0.00    -0.343 N 
ATOM     42 2H11 UNL     1      11.911  25.766   7.874  1.00  0.00     0.177 HD
ATOM     43 1H11 UNL     1      10.618  26.792   7.231  1.00  0.00     0.177 HD
ENDBRANCH  40  41
BRANCH  40  44
HETATM   44  C17 UNL     1       9.530  24.379   8.124  1.00  0.00     0.225 C 
BRANCH  44  45
HETATM   45  C18 UNL     1       9.899  23.056   8.685  1.00  0.00     0.132 A 
HETATM   46  N12 UNL     1      10.426  22.929   9.944  1.00  0.00    -0.273 N 
HETATM   47  N13 UNL     1      10.660  21.646  10.185  1.00  0.00    -0.129 N 
ATOM     48  H12 UNL     1      10.609  23.696  10.590  1.00  0.00     0.189 HD
HETATM   49  C19 UNL     1      10.298  20.905   9.101  1.00  0.00     0.714 A 
ATOM     50  H13 UNL     1      11.052  21.272  11.049  1.00  0.00     0.205 HD
HETATM   51  N17 UNL     1       9.837  21.828   8.212  1.00  0.00    -0.175 N 
ATOM     52  H17 UNL     1       9.484  21.594   7.284  1.00  0.00     0.185 HD
BRANCH  49  53
HETATM   53  N14 UNL     1      10.369  19.512   8.897  1.00  0.00    -0.117 N 
ATOM     54  H14 UNL     1      11.063  18.958   9.398  1.00  0.00     0.207 HD
BRANCH  53  55
HETATM   55  N15 UNL     1       9.580  18.955   8.100  1.00  0.00    -0.235 N 
HETATM   56  N16 UNL     1       9.184  18.095   7.277  1.00  0.00    -0.330 N 
ATOM     57 2H16 UNL     1      10.017  17.507   7.258  1.00  0.00     0.178 HD
ATOM     58 1H16 UNL     1       8.541  17.641   6.628  1.00  0.00     0.178 HD
ATOM     59  H15 UNL     1       8.771  19.572   8.153  1.00  0.00     0.208 HD
ENDBRANCH  53  55
ENDBRANCH  49  53
ENDBRANCH  44  45
ENDBRANCH  40  44
ENDBRANCH  39  40
ENDBRANCH  38  39
ENDBRANCH  37  38
ENDBRANCH  35  37
ENDBRANCH   1  33
TORSDOF 20
ENDMDL
