MODEL 1
REMARK VINA RESULT: -7.421846027      0.000      0.000
REMARK  17 active torsions:
REMARK  status: ('A' for Active; 'I' for Inactive)
REMARK    1  A    between atoms: C2_2  and  C3_4 
REMARK    2  A    between atoms: C3_4  and  C4_6 
REMARK    3  A    between atoms: C4_6  and  N1_7 
REMARK    4  A    between atoms: C4_6  and  C14_33 
REMARK    5  A    between atoms: N1_7  and  N2_9 
REMARK    6  A    between atoms: N2_9  and  C5_10 
REMARK    7  A    between atoms: C5_10  and  O3_11 
REMARK    8  A    between atoms: C5_10  and  C6_13 
REMARK    9  A    between atoms: C6_13  and  N3_14 
REMARK   10  A    between atoms: C6_13  and  C12_28 
REMARK       I    between atoms: N3_14  and  C7_16 
REMARK   11  A    between atoms: C7_16  and  C8_18 
REMARK   12  A    between atoms: C8_18  and  C9_19 
REMARK   13  A    between atoms: C11_22  and  N4_23 
REMARK   14  A    between atoms: C12_28  and  C13_30 
REMARK   15  A    between atoms: C13_30  and  O6_31 
REMARK   16  A    between atoms: C17_38  and  N7_39 
REMARK       I    between atoms: N7_39  and  C18_41 
REMARK   17  A    between atoms: C18_41  and  C19_43 
ROOT
HETATM    1  N1  UNL     1      13.969  17.720   7.179  1.00  0.00    -0.320 N 
ATOM      2  H1  UNL     1      14.470  18.113   6.382  1.00  0.00     0.177 HD
ENDROOT
BRANCH   1   3
HETATM    3  C4  UNL     1      12.630  17.241   7.058  1.00  0.00     0.207 C 
BRANCH   3   4
HETATM    4  C3  UNL     1      12.645  15.829   6.618  1.00  0.00     0.222 C 
HETATM    5  O2  UNL     1      11.547  15.204   6.591  1.00  0.00    -0.287 OA
BRANCH   4   6
HETATM    6  C2  UNL     1      13.836  15.117   6.214  1.00  0.00     0.193 C 
HETATM    7  C1  UNL     1      14.394  14.037   7.041  1.00  0.00     0.100 C 
HETATM    8  O1  UNL     1      14.407  15.421   5.143  1.00  0.00    -0.290 OA
ENDBRANCH   4   6
ENDBRANCH   3   4
BRANCH   3   9
HETATM    9  C14 UNL     1      11.809  18.023   6.118  1.00  0.00    -0.009 A 
HETATM   10  C15 UNL     1      10.596  18.521   6.519  1.00  0.00     0.097 A 
HETATM   11  N6  UNL     1       9.826  19.261   5.680  1.00  0.00    -0.372 N 
HETATM   12  C16 UNL     1      10.245  19.520   4.432  1.00  0.00     0.117 A 
ATOM     13  H6  UNL     1       8.926  19.621   6.000  1.00  0.00     0.164 HD
HETATM   14  C17 UNL     1      11.479  19.044   3.951  1.00  0.00     0.051 A 
HETATM   15  C20 UNL     1      12.227  18.300   4.829  1.00  0.00     0.042 A 
BRANCH  14  16
HETATM   16  N7  UNL     1      11.819  19.379   2.624  1.00  0.00    -0.319 N 
HETATM   17  C18 UNL     1      12.272  20.607   2.120  1.00  0.00     0.292 C 
HETATM   18  O7  UNL     1      12.433  21.601   2.843  1.00  0.00    -0.264 OA
ATOM     19  H7  UNL     1      11.723  18.629   1.940  1.00  0.00     0.169 HD
BRANCH  17  20
HETATM   20  C19 UNL     1      12.572  20.756   0.693  1.00  0.00     0.203 A 
HETATM   21  N8  UNL     1      12.942  19.781  -0.143  1.00  0.00    -0.262 N 
HETATM   22  N9  UNL     1      13.125  20.307  -1.354  1.00  0.00    -0.005 NA
ATOM     23  H8  UNL     1      13.063  18.799   0.104  1.00  0.00     0.186 HD
HETATM   24  N10 UNL     1      12.873  21.601  -1.285  1.00  0.00    -0.225 N 
HETATM   25  N11 UNL     1      12.540  21.880  -0.053  1.00  0.00    -0.267 N 
ATOM     26  H10 UNL     1      12.929  22.266  -2.056  1.00  0.00     0.205 HD
ATOM     27  H11 UNL     1      12.293  22.807   0.293  1.00  0.00     0.190 HD
ENDBRANCH  17  20
ENDBRANCH  14  16
ENDBRANCH   3   9
ENDBRANCH   1   3
BRANCH   1  28
HETATM   28  N2  UNL     1      14.552  17.627   8.420  1.00  0.00    -0.110 NA
BRANCH  28  29
HETATM   29  C5  UNL     1      15.258  18.891   8.638  1.00  0.00     0.261 C 
BRANCH  29  30
HETATM   30  O3  UNL     1      15.624  19.316   7.362  1.00  0.00    -0.376 OA
ATOM     31  H3  UNL     1      16.305  18.711   7.092  1.00  0.00     0.211 HD
ENDBRANCH  29  30
BRANCH  29  32
HETATM   32  C6  UNL     1      14.472  19.904   9.335  1.00  0.00     0.202 C 
BRANCH  32  33
HETATM   33  N3  UNL     1      13.299  19.388  10.063  1.00  0.00    -0.345 N 
HETATM   34  C7  UNL     1      11.976  19.729   9.775  1.00  0.00     0.224 C 
HETATM   35  O4  UNL     1      11.781  20.534   8.824  1.00  0.00    -0.273 OA
ATOM     36  H3  UNL     1      13.465  18.737  10.831  1.00  0.00     0.163 HD
BRANCH  34  37
HETATM   37  C8  UNL     1      10.879  19.151  10.568  1.00  0.00     0.160 C 
BRANCH  37  38
HETATM   38  C9  UNL     1      10.779  17.648  10.313  1.00  0.00     0.026 A 
HETATM   39  C10 UNL     1       9.553  17.094  10.060  1.00  0.00     0.078 A 
HETATM   40  S1  UNL     1       9.935  15.448   9.847  1.00  0.00    -0.064 SA
HETATM   41  C11 UNL     1      11.617  15.547  10.088  1.00  0.00     0.142 A 
HETATM   42  N5  UNL     1      11.816  16.841  10.323  1.00  0.00    -0.340 N 
ATOM     43  H5  UNL     1      12.753  17.200  10.507  1.00  0.00     0.168 HD
BRANCH  41  44
HETATM   44  N4  UNL     1      12.530  14.593  10.058  1.00  0.00    -0.380 N 
ATOM     45  H42 UNL     1      12.418  13.643   9.701  1.00  0.00     0.158 HD
ATOM     46  H41 UNL     1      13.500  14.610  10.373  1.00  0.00     0.158 HD
ENDBRANCH  41  44
ENDBRANCH  37  38
ENDBRANCH  34  37
ENDBRANCH  32  33
BRANCH  32  47
HETATM   47  C12 UNL     1      15.257  20.755  10.234  1.00  0.00     0.176 C 
HETATM   48  O5  UNL     1      16.491  20.811   9.924  1.00  0.00    -0.293 OA
BRANCH  47  49
HETATM   49  C13 UNL     1      14.922  21.550  11.401  1.00  0.00     0.244 C 
BRANCH  49  50
HETATM   50  O6  UNL     1      14.134  20.980  12.379  1.00  0.00    -0.394 OA
ATOM     51  H6  UNL     1      14.517  20.821  13.233  1.00  0.00     0.209 HD
ENDBRANCH  49  50
ENDBRANCH  47  49
ENDBRANCH  32  47
ENDBRANCH  29  32
ENDBRANCH  28  29
ENDBRANCH   1  28
TORSDOF 17
ENDMDL
MODEL 2
REMARK VINA RESULT: -7.408930249      3.450      6.971
REMARK  17 active torsions:
REMARK  status: ('A' for Active; 'I' for Inactive)
REMARK    1  A    between atoms: C2_2  and  C3_4 
REMARK    2  A    between atoms: C3_4  and  C4_6 
REMARK    3  A    between atoms: C4_6  and  N1_7 
REMARK    4  A    between atoms: C4_6  and  C14_33 
REMARK    5  A    between atoms: N1_7  and  N2_9 
REMARK    6  A    between atoms: N2_9  and  C5_10 
REMARK    7  A    between atoms: C5_10  and  O3_11 
REMARK    8  A    between atoms: C5_10  and  C6_13 
REMARK    9  A    between atoms: C6_13  and  N3_14 
REMARK   10  A    between atoms: C6_13  and  C12_28 
REMARK       I    between atoms: N3_14  and  C7_16 
REMARK   11  A    between atoms: C7_16  and  C8_18 
REMARK   12  A    between atoms: C8_18  and  C9_19 
REMARK   13  A    between atoms: C11_22  and  N4_23 
REMARK   14  A    between atoms: C12_28  and  C13_30 
REMARK   15  A    between atoms: C13_30  and  O6_31 
REMARK   16  A    between atoms: C17_38  and  N7_39 
REMARK       I    between atoms: N7_39  and  C18_41 
REMARK   17  A    between atoms: C18_41  and  C19_43 
ROOT
HETATM    1  N1  UNL     1      11.769  17.455   6.212  1.00  0.00    -0.320 N 
ATOM      2  H1  UNL     1      12.681  17.500   5.758  1.00  0.00     0.177 HD
ENDROOT
BRANCH   1   3
HETATM    3  C4  UNL     1      11.140  18.621   6.742  1.00  0.00     0.207 C 
BRANCH   3   4
HETATM    4  C3  UNL     1      10.636  19.461   5.634  1.00  0.00     0.222 C 
HETATM    5  O2  UNL     1       9.392  19.679   5.574  1.00  0.00    -0.287 OA
BRANCH   4   6
HETATM    6  C2  UNL     1      11.474  20.052   4.617  1.00  0.00     0.193 C 
HETATM    7  C1  UNL     1      11.474  21.504   4.379  1.00  0.00     0.100 C 
HETATM    8  O1  UNL     1      12.215  19.322   3.923  1.00  0.00    -0.290 OA
ENDBRANCH   4   6
ENDBRANCH   3   4
BRANCH   3   9
HETATM    9  C14 UNL     1      12.029  19.434   7.589  1.00  0.00    -0.009 A 
HETATM   10  C15 UNL     1      11.571  20.604   8.138  1.00  0.00     0.097 A 
HETATM   11  N6  UNL     1      12.363  21.365   8.937  1.00  0.00    -0.372 N 
HETATM   12  C16 UNL     1      13.620  20.979   9.206  1.00  0.00     0.117 A 
ATOM     13  H6  UNL     1      12.001  22.232   9.335  1.00  0.00     0.164 HD
HETATM   14  C17 UNL     1      14.159  19.791   8.679  1.00  0.00     0.051 A 
HETATM   15  C20 UNL     1      13.328  19.051   7.876  1.00  0.00     0.042 A 
BRANCH  14  16
HETATM   16  N7  UNL     1      15.490  19.483   9.028  1.00  0.00    -0.319 N 
HETATM   17  C18 UNL     1      15.955  18.555   9.971  1.00  0.00     0.292 C 
HETATM   18  O7  UNL     1      15.187  17.853  10.645  1.00  0.00    -0.264 OA
ATOM     19  H7  UNL     1      16.210  20.006   8.530  1.00  0.00     0.169 HD
BRANCH  17  20
HETATM   20  C19 UNL     1      17.393  18.382  10.193  1.00  0.00     0.203 A 
HETATM   21  N8  UNL     1      18.372  19.086   9.616  1.00  0.00    -0.262 N 
HETATM   22  N9  UNL     1      19.542  18.636  10.070  1.00  0.00    -0.005 NA
ATOM     23  H8  UNL     1      18.246  19.840   8.942  1.00  0.00     0.186 HD
HETATM   24  N10 UNL     1      19.306  17.659  10.926  1.00  0.00    -0.225 N 
HETATM   25  N11 UNL     1      18.011  17.499  11.005  1.00  0.00    -0.267 N 
ATOM     26  H10 UNL     1      20.009  17.123  11.435  1.00  0.00     0.205 HD
ATOM     27  H11 UNL     1      17.540  16.811  11.591  1.00  0.00     0.190 HD
ENDBRANCH  17  20
ENDBRANCH  14  16
ENDBRANCH   3   9
ENDBRANCH   1   3
BRANCH   1  28
HETATM   28  N2  UNL     1      11.088  16.268   6.342  1.00  0.00    -0.110 NA
BRANCH  28  29
HETATM   29  C5  UNL     1      12.027  15.320   6.943  1.00  0.00     0.261 C 
BRANCH  29  30
HETATM   30  O3  UNL     1      13.287  15.794   6.584  1.00  0.00    -0.376 OA
ATOM     31  H3  UNL     1      13.539  15.268   5.834  1.00  0.00     0.211 HD
ENDBRANCH  29  30
BRANCH  29  32
HETATM   32  C6  UNL     1      11.898  15.184   8.390  1.00  0.00     0.202 C 
BRANCH  32  33
HETATM   33  N3  UNL     1      10.680  15.784   8.965  1.00  0.00    -0.345 N 
HETATM   34  C7  UNL     1      10.675  16.793   9.929  1.00  0.00     0.224 C 
HETATM   35  O4  UNL     1      11.794  17.214  10.330  1.00  0.00    -0.273 OA
ATOM     36  H3  UNL     1       9.780  15.437   8.635  1.00  0.00     0.163 HD
BRANCH  34  37
HETATM   37  C8  UNL     1       9.397  17.320  10.433  1.00  0.00     0.160 C 
BRANCH  37  38
HETATM   38  C9  UNL     1       9.649  18.375  11.509  1.00  0.00     0.026 A 
HETATM   39  C10 UNL     1       9.110  18.201  12.754  1.00  0.00     0.078 A 
HETATM   40  S1  UNL     1       9.648  19.590  13.581  1.00  0.00    -0.064 SA
HETATM   41  C11 UNL     1      10.522  20.314  12.313  1.00  0.00     0.142 A 
HETATM   42  N5  UNL     1      10.364  19.459  11.306  1.00  0.00    -0.340 N 
ATOM     43  H5  UNL     1      10.789  19.641  10.397  1.00  0.00     0.168 HD
BRANCH  41  44
HETATM   44  N4  UNL     1      11.201  21.448  12.297  1.00  0.00    -0.380 N 
ATOM     45  H42 UNL     1      10.887  22.358  12.635  1.00  0.00     0.158 HD
ATOM     46  H41 UNL     1      12.144  21.636  11.958  1.00  0.00     0.158 HD
ENDBRANCH  41  44
ENDBRANCH  37  38
ENDBRANCH  34  37
ENDBRANCH  32  33
BRANCH  32  47
HETATM   47  C12 UNL     1      12.028  13.806   8.875  1.00  0.00     0.176 C 
HETATM   48  O5  UNL     1      12.873  13.119   8.215  1.00  0.00    -0.293 OA
BRANCH  47  49
HETATM   49  C13 UNL     1      11.398  13.064   9.951  1.00  0.00     0.244 C 
BRANCH  49  50
HETATM   50  O6  UNL     1      10.071  12.714   9.817  1.00  0.00    -0.394 OA
ATOM     51  H6  UNL     1       9.752  12.469   8.957  1.00  0.00     0.209 HD
ENDBRANCH  49  50
ENDBRANCH  47  49
ENDBRANCH  32  47
ENDBRANCH  29  32
ENDBRANCH  28  29
ENDBRANCH   1  28
TORSDOF 17
ENDMDL
MODEL 3
REMARK VINA RESULT: -7.374655490      2.260      3.971
REMARK  17 active torsions:
REMARK  status: ('A' for Active; 'I' for Inactive)
REMARK    1  A    between atoms: C2_2  and  C3_4 
REMARK    2  A    between atoms: C3_4  and  C4_6 
REMARK    3  A    between atoms: C4_6  and  N1_7 
REMARK    4  A    between atoms: C4_6  and  C14_33 
REMARK    5  A    between atoms: N1_7  and  N2_9 
REMARK    6  A    between atoms: N2_9  and  C5_10 
REMARK    7  A    between atoms: C5_10  and  O3_11 
REMARK    8  A    between atoms: C5_10  and  C6_13 
REMARK    9  A    between atoms: C6_13  and  N3_14 
REMARK   10  A    between atoms: C6_13  and  C12_28 
REMARK       I    between atoms: N3_14  and  C7_16 
REMARK   11  A    between atoms: C7_16  and  C8_18 
REMARK   12  A    between atoms: C8_18  and  C9_19 
REMARK   13  A    between atoms: C11_22  and  N4_23 
REMARK   14  A    between atoms: C12_28  and  C13_30 
REMARK   15  A    between atoms: C13_30  and  O6_31 
REMARK   16  A    between atoms: C17_38  and  N7_39 
REMARK       I    between atoms: N7_39  and  C18_41 
REMARK   17  A    between atoms: C18_41  and  C19_43 
ROOT
HETATM    1  N1  UNL     1      11.185  17.573   7.278  1.00  0.00    -0.320 N 
ATOM      2  H1  UNL     1      11.555  18.178   8.011  1.00  0.00     0.177 HD
ENDROOT
BRANCH   1   3
HETATM    3  C4  UNL     1      11.744  17.561   5.965  1.00  0.00     0.207 C 
BRANCH   3   4
HETATM    4  C3  UNL     1      13.168  17.167   6.034  1.00  0.00     0.222 C 
HETATM    5  O2  UNL     1      13.615  16.399   5.135  1.00  0.00    -0.287 OA
BRANCH   4   6
HETATM    6  C2  UNL     1      14.082  17.606   7.063  1.00  0.00     0.193 C 
HETATM    7  C1  UNL     1      14.778  18.898   6.962  1.00  0.00     0.100 C 
HETATM    8  O1  UNL     1      14.291  16.879   8.059  1.00  0.00    -0.290 OA
ENDBRANCH   4   6
ENDBRANCH   3   4
BRANCH   3   9
HETATM    9  C14 UNL     1      11.642  18.857   5.272  1.00  0.00    -0.009 A 
HETATM   10  C15 UNL     1      11.405  20.001   5.991  1.00  0.00     0.097 A 
HETATM   11  N6  UNL     1      11.324  21.212   5.382  1.00  0.00    -0.372 N 
HETATM   12  C16 UNL     1      11.477  21.310   4.052  1.00  0.00     0.117 A 
ATOM     13  H6  UNL     1      11.147  22.050   5.937  1.00  0.00     0.164 HD
HETATM   14  C17 UNL     1      11.724  20.181   3.250  1.00  0.00     0.051 A 
HETATM   15  C20 UNL     1      11.798  18.976   3.903  1.00  0.00     0.042 A 
BRANCH  14  16
HETATM   16  N7  UNL     1      11.870  20.402   1.865  1.00  0.00    -0.319 N 
HETATM   17  C18 UNL     1      12.606  21.400   1.210  1.00  0.00     0.292 C 
HETATM   18  O7  UNL     1      13.255  22.257   1.828  1.00  0.00    -0.264 OA
ATOM     19  H7  UNL     1      11.374  19.749   1.258  1.00  0.00     0.169 HD
BRANCH  17  20
HETATM   20  C19 UNL     1      12.630  21.463  -0.253  1.00  0.00     0.203 A 
HETATM   21  N8  UNL     1      12.053  22.398  -1.014  1.00  0.00    -0.262 N 
HETATM   22  N9  UNL     1      12.295  22.114  -2.293  1.00  0.00    -0.005 NA
ATOM     23  H8  UNL     1      11.516  23.196  -0.673  1.00  0.00     0.186 HD
HETATM   24  N10 UNL     1      13.019  21.011  -2.342  1.00  0.00    -0.225 N 
HETATM   25  N11 UNL     1      13.225  20.612  -1.115  1.00  0.00    -0.267 N 
ATOM     26  H10 UNL     1      13.358  20.552  -3.187  1.00  0.00     0.205 HD
ATOM     27  H11 UNL     1      13.755  19.782  -0.849  1.00  0.00     0.190 HD
ENDBRANCH  17  20
ENDBRANCH  14  16
ENDBRANCH   3   9
ENDBRANCH   1   3
BRANCH   1  28
HETATM   28  N2  UNL     1      10.124  16.730   7.509  1.00  0.00    -0.110 NA
BRANCH  28  29
HETATM   29  C5  UNL     1       9.322  17.357   8.560  1.00  0.00     0.261 C 
BRANCH  29  30
HETATM   30  O3  UNL     1       8.047  16.820   8.401  1.00  0.00    -0.376 OA
ATOM     31  H3  UNL     1       7.464  17.460   8.792  1.00  0.00     0.211 HD
ENDBRANCH  29  30
BRANCH  29  32
HETATM   32  C6  UNL     1       9.830  17.141   9.911  1.00  0.00     0.202 C 
BRANCH  32  33
HETATM   33  N3  UNL     1      10.879  16.112  10.023  1.00  0.00    -0.345 N 
HETATM   34  C7  UNL     1      10.647  14.784  10.384  1.00  0.00     0.224 C 
HETATM   35  O4  UNL     1       9.456  14.451  10.630  1.00  0.00    -0.273 OA
ATOM     36  H3  UNL     1      11.840  16.389   9.824  1.00  0.00     0.163 HD
BRANCH  34  37
HETATM   37  C8  UNL     1      11.772  13.837  10.464  1.00  0.00     0.160 C 
BRANCH  37  38
HETATM   38  C9  UNL     1      12.231  13.443   9.061  1.00  0.00     0.026 A 
HETATM   39  C10 UNL     1      11.551  12.465   8.387  1.00  0.00     0.078 A 
HETATM   40  S1  UNL     1      12.405  12.378   6.915  1.00  0.00    -0.064 SA
HETATM   41  C11 UNL     1      13.571  13.578   7.230  1.00  0.00     0.142 A 
HETATM   42  N5  UNL     1      13.256  13.995   8.453  1.00  0.00    -0.340 N 
ATOM     43  H5  UNL     1      13.799  14.729   8.909  1.00  0.00     0.168 HD
BRANCH  41  44
HETATM   44  N4  UNL     1      14.560  14.011   6.469  1.00  0.00    -0.380 N 
ATOM     45  H42 UNL     1      15.054  14.900   6.548  1.00  0.00     0.158 HD
ATOM     46  H41 UNL     1      15.016  13.559   5.676  1.00  0.00     0.158 HD
ENDBRANCH  41  44
ENDBRANCH  37  38
ENDBRANCH  34  37
ENDBRANCH  32  33
BRANCH  32  47
HETATM   47  C12 UNL     1      10.286  18.364  10.581  1.00  0.00     0.176 C 
HETATM   48  O5  UNL     1       9.522  18.730  11.531  1.00  0.00    -0.293 OA
BRANCH  47  49
HETATM   49  C13 UNL     1      11.426  19.241  10.388  1.00  0.00     0.244 C 
BRANCH  49  50
HETATM   50  O6  UNL     1      12.587  18.704   9.873  1.00  0.00    -0.394 OA
ATOM     51  H6  UNL     1      13.296  19.294   9.648  1.00  0.00     0.209 HD
ENDBRANCH  49  50
ENDBRANCH  47  49
ENDBRANCH  32  47
ENDBRANCH  29  32
ENDBRANCH  28  29
ENDBRANCH   1  28
TORSDOF 17
ENDMDL
MODEL 4
REMARK VINA RESULT: -7.178241250      3.553      6.676
REMARK  17 active torsions:
REMARK  status: ('A' for Active; 'I' for Inactive)
REMARK    1  A    between atoms: C2_2  and  C3_4 
REMARK    2  A    between atoms: C3_4  and  C4_6 
REMARK    3  A    between atoms: C4_6  and  N1_7 
REMARK    4  A    between atoms: C4_6  and  C14_33 
REMARK    5  A    between atoms: N1_7  and  N2_9 
REMARK    6  A    between atoms: N2_9  and  C5_10 
REMARK    7  A    between atoms: C5_10  and  O3_11 
REMARK    8  A    between atoms: C5_10  and  C6_13 
REMARK    9  A    between atoms: C6_13  and  N3_14 
REMARK   10  A    between atoms: C6_13  and  C12_28 
REMARK       I    between atoms: N3_14  and  C7_16 
REMARK   11  A    between atoms: C7_16  and  C8_18 
REMARK   12  A    between atoms: C8_18  and  C9_19 
REMARK   13  A    between atoms: C11_22  and  N4_23 
REMARK   14  A    between atoms: C12_28  and  C13_30 
REMARK   15  A    between atoms: C13_30  and  O6_31 
REMARK   16  A    between atoms: C17_38  and  N7_39 
REMARK       I    between atoms: N7_39  and  C18_41 
REMARK   17  A    between atoms: C18_41  and  C19_43 
ROOT
HETATM    1  N1  UNL     1      11.855  15.519   6.566  1.00  0.00    -0.320 N 
ATOM      2  H1  UNL     1      10.975  15.061   6.329  1.00  0.00     0.177 HD
ENDROOT
BRANCH   1   3
HETATM    3  C4  UNL     1      12.361  15.522   7.900  1.00  0.00     0.207 C 
BRANCH   3   4
HETATM    4  C3  UNL     1      12.592  14.131   8.346  1.00  0.00     0.222 C 
HETATM    5  O2  UNL     1      13.144  13.952   9.470  1.00  0.00    -0.287 OA
BRANCH   4   6
HETATM    6  C2  UNL     1      12.225  12.961   7.582  1.00  0.00     0.193 C 
HETATM    7  C1  UNL     1      11.169  12.049   8.047  1.00  0.00     0.100 C 
HETATM    8  O1  UNL     1      12.811  12.714   6.505  1.00  0.00    -0.290 OA
ENDBRANCH   4   6
ENDBRANCH   3   4
BRANCH   3   9
HETATM    9  C14 UNL     1      11.470  16.189   8.864  1.00  0.00    -0.009 A 
HETATM   10  C15 UNL     1      10.373  15.528   9.355  1.00  0.00     0.097 A 
HETATM   11  N6  UNL     1       9.544  16.111  10.258  1.00  0.00    -0.372 N 
HETATM   12  C16 UNL     1       9.788  17.358  10.690  1.00  0.00     0.117 A 
ATOM     13  H6  UNL     1       8.734  15.600  10.609  1.00  0.00     0.164 HD
HETATM   14  C17 UNL     1      10.894  18.098  10.233  1.00  0.00     0.051 A 
HETATM   15  C20 UNL     1      11.707  17.474   9.320  1.00  0.00     0.042 A 
BRANCH  14  16
HETATM   16  N7  UNL     1      11.053  19.398  10.756  1.00  0.00    -0.319 N 
HETATM   17  C18 UNL     1      11.454  20.566  10.092  1.00  0.00     0.292 C 
HETATM   18  O7  UNL     1      11.731  20.579   8.883  1.00  0.00    -0.264 OA
ATOM     19  H7  UNL     1      10.850  19.503  11.750  1.00  0.00     0.169 HD
BRANCH  17  20
HETATM   20  C19 UNL     1      11.563  21.832  10.821  1.00  0.00     0.203 A 
HETATM   21  N8  UNL     1      12.317  22.881  10.477  1.00  0.00    -0.262 N 
HETATM   22  N9  UNL     1      12.149  23.841  11.386  1.00  0.00    -0.005 NA
ATOM     23  H8  UNL     1      12.920  22.937   9.657  1.00  0.00     0.186 HD
HETATM   24  N10 UNL     1      11.297  23.405  12.295  1.00  0.00    -0.225 N 
HETATM   25  N11 UNL     1      10.939  22.194  11.962  1.00  0.00    -0.267 N 
ATOM     26  H10 UNL     1      10.976  23.922  13.113  1.00  0.00     0.205 HD
ATOM     27  H11 UNL     1      10.287  21.610  12.485  1.00  0.00     0.190 HD
ENDBRANCH  17  20
ENDBRANCH  14  16
ENDBRANCH   3   9
ENDBRANCH   1   3
BRANCH   1  28
HETATM   28  N2  UNL     1      12.608  16.164   5.614  1.00  0.00    -0.110 NA
BRANCH  28  29
HETATM   29  C5  UNL     1      13.664  16.874   6.338  1.00  0.00     0.261 C 
BRANCH  29  30
HETATM   30  O3  UNL     1      14.853  16.346   5.837  1.00  0.00    -0.376 OA
ATOM     31  H3  UNL     1      15.459  17.078   5.832  1.00  0.00     0.211 HD
ENDBRANCH  29  30
BRANCH  29  32
HETATM   32  C6  UNL     1      13.619  18.325   6.192  1.00  0.00     0.202 C 
BRANCH  32  33
HETATM   33  N3  UNL     1      12.265  18.908   6.188  1.00  0.00    -0.345 N 
HETATM   34  C7  UNL     1      11.651  19.470   5.068  1.00  0.00     0.224 C 
HETATM   35  O4  UNL     1      12.306  19.476   3.991  1.00  0.00    -0.273 OA
ATOM     36  H3  UNL     1      11.742  18.899   7.063  1.00  0.00     0.163 HD
BRANCH  34  37
HETATM   37  C8  UNL     1      10.291  20.023   5.176  1.00  0.00     0.160 C 
BRANCH  37  38
HETATM   38  C9  UNL     1      10.344  21.453   5.712  1.00  0.00     0.026 A 
HETATM   39  C10 UNL     1      10.901  22.435   4.939  1.00  0.00     0.078 A 
HETATM   40  S1  UNL     1      10.737  23.812   5.928  1.00  0.00    -0.064 SA
HETATM   41  C11 UNL     1       9.977  23.075   7.261  1.00  0.00     0.142 A 
HETATM   42  N5  UNL     1       9.881  21.802   6.891  1.00  0.00    -0.340 N 
ATOM     43  H5  UNL     1       9.456  21.110   7.509  1.00  0.00     0.168 HD
BRANCH  41  44
HETATM   44  N4  UNL     1       9.570  23.609   8.399  1.00  0.00    -0.380 N 
ATOM     45  H42 UNL     1      10.149  24.051   9.114  1.00  0.00     0.158 HD
ATOM     46  H41 UNL     1       8.628  23.685   8.781  1.00  0.00     0.158 HD
ENDBRANCH  41  44
ENDBRANCH  37  38
ENDBRANCH  34  37
ENDBRANCH  32  33
BRANCH  32  47
HETATM   47  C12 UNL     1      14.448  19.049   7.162  1.00  0.00     0.176 C 
HETATM   48  O5  UNL     1      14.971  18.290   8.040  1.00  0.00    -0.293 OA
BRANCH  47  49
HETATM   49  C13 UNL     1      14.799  20.447   7.327  1.00  0.00     0.244 C 
BRANCH  49  50
HETATM   50  O6  UNL     1      13.900  21.403   6.906  1.00  0.00    -0.394 OA
ATOM     51  H6  UNL     1      13.490  21.295   6.056  1.00  0.00     0.209 HD
ENDBRANCH  49  50
ENDBRANCH  47  49
ENDBRANCH  32  47
ENDBRANCH  29  32
ENDBRANCH  28  29
ENDBRANCH   1  28
TORSDOF 17
ENDMDL
MODEL 5
REMARK VINA RESULT: -7.138142965      2.620      4.041
REMARK  17 active torsions:
REMARK  status: ('A' for Active; 'I' for Inactive)
REMARK    1  A    between atoms: C2_2  and  C3_4 
REMARK    2  A    between atoms: C3_4  and  C4_6 
REMARK    3  A    between atoms: C4_6  and  N1_7 
REMARK    4  A    between atoms: C4_6  and  C14_33 
REMARK    5  A    between atoms: N1_7  and  N2_9 
REMARK    6  A    between atoms: N2_9  and  C5_10 
REMARK    7  A    between atoms: C5_10  and  O3_11 
REMARK    8  A    between atoms: C5_10  and  C6_13 
REMARK    9  A    between atoms: C6_13  and  N3_14 
REMARK   10  A    between atoms: C6_13  and  C12_28 
REMARK       I    between atoms: N3_14  and  C7_16 
REMARK   11  A    between atoms: C7_16  and  C8_18 
REMARK   12  A    between atoms: C8_18  and  C9_19 
REMARK   13  A    between atoms: C11_22  and  N4_23 
REMARK   14  A    between atoms: C12_28  and  C13_30 
REMARK   15  A    between atoms: C13_30  and  O6_31 
REMARK   16  A    between atoms: C17_38  and  N7_39 
REMARK       I    between atoms: N7_39  and  C18_41 
REMARK   17  A    between atoms: C18_41  and  C19_43 
ROOT
HETATM    1  N1  UNL     1      13.302  15.835   9.667  1.00  0.00    -0.320 N 
ATOM      2  H1  UNL     1      14.019  15.286   9.193  1.00  0.00     0.177 HD
ENDROOT
BRANCH   1   3
HETATM    3  C4  UNL     1      11.930  15.442   9.656  1.00  0.00     0.207 C 
BRANCH   3   4
HETATM    4  C3  UNL     1      11.824  14.019   9.270  1.00  0.00     0.222 C 
HETATM    5  O2  UNL     1      11.062  13.274   9.951  1.00  0.00    -0.287 OA
BRANCH   4   6
HETATM    6  C2  UNL     1      12.532  13.423   8.160  1.00  0.00     0.193 C 
HETATM    7  C1  UNL     1      11.905  12.389   7.324  1.00  0.00     0.100 C 
HETATM    8  O1  UNL     1      13.700  13.789   7.902  1.00  0.00    -0.290 OA
ENDBRANCH   4   6
ENDBRANCH   3   4
BRANCH   3   9
HETATM    9  C14 UNL     1      11.097  16.246   8.745  1.00  0.00    -0.009 A 
HETATM   10  C15 UNL     1       9.769  16.444   9.025  1.00  0.00     0.097 A 
HETATM   11  N6  UNL     1       8.982  17.196   8.214  1.00  0.00    -0.372 N 
HETATM   12  C16 UNL     1       9.496  17.762   7.111  1.00  0.00     0.117 A 
ATOM     13  H6  UNL     1       7.997  17.330   8.442  1.00  0.00     0.164 HD
HETATM   14  C17 UNL     1      10.849  17.603   6.758  1.00  0.00     0.051 A 
HETATM   15  C20 UNL     1      11.612  16.837   7.604  1.00  0.00     0.042 A 
BRANCH  14  16
HETATM   16  N7  UNL     1      11.281  18.245   5.579  1.00  0.00    -0.319 N 
HETATM   17  C18 UNL     1      10.711  19.345   4.923  1.00  0.00     0.292 C 
HETATM   18  O7  UNL     1       9.691  19.912   5.341  1.00  0.00    -0.264 OA
ATOM     19  H7  UNL     1      12.120  17.859   5.147  1.00  0.00     0.169 HD
BRANCH  17  20
HETATM   20  C19 UNL     1      11.315  19.869   3.694  1.00  0.00     0.203 A 
HETATM   21  N8  UNL     1      11.803  21.101   3.516  1.00  0.00    -0.262 N 
HETATM   22  N9  UNL     1      12.266  21.198   2.270  1.00  0.00    -0.005 NA
ATOM     23  H8  UNL     1      11.820  21.842   4.217  1.00  0.00     0.186 HD
HETATM   24  N10 UNL     1      12.073  20.040   1.666  1.00  0.00    -0.225 N 
HETATM   25  N11 UNL     1      11.499  19.233   2.519  1.00  0.00    -0.267 N 
ATOM     26  H10 UNL     1      12.326  19.815   0.704  1.00  0.00     0.205 HD
ATOM     27  H11 UNL     1      11.231  18.268   2.324  1.00  0.00     0.190 HD
ENDBRANCH  17  20
ENDBRANCH  14  16
ENDBRANCH   3   9
ENDBRANCH   1   3
BRANCH   1  28
HETATM   28  N2  UNL     1      13.612  16.988  10.348  1.00  0.00    -0.110 NA
BRANCH  28  29
HETATM   29  C5  UNL     1      14.674  17.643   9.583  1.00  0.00     0.261 C 
BRANCH  29  30
HETATM   30  O3  UNL     1      14.800  16.877   8.425  1.00  0.00    -0.376 OA
ATOM     31  H3  UNL     1      15.655  17.104   8.078  1.00  0.00     0.211 HD
ENDBRANCH  29  30
BRANCH  29  32
HETATM   32  C6  UNL     1      14.412  19.044   9.272  1.00  0.00     0.202 C 
BRANCH  32  33
HETATM   33  N3  UNL     1      13.044  19.503   9.575  1.00  0.00    -0.345 N 
HETATM   34  C7  UNL     1      12.237  20.222   8.691  1.00  0.00     0.224 C 
HETATM   35  O4  UNL     1      12.721  20.493   7.558  1.00  0.00    -0.273 OA
ATOM     36  H3  UNL     1      12.661  19.280  10.493  1.00  0.00     0.163 HD
BRANCH  34  37
HETATM   37  C8  UNL     1      10.883  20.629   9.098  1.00  0.00     0.160 C 
BRANCH  37  38
HETATM   38  C9  UNL     1      10.489  21.928   8.398  1.00  0.00     0.026 A 
HETATM   39  C10 UNL     1      10.239  23.043   9.150  1.00  0.00     0.078 A 
HETATM   40  S1  UNL     1       9.851  24.203   7.964  1.00  0.00    -0.064 SA
HETATM   41  C11 UNL     1      10.024  23.219   6.586  1.00  0.00     0.142 A 
HETATM   42  N5  UNL     1      10.373  22.041   7.094  1.00  0.00    -0.340 N 
ATOM     43  H5  UNL     1      10.546  21.241   6.484  1.00  0.00     0.168 HD
BRANCH  41  44
HETATM   44  N4  UNL     1       9.859  23.521   5.310  1.00  0.00    -0.380 N 
ATOM     45  H42 UNL     1      10.215  24.341   4.819  1.00  0.00     0.158 HD
ATOM     46  H41 UNL     1       9.359  23.011   4.581  1.00  0.00     0.158 HD
ENDBRANCH  41  44
ENDBRANCH  37  38
ENDBRANCH  34  37
ENDBRANCH  32  33
BRANCH  32  47
HETATM   47  C12 UNL     1      15.373  19.979   9.868  1.00  0.00     0.176 C 
HETATM   48  O5  UNL     1      16.553  19.845   9.411  1.00  0.00    -0.293 OA
BRANCH  47  49
HETATM   49  C13 UNL     1      15.258  21.025  10.867  1.00  0.00     0.244 C 
BRANCH  49  50
HETATM   50  O6  UNL     1      14.393  20.831  11.923  1.00  0.00    -0.394 OA
ATOM     51  H6  UNL     1      14.759  20.681  12.786  1.00  0.00     0.209 HD
ENDBRANCH  49  50
ENDBRANCH  47  49
ENDBRANCH  32  47
ENDBRANCH  29  32
ENDBRANCH  28  29
ENDBRANCH   1  28
TORSDOF 17
ENDMDL
