MODEL 1
REMARK VINA RESULT: -6.670546420      0.000      0.000
REMARK  20 active torsions:
REMARK  status: ('A' for Active; 'I' for Inactive)
REMARK    1  A    between atoms: N1_1  and  N2_4 
REMARK    2  A    between atoms: N3_6  and  N4_8 
REMARK    3  A    between atoms: N4_8  and  C1_10 
REMARK    4  A    between atoms: C1_10  and  O1_11 
REMARK    5  A    between atoms: C1_10  and  C2_13 
REMARK    6  A    between atoms: C3_14  and  N5_15 
REMARK       I    between atoms: N5_15  and  C4_17 
REMARK    7  A    between atoms: C5_24  and  C6_25 
REMARK    8  A    between atoms: C6_25  and  N8_26 
REMARK    9  A    between atoms: C6_25  and  C13_46 
REMARK   10  A    between atoms: N8_26  and  C7_28 
REMARK   11  A    between atoms: C7_28  and  N9_29 
REMARK   12  A    between atoms: C7_28  and  C8_33 
REMARK   13  A    between atoms: C8_33  and  N10_34 
REMARK   14  A    between atoms: C8_33  and  C9_38 
REMARK   15  A    between atoms: C9_38  and  S1_39 
REMARK   16  A    between atoms: S1_39  and  C10_40 
REMARK   17  A    between atoms: C10_40  and  C11_41 
REMARK   18  A    between atoms: C11_41  and  C12_43 
REMARK   19  A    between atoms: C15_49  and  N11_50 
REMARK   20  A    between atoms: C16_55  and  O7_56 
ROOT
HETATM    1  C6  UNL     1      14.921  19.951   8.787  1.00  0.00     0.184 C 
ENDROOT
BRANCH   1   2
HETATM    2  C5  UNL     1      14.129  18.687   8.785  1.00  0.00     0.088 A 
HETATM    3  N7  UNL     1      13.384  18.289   9.810  1.00  0.00    -0.298 N 
HETATM    4  N6  UNL     1      12.692  17.180   9.784  1.00  0.00    -0.284 N 
ATOM      5  H7  UNL     1      13.350  18.870  10.649  1.00  0.00     0.187 HD
HETATM    6  C3  UNL     1      12.664  16.325   8.714  1.00  0.00     0.142 A 
ATOM      7  H6  UNL     1      12.142  16.936  10.608  1.00  0.00     0.188 HD
HETATM    8  C2  UNL     1      13.394  16.646   7.618  1.00  0.00     0.097 A 
HETATM    9  C16 UNL     1      14.153  17.861   7.643  1.00  0.00     0.110 A 
BRANCH   6  10
HETATM   10  N5  UNL     1      11.811  15.205   8.881  1.00  0.00    -0.285 N 
HETATM   11  C4  UNL     1      12.078  14.225   9.888  1.00  0.00     0.289 C 
HETATM   12  O2  UNL     1      13.070  14.326  10.613  1.00  0.00    -0.629 OA
HETATM   13  O3  UNL     1      11.215  13.159  10.044  1.00  0.00    -0.629 OA
ATOM     14  H5  UNL     1      10.998  15.096   8.276  1.00  0.00     0.173 HD
ENDBRANCH   6  10
BRANCH   8  15
HETATM   15  C1  UNL     1      13.463  15.833   6.434  1.00  0.00     0.173 C 
BRANCH  15  16
HETATM   16  N4  UNL     1      14.112  14.679   6.051  1.00  0.00    -0.264 N 
ATOM     17  H4  UNL     1      14.623  14.639   5.169  1.00  0.00     0.190 HD
BRANCH  16  18
HETATM   18  N3  UNL     1      14.053  13.507   6.936  1.00  0.00    -0.227 N 
HETATM   19  N2  UNL     1      13.075  12.744   6.794  1.00  0.00    -0.235 N 
ATOM     20  H2  UNL     1      13.103  12.517   5.800  1.00  0.00     0.209 HD
ATOM     21  H3  UNL     1      14.777  13.326   7.632  1.00  0.00     0.210 HD
BRANCH  19  22
HETATM   22  N1  UNL     1      12.094  12.115   7.195  1.00  0.00    -0.330 N 
ATOM     23  H12 UNL     1      12.536  11.487   7.866  1.00  0.00     0.178 HD
ATOM     24  H11 UNL     1      11.101  11.885   7.222  1.00  0.00     0.178 HD
ENDBRANCH  19  22
ENDBRANCH  16  18
ENDBRANCH  15  16
BRANCH  15  25
HETATM   25  O1  UNL     1      12.714  16.310   5.452  1.00  0.00    -0.344 OA
ATOM     26  H1  UNL     1      12.678  17.259   5.477  1.00  0.00     0.219 HD
ENDBRANCH  15  25
ENDBRANCH   8  15
BRANCH   9  27
HETATM   27  O7  UNL     1      14.896  18.266   6.631  1.00  0.00    -0.357 OA
ATOM     28  H7  UNL     1      15.835  18.130   6.591  1.00  0.00     0.217 HD
ENDBRANCH   9  27
ENDBRANCH   1   2
BRANCH   1  29
HETATM   29  N8  UNL     1      14.380  20.939   9.636  1.00  0.00    -0.379 N 
ATOM     30  H8  UNL     1      14.721  21.008  10.594  1.00  0.00     0.156 HD
BRANCH  29  31
HETATM   31  C7  UNL     1      13.394  21.823   9.202  1.00  0.00     0.309 C 
BRANCH  31  32
HETATM   32  N9  UNL     1      12.079  21.567   9.815  1.00  0.00    -0.057 N 
ATOM     33  H93 UNL     1      12.066  20.661  10.282  1.00  0.00     0.276 HD
ATOM     34  H92 UNL     1      11.930  22.173  10.622  1.00  0.00     0.276 HD
ATOM     35  H91 UNL     1      11.307  21.647   9.153  1.00  0.00     0.276 HD
ENDBRANCH  31  32
BRANCH  31  36
HETATM   36  C8  UNL     1      13.187  22.025   7.738  1.00  0.00     0.242 C 
BRANCH  36  37
HETATM   37  N10 UNL     1      14.125  22.865   7.069  1.00  0.00    -0.071 N 
ATOM     38 3H10 UNL     1      13.710  23.227   6.210  1.00  0.00     0.274 HD
ATOM     39 2H10 UNL     1      14.248  23.729   7.597  1.00  0.00     0.274 HD
ATOM     40 1H10 UNL     1      15.037  22.457   6.863  1.00  0.00     0.274 HD
ENDBRANCH  36  37
BRANCH  36  41
HETATM   41  C9  UNL     1      11.744  22.479   7.447  1.00  0.00     0.111 C 
BRANCH  41  42
HETATM   42  S1  UNL     1      10.951  21.464   6.204  1.00  0.00    -0.159 SA
BRANCH  42  43
HETATM   43  C10 UNL     1      11.424  19.720   6.292  1.00  0.00     0.164 C 
BRANCH  43  44
HETATM   44  C11 UNL     1      10.592  18.951   7.219  1.00  0.00     0.234 C 
HETATM   45  O4  UNL     1      10.657  19.160   8.446  1.00  0.00    -0.285 OA
BRANCH  44  46
HETATM   46  C12 UNL     1       9.687  17.941   6.714  1.00  0.00     0.247 C 
HETATM   47  O5  UNL     1       9.986  16.719   6.629  1.00  0.00    -0.642 OA
HETATM   48  O6  UNL     1       8.400  18.293   6.284  1.00  0.00    -0.642 OA
ENDBRANCH  44  46
ENDBRANCH  43  44
ENDBRANCH  42  43
ENDBRANCH  41  42
ENDBRANCH  36  41
ENDBRANCH  31  36
ENDBRANCH  29  31
ENDBRANCH   1  29
BRANCH   1  49
HETATM   49  C13 UNL     1      16.361  19.613   9.197  1.00  0.00     0.046 A 
HETATM   50  C14 UNL     1      17.422  20.348   8.744  1.00  0.00     0.080 A 
HETATM   51  S2  UNL     1      18.748  19.564   9.477  1.00  0.00    -0.064 SA
HETATM   52  C15 UNL     1      17.889  18.356  10.312  1.00  0.00     0.142 A 
HETATM   53  N12 UNL     1      16.620  18.603   9.996  1.00  0.00    -0.338 N 
ATOM     54  H12 UNL     1      15.867  18.021  10.364  1.00  0.00     0.168 HD
BRANCH  52  55
HETATM   55  N11 UNL     1      18.344  17.394  11.092  1.00  0.00    -0.380 N 
ATOM     56 2H11 UNL     1      19.181  16.828  10.948  1.00  0.00     0.158 HD
ATOM     57 1H11 UNL     1      17.962  17.037  11.967  1.00  0.00     0.158 HD
ENDBRANCH  52  55
ENDBRANCH   1  49
TORSDOF 20
ENDMDL
MODEL 2
REMARK VINA RESULT: -6.565477484      2.899      6.253
REMARK  20 active torsions:
REMARK  status: ('A' for Active; 'I' for Inactive)
REMARK    1  A    between atoms: N1_1  and  N2_4 
REMARK    2  A    between atoms: N3_6  and  N4_8 
REMARK    3  A    between atoms: N4_8  and  C1_10 
REMARK    4  A    between atoms: C1_10  and  O1_11 
REMARK    5  A    between atoms: C1_10  and  C2_13 
REMARK    6  A    between atoms: C3_14  and  N5_15 
REMARK       I    between atoms: N5_15  and  C4_17 
REMARK    7  A    between atoms: C5_24  and  C6_25 
REMARK    8  A    between atoms: C6_25  and  N8_26 
REMARK    9  A    between atoms: C6_25  and  C13_46 
REMARK   10  A    between atoms: N8_26  and  C7_28 
REMARK   11  A    between atoms: C7_28  and  N9_29 
REMARK   12  A    between atoms: C7_28  and  C8_33 
REMARK   13  A    between atoms: C8_33  and  N10_34 
REMARK   14  A    between atoms: C8_33  and  C9_38 
REMARK   15  A    between atoms: C9_38  and  S1_39 
REMARK   16  A    between atoms: S1_39  and  C10_40 
REMARK   17  A    between atoms: C10_40  and  C11_41 
REMARK   18  A    between atoms: C11_41  and  C12_43 
REMARK   19  A    between atoms: C15_49  and  N11_50 
REMARK   20  A    between atoms: C16_55  and  O7_56 
ROOT
HETATM    1  C6  UNL     1      11.188  16.669   8.321  1.00  0.00     0.184 C 
ENDROOT
BRANCH   1   2
HETATM    2  C5  UNL     1      12.392  17.413   8.793  1.00  0.00     0.088 A 
HETATM    3  N7  UNL     1      13.637  17.026   8.541  1.00  0.00    -0.298 N 
HETATM    4  N6  UNL     1      14.678  17.698   8.960  1.00  0.00    -0.284 N 
ATOM      5  H7  UNL     1      13.788  16.173   8.001  1.00  0.00     0.187 HD
HETATM    6  C3  UNL     1      14.594  18.854   9.690  1.00  0.00     0.142 A 
ATOM      7  H6  UNL     1      15.605  17.342   8.729  1.00  0.00     0.188 HD
HETATM    8  C2  UNL     1      13.362  19.330   9.998  1.00  0.00     0.097 A 
HETATM    9  C16 UNL     1      12.220  18.596   9.541  1.00  0.00     0.110 A 
BRANCH   6  10
HETATM   10  N5  UNL     1      15.845  19.444   9.999  1.00  0.00    -0.285 N 
HETATM   11  C4  UNL     1      16.761  19.804   8.961  1.00  0.00     0.289 C 
HETATM   12  O2  UNL     1      16.487  19.584   7.780  1.00  0.00    -0.629 OA
HETATM   13  O3  UNL     1      17.961  20.401   9.292  1.00  0.00    -0.629 OA
ATOM     14  H5  UNL     1      16.095  19.614  10.972  1.00  0.00     0.173 HD
ENDBRANCH   6  10
BRANCH   8  15
HETATM   15  C1  UNL     1      13.133  20.523  10.768  1.00  0.00     0.173 C 
BRANCH  15  16
HETATM   16  N4  UNL     1      12.339  21.644  10.659  1.00  0.00    -0.264 N 
ATOM     17  H4  UNL     1      12.597  22.405  10.031  1.00  0.00     0.190 HD
BRANCH  16  18
HETATM   18  N3  UNL     1      11.113  21.723  11.465  1.00  0.00    -0.227 N 
HETATM   19  N2  UNL     1      10.783  20.693  12.089  1.00  0.00    -0.235 N 
ATOM     20  H2  UNL     1      11.622  20.470  12.625  1.00  0.00     0.209 HD
ATOM     21  H3  UNL     1      10.558  22.578  11.512  1.00  0.00     0.210 HD
BRANCH  19  22
HETATM   22  N1  UNL     1      10.001  19.797  12.413  1.00  0.00    -0.330 N 
ATOM     23  H12 UNL     1       9.277  19.914  11.704  1.00  0.00     0.178 HD
ATOM     24  H11 UNL     1       9.689  19.018  12.993  1.00  0.00     0.178 HD
ENDBRANCH  19  22
ENDBRANCH  16  18
ENDBRANCH  15  16
BRANCH  15  25
HETATM   25  O1  UNL     1      13.874  20.564  11.864  1.00  0.00    -0.344 OA
ATOM     26  H1  UNL     1      14.583  19.933  11.823  1.00  0.00     0.219 HD
ENDBRANCH  15  25
ENDBRANCH   8  15
BRANCH   9  27
HETATM   27  O7  UNL     1      10.979  18.971   9.785  1.00  0.00    -0.357 OA
ATOM     28  H7  UNL     1      10.624  19.804   9.498  1.00  0.00     0.217 HD
ENDBRANCH   9  27
ENDBRANCH   1   2
BRANCH   1  29
HETATM   29  N8  UNL     1      10.951  16.825   6.940  1.00  0.00    -0.379 N 
ATOM     30  H8  UNL     1      10.982  16.004   6.336  1.00  0.00     0.156 HD
BRANCH  29  31
HETATM   31  C7  UNL     1      10.676  18.069   6.376  1.00  0.00     0.309 C 
BRANCH  31  32
HETATM   32  N9  UNL     1       9.321  18.157   5.802  1.00  0.00    -0.057 N 
ATOM     33  H93 UNL     1       9.349  18.550   4.862  1.00  0.00     0.276 HD
ATOM     34  H92 UNL     1       8.958  17.229   5.585  1.00  0.00     0.276 HD
ATOM     35  H91 UNL     1       8.669  18.673   6.393  1.00  0.00     0.276 HD
ENDBRANCH  31  32
BRANCH  31  36
HETATM   36  C8  UNL     1      11.631  18.651   5.388  1.00  0.00     0.242 C 
BRANCH  36  37
HETATM   37  N10 UNL     1      12.732  19.386   5.920  1.00  0.00    -0.071 N 
ATOM     38 3H10 UNL     1      12.839  19.172   6.912  1.00  0.00     0.274 HD
ATOM     39 2H10 UNL     1      13.606  19.010   5.551  1.00  0.00     0.274 HD
ATOM     40 1H10 UNL     1      12.712  20.397   5.788  1.00  0.00     0.274 HD
ENDBRANCH  36  37
BRANCH  36  41
HETATM   41  C9  UNL     1      10.883  19.480   4.327  1.00  0.00     0.111 C 
BRANCH  41  42
HETATM   42  S1  UNL     1      11.439  21.182   4.281  1.00  0.00    -0.159 SA
BRANCH  42  43
HETATM   43  C10 UNL     1      10.405  22.301   5.255  1.00  0.00     0.164 C 
BRANCH  43  44
HETATM   44  C11 UNL     1       9.826  21.659   6.435  1.00  0.00     0.234 C 
HETATM   45  O4  UNL     1       8.692  21.144   6.381  1.00  0.00    -0.285 OA
BRANCH  44  46
HETATM   46  C12 UNL     1      10.569  21.616   7.676  1.00  0.00     0.247 C 
HETATM   47  O5  UNL     1      11.818  21.782   7.745  1.00  0.00    -0.642 OA
HETATM   48  O6  UNL     1       9.910  21.381   8.890  1.00  0.00    -0.642 OA
ENDBRANCH  44  46
ENDBRANCH  43  44
ENDBRANCH  42  43
ENDBRANCH  41  42
ENDBRANCH  36  41
ENDBRANCH  31  36
ENDBRANCH  29  31
ENDBRANCH   1  29
BRANCH   1  49
HETATM   49  C13 UNL     1      11.372  15.187   8.675  1.00  0.00     0.046 A 
HETATM   50  C14 UNL     1      11.104  14.716   9.931  1.00  0.00     0.080 A 
HETATM   51  S2  UNL     1      11.473  13.056   9.784  1.00  0.00    -0.064 SA
HETATM   52  C15 UNL     1      11.944  13.052   8.149  1.00  0.00     0.142 A 
HETATM   53  N12 UNL     1      11.799  14.323   7.782  1.00  0.00    -0.338 N 
ATOM     54  H12 UNL     1      12.013  14.619   6.829  1.00  0.00     0.168 HD
BRANCH  52  55
HETATM   55  N11 UNL     1      12.357  12.048   7.401  1.00  0.00    -0.380 N 
ATOM     56 2H11 UNL     1      12.029  11.082   7.428  1.00  0.00     0.158 HD
ATOM     57 1H11 UNL     1      13.067  12.037   6.668  1.00  0.00     0.158 HD
ENDBRANCH  52  55
ENDBRANCH   1  49
TORSDOF 20
ENDMDL
MODEL 3
REMARK VINA RESULT: -6.535891991      2.873      6.330
REMARK  20 active torsions:
REMARK  status: ('A' for Active; 'I' for Inactive)
REMARK    1  A    between atoms: N1_1  and  N2_4 
REMARK    2  A    between atoms: N3_6  and  N4_8 
REMARK    3  A    between atoms: N4_8  and  C1_10 
REMARK    4  A    between atoms: C1_10  and  O1_11 
REMARK    5  A    between atoms: C1_10  and  C2_13 
REMARK    6  A    between atoms: C3_14  and  N5_15 
REMARK       I    between atoms: N5_15  and  C4_17 
REMARK    7  A    between atoms: C5_24  and  C6_25 
REMARK    8  A    between atoms: C6_25  and  N8_26 
REMARK    9  A    between atoms: C6_25  and  C13_46 
REMARK   10  A    between atoms: N8_26  and  C7_28 
REMARK   11  A    between atoms: C7_28  and  N9_29 
REMARK   12  A    between atoms: C7_28  and  C8_33 
REMARK   13  A    between atoms: C8_33  and  N10_34 
REMARK   14  A    between atoms: C8_33  and  C9_38 
REMARK   15  A    between atoms: C9_38  and  S1_39 
REMARK   16  A    between atoms: S1_39  and  C10_40 
REMARK   17  A    between atoms: C10_40  and  C11_41 
REMARK   18  A    between atoms: C11_41  and  C12_43 
REMARK   19  A    between atoms: C15_49  and  N11_50 
REMARK   20  A    between atoms: C16_55  and  O7_56 
ROOT
HETATM    1  C6  UNL     1      11.258  16.763   8.563  1.00  0.00     0.184 C 
ENDROOT
BRANCH   1   2
HETATM    2  C5  UNL     1      12.487  17.462   9.040  1.00  0.00     0.088 A 
HETATM    3  N7  UNL     1      13.714  16.985   8.866  1.00  0.00    -0.298 N 
HETATM    4  N6  UNL     1      14.778  17.618   9.288  1.00  0.00    -0.284 N 
ATOM      5  H7  UNL     1      13.832  16.092   8.387  1.00  0.00     0.187 HD
HETATM    6  C3  UNL     1      14.738  18.822   9.941  1.00  0.00     0.142 A 
ATOM      7  H6  UNL     1      15.690  17.193   9.120  1.00  0.00     0.188 HD
HETATM    8  C2  UNL     1      13.528  19.390  10.166  1.00  0.00     0.097 A 
HETATM    9  C16 UNL     1      12.361  18.699   9.706  1.00  0.00     0.110 A 
BRANCH   6  10
HETATM   10  N5  UNL     1      16.011  19.353  10.267  1.00  0.00    -0.285 N 
HETATM   11  C4  UNL     1      16.957  19.670   9.242  1.00  0.00     0.289 C 
HETATM   12  O2  UNL     1      16.689  19.463   8.057  1.00  0.00    -0.629 OA
HETATM   13  O3  UNL     1      18.178  20.212   9.590  1.00  0.00    -0.629 OA
ATOM     14  H5  UNL     1      16.255  19.512  11.244  1.00  0.00     0.173 HD
ENDBRANCH   6  10
BRANCH   8  15
HETATM   15  C1  UNL     1      13.344  20.641  10.850  1.00  0.00     0.173 C 
BRANCH  15  16
HETATM   16  N4  UNL     1      12.629  21.800  10.637  1.00  0.00    -0.264 N 
ATOM     17  H4  UNL     1      13.057  22.593  10.159  1.00  0.00     0.190 HD
BRANCH  16  18
HETATM   18  N3  UNL     1      11.240  21.872  11.111  1.00  0.00    -0.227 N 
HETATM   19  N2  UNL     1      10.937  21.136  12.074  1.00  0.00    -0.235 N 
ATOM     20  H2  UNL     1      11.633  21.381  12.779  1.00  0.00     0.209 HD
ATOM     21  H3  UNL     1      10.558  22.492  10.675  1.00  0.00     0.210 HD
BRANCH  19  22
HETATM   22  N1  UNL     1      10.258  20.278  12.640  1.00  0.00    -0.330 N 
ATOM     23  H12 UNL     1       9.916  20.807  13.442  1.00  0.00     0.178 HD
ATOM     24  H11 UNL     1       9.860  19.344  12.742  1.00  0.00     0.178 HD
ENDBRANCH  19  22
ENDBRANCH  16  18
ENDBRANCH  15  16
BRANCH  15  25
HETATM   25  O1  UNL     1      14.039  20.706  11.974  1.00  0.00    -0.344 OA
ATOM     26  H1  UNL     1      14.309  21.598  12.160  1.00  0.00     0.219 HD
ENDBRANCH  15  25
ENDBRANCH   8  15
BRANCH   9  27
HETATM   27  O7  UNL     1      11.137  19.163   9.872  1.00  0.00    -0.357 OA
ATOM     28  H7  UNL     1      10.381  18.801   9.426  1.00  0.00     0.217 HD
ENDBRANCH   9  27
ENDBRANCH   1   2
BRANCH   1  29
HETATM   29  N8  UNL     1      10.962  17.032   7.210  1.00  0.00    -0.379 N 
ATOM     30  H8  UNL     1      10.904  16.255   6.553  1.00  0.00     0.156 HD
BRANCH  29  31
HETATM   31  C7  UNL     1      10.746  18.328   6.748  1.00  0.00     0.309 C 
BRANCH  31  32
HETATM   32  N9  UNL     1       9.495  18.921   7.252  1.00  0.00    -0.057 N 
ATOM     33  H93 UNL     1       8.750  18.226   7.284  1.00  0.00     0.276 HD
ATOM     34  H92 UNL     1       9.569  19.132   8.247  1.00  0.00     0.276 HD
ATOM     35  H91 UNL     1       9.202  19.744   6.726  1.00  0.00     0.276 HD
ENDBRANCH  31  32
BRANCH  31  36
HETATM   36  C8  UNL     1      10.827  18.604   5.283  1.00  0.00     0.242 C 
BRANCH  36  37
HETATM   37  N10 UNL     1      12.124  18.546   4.692  1.00  0.00    -0.071 N 
ATOM     38 3H10 UNL     1      12.053  18.163   3.749  1.00  0.00     0.274 HD
ATOM     39 2H10 UNL     1      12.449  19.491   4.486  1.00  0.00     0.274 HD
ATOM     40 1H10 UNL     1      12.841  18.043   5.214  1.00  0.00     0.274 HD
ENDBRANCH  36  37
BRANCH  36  41
HETATM   41  C9  UNL     1      10.128  19.933   4.938  1.00  0.00     0.111 C 
BRANCH  41  42
HETATM   42  S1  UNL     1      11.294  21.210   4.474  1.00  0.00    -0.159 SA
BRANCH  42  43
HETATM   43  C10 UNL     1      11.657  22.371   5.813  1.00  0.00     0.164 C 
BRANCH  43  44
HETATM   44  C11 UNL     1      12.084  21.704   7.044  1.00  0.00     0.234 C 
HETATM   45  O4  UNL     1      11.277  21.524   7.976  1.00  0.00    -0.285 OA
BRANCH  44  46
HETATM   46  C12 UNL     1      13.450  21.248   7.185  1.00  0.00     0.247 C 
HETATM   47  O5  UNL     1      14.345  21.906   7.782  1.00  0.00    -0.642 OA
HETATM   48  O6  UNL     1      13.846  20.017   6.643  1.00  0.00    -0.642 OA
ENDBRANCH  44  46
ENDBRANCH  43  44
ENDBRANCH  42  43
ENDBRANCH  41  42
ENDBRANCH  36  41
ENDBRANCH  31  36
ENDBRANCH  29  31
ENDBRANCH   1  29
BRANCH   1  49
HETATM   49  C13 UNL     1      11.447  15.256   8.787  1.00  0.00     0.046 A 
HETATM   50  C14 UNL     1      11.177  14.677   9.996  1.00  0.00     0.080 A 
HETATM   51  S2  UNL     1      11.551  13.038   9.707  1.00  0.00    -0.064 SA
HETATM   52  C15 UNL     1      12.027  13.178   8.079  1.00  0.00     0.142 A 
HETATM   53  N12 UNL     1      11.879  14.475   7.823  1.00  0.00    -0.338 N 
ATOM     54  H12 UNL     1      12.095  14.854   6.901  1.00  0.00     0.168 HD
BRANCH  52  55
HETATM   55  N11 UNL     1      12.447  12.243   7.248  1.00  0.00    -0.380 N 
ATOM     56 2H11 UNL     1      12.875  12.380   6.332  1.00  0.00     0.158 HD
ATOM     57 1H11 UNL     1      12.429  11.229   7.353  1.00  0.00     0.158 HD
ENDBRANCH  52  55
ENDBRANCH   1  49
TORSDOF 20
ENDMDL
MODEL 4
REMARK VINA RESULT: -6.452547199      2.913      6.557
REMARK  20 active torsions:
REMARK  status: ('A' for Active; 'I' for Inactive)
REMARK    1  A    between atoms: N1_1  and  N2_4 
REMARK    2  A    between atoms: N3_6  and  N4_8 
REMARK    3  A    between atoms: N4_8  and  C1_10 
REMARK    4  A    between atoms: C1_10  and  O1_11 
REMARK    5  A    between atoms: C1_10  and  C2_13 
REMARK    6  A    between atoms: C3_14  and  N5_15 
REMARK       I    between atoms: N5_15  and  C4_17 
REMARK    7  A    between atoms: C5_24  and  C6_25 
REMARK    8  A    between atoms: C6_25  and  N8_26 
REMARK    9  A    between atoms: C6_25  and  C13_46 
REMARK   10  A    between atoms: N8_26  and  C7_28 
REMARK   11  A    between atoms: C7_28  and  N9_29 
REMARK   12  A    between atoms: C7_28  and  C8_33 
REMARK   13  A    between atoms: C8_33  and  N10_34 
REMARK   14  A    between atoms: C8_33  and  C9_38 
REMARK   15  A    between atoms: C9_38  and  S1_39 
REMARK   16  A    between atoms: S1_39  and  C10_40 
REMARK   17  A    between atoms: C10_40  and  C11_41 
REMARK   18  A    between atoms: C11_41  and  C12_43 
REMARK   19  A    between atoms: C15_49  and  N11_50 
REMARK   20  A    between atoms: C16_55  and  O7_56 
ROOT
HETATM    1  C6  UNL     1      13.932  16.287   8.166  1.00  0.00     0.184 C 
ENDROOT
BRANCH   1   2
HETATM    2  C5  UNL     1      13.229  17.215   7.234  1.00  0.00     0.088 A 
HETATM    3  N7  UNL     1      13.746  17.627   6.082  1.00  0.00    -0.298 N 
HETATM    4  N6  UNL     1      13.107  18.436   5.277  1.00  0.00    -0.284 N 
ATOM      5  H7  UNL     1      14.675  17.300   5.815  1.00  0.00     0.187 HD
HETATM    6  C3  UNL     1      11.858  18.936   5.534  1.00  0.00     0.142 A 
ATOM      7  H6  UNL     1      13.565  18.712   4.408  1.00  0.00     0.188 HD
HETATM    8  C2  UNL     1      11.247  18.573   6.688  1.00  0.00     0.097 A 
HETATM    9  C16 UNL     1      11.943  17.686   7.572  1.00  0.00     0.110 A 
BRANCH   6  10
HETATM   10  N5  UNL     1      11.333  19.758   4.505  1.00  0.00    -0.285 N 
HETATM   11  C4  UNL     1      11.754  21.118   4.367  1.00  0.00     0.289 C 
HETATM   12  O2  UNL     1      12.564  21.606   5.158  1.00  0.00    -0.629 OA
HETATM   13  O3  UNL     1      11.245  21.885   3.339  1.00  0.00    -0.629 OA
ATOM     14  H5  UNL     1      10.647  19.375   3.855  1.00  0.00     0.173 HD
ENDBRANCH   6  10
BRANCH   8  15
HETATM   15  C1  UNL     1       9.944  19.034   7.085  1.00  0.00     0.173 C 
BRANCH  15  16
HETATM   16  N4  UNL     1       9.391  20.225   7.505  1.00  0.00    -0.264 N 
ATOM     17  H4  UNL     1       8.862  20.809   6.856  1.00  0.00     0.190 HD
BRANCH  16  18
HETATM   18  N3  UNL     1       9.576  20.637   8.903  1.00  0.00    -0.227 N 
HETATM   19  N2  UNL     1       9.822  19.732   9.727  1.00  0.00    -0.235 N 
ATOM     20  H2  UNL     1      10.631  19.262   9.319  1.00  0.00     0.209 HD
ATOM     21  H3  UNL     1       9.506  21.614   9.186  1.00  0.00     0.210 HD
BRANCH  19  22
HETATM   22  N1  UNL     1       9.625  19.094  10.763  1.00  0.00    -0.330 N 
ATOM     23  H12 UNL     1      10.570  19.060  11.145  1.00  0.00     0.178 HD
ATOM     24  H11 UNL     1       9.043  18.592  11.434  1.00  0.00     0.178 HD
ENDBRANCH  19  22
ENDBRANCH  16  18
ENDBRANCH  15  16
BRANCH  15  25
HETATM   25  O1  UNL     1       9.035  18.073   7.041  1.00  0.00    -0.344 OA
ATOM     26  H1  UNL     1       8.582  18.066   6.206  1.00  0.00     0.219 HD
ENDBRANCH  15  25
ENDBRANCH   8  15
BRANCH   9  27
HETATM   27  O7  UNL     1      11.439  17.271   8.718  1.00  0.00    -0.357 OA
ATOM     28  H7  UNL     1      11.890  16.663   9.292  1.00  0.00     0.217 HD
ENDBRANCH   9  27
ENDBRANCH   1   2
BRANCH   1  29
HETATM   29  N8  UNL     1      14.139  16.844   9.445  1.00  0.00    -0.379 N 
ATOM     30  H8  UNL     1      13.679  16.420  10.250  1.00  0.00     0.156 HD
BRANCH  29  31
HETATM   31  C7  UNL     1      14.953  17.959   9.641  1.00  0.00     0.309 C 
BRANCH  31  32
HETATM   32  N9  UNL     1      16.062  17.707  10.578  1.00  0.00    -0.057 N 
ATOM     33  H93 UNL     1      16.556  16.848  10.334  1.00  0.00     0.276 HD
ATOM     34  H92 UNL     1      16.816  18.379  10.438  1.00  0.00     0.276 HD
ATOM     35  H91 UNL     1      15.765  17.691  11.553  1.00  0.00     0.276 HD
ENDBRANCH  31  32
BRANCH  31  36
HETATM   36  C8  UNL     1      14.329  19.264  10.008  1.00  0.00     0.242 C 
BRANCH  36  37
HETATM   37  N10 UNL     1      13.800  20.043   8.936  1.00  0.00    -0.071 N 
ATOM     38 3H10 UNL     1      13.884  21.035   9.160  1.00  0.00     0.274 HD
ATOM     39 2H10 UNL     1      14.419  19.980   8.128  1.00  0.00     0.274 HD
ATOM     40 1H10 UNL     1      12.842  19.837   8.652  1.00  0.00     0.274 HD
ENDBRANCH  36  37
BRANCH  36  41
HETATM   41  C9  UNL     1      15.289  20.105  10.872  1.00  0.00     0.111 C 
BRANCH  41  42
HETATM   42  S1  UNL     1      15.856  21.574  10.021  1.00  0.00    -0.159 SA
BRANCH  42  43
HETATM   43  C10 UNL     1      17.480  21.376   9.250  1.00  0.00     0.164 C 
BRANCH  43  44
HETATM   44  C11 UNL     1      17.543  20.230   8.342  1.00  0.00     0.234 C 
HETATM   45  O4  UNL     1      18.114  19.179   8.691  1.00  0.00    -0.285 OA
BRANCH  44  46
HETATM   46  C12 UNL     1      16.939  20.311   7.029  1.00  0.00     0.247 C 
HETATM   47  O5  UNL     1      17.346  21.087   6.122  1.00  0.00    -0.642 OA
HETATM   48  O6  UNL     1      15.840  19.504   6.703  1.00  0.00    -0.642 OA
ENDBRANCH  44  46
ENDBRANCH  43  44
ENDBRANCH  42  43
ENDBRANCH  41  42
ENDBRANCH  36  41
ENDBRANCH  31  36
ENDBRANCH  29  31
ENDBRANCH   1  29
BRANCH   1  49
HETATM   49  C13 UNL     1      13.112  14.994   8.265  1.00  0.00     0.046 A 
HETATM   50  C14 UNL     1      12.980  14.151   7.195  1.00  0.00     0.080 A 
HETATM   51  S2  UNL     1      11.994  12.911   7.828  1.00  0.00    -0.064 SA
HETATM   52  C15 UNL     1      11.805  13.526   9.403  1.00  0.00     0.142 A 
HETATM   53  N12 UNL     1      12.506  14.657   9.380  1.00  0.00    -0.338 N 
ATOM     54  H12 UNL     1      12.571  15.249  10.209  1.00  0.00     0.168 HD
BRANCH  52  55
HETATM   55  N11 UNL     1      11.132  13.026  10.421  1.00  0.00    -0.380 N 
ATOM     56 2H11 UNL     1      10.881  12.049  10.574  1.00  0.00     0.158 HD
ATOM     57 1H11 UNL     1      10.740  13.502  11.234  1.00  0.00     0.158 HD
ENDBRANCH  52  55
ENDBRANCH   1  49
TORSDOF 20
ENDMDL
MODEL 5
REMARK VINA RESULT: -6.403038503      2.852      6.333
REMARK  20 active torsions:
REMARK  status: ('A' for Active; 'I' for Inactive)
REMARK    1  A    between atoms: N1_1  and  N2_4 
REMARK    2  A    between atoms: N3_6  and  N4_8 
REMARK    3  A    between atoms: N4_8  and  C1_10 
REMARK    4  A    between atoms: C1_10  and  O1_11 
REMARK    5  A    between atoms: C1_10  and  C2_13 
REMARK    6  A    between atoms: C3_14  and  N5_15 
REMARK       I    between atoms: N5_15  and  C4_17 
REMARK    7  A    between atoms: C5_24  and  C6_25 
REMARK    8  A    between atoms: C6_25  and  N8_26 
REMARK    9  A    between atoms: C6_25  and  C13_46 
REMARK   10  A    between atoms: N8_26  and  C7_28 
REMARK   11  A    between atoms: C7_28  and  N9_29 
REMARK   12  A    between atoms: C7_28  and  C8_33 
REMARK   13  A    between atoms: C8_33  and  N10_34 
REMARK   14  A    between atoms: C8_33  and  C9_38 
REMARK   15  A    between atoms: C9_38  and  S1_39 
REMARK   16  A    between atoms: S1_39  and  C10_40 
REMARK   17  A    between atoms: C10_40  and  C11_41 
REMARK   18  A    between atoms: C11_41  and  C12_43 
REMARK   19  A    between atoms: C15_49  and  N11_50 
REMARK   20  A    between atoms: C16_55  and  O7_56 
ROOT
HETATM    1  C6  UNL     1      11.096  17.043   8.754  1.00  0.00     0.184 C 
ENDROOT
BRANCH   1   2
HETATM    2  C5  UNL     1      12.329  17.822   9.070  1.00  0.00     0.088 A 
HETATM    3  N7  UNL     1      13.530  17.516   8.594  1.00  0.00    -0.298 N 
HETATM    4  N6  UNL     1      14.597  18.217   8.880  1.00  0.00    -0.284 N 
ATOM      5  H7  UNL     1      13.625  16.704   7.983  1.00  0.00     0.187 HD
HETATM    6  C3  UNL     1      14.586  19.323   9.688  1.00  0.00     0.142 A 
ATOM      7  H6  UNL     1      15.487  17.924   8.479  1.00  0.00     0.188 HD
HETATM    8  C2  UNL     1      13.404  19.715  10.224  1.00  0.00     0.097 A 
HETATM    9  C16 UNL     1      12.234  18.949   9.912  1.00  0.00     0.110 A 
BRANCH   6  10
HETATM   10  N5  UNL     1      15.845  19.959   9.827  1.00  0.00    -0.285 N 
HETATM   11  C4  UNL     1      17.008  19.211  10.194  1.00  0.00     0.289 C 
HETATM   12  O2  UNL     1      16.928  18.002  10.421  1.00  0.00    -0.629 OA
HETATM   13  O3  UNL     1      18.225  19.854  10.294  1.00  0.00    -0.629 OA
ATOM     14  H5  UNL     1      15.923  20.962   9.662  1.00  0.00     0.173 HD
ENDBRANCH   6  10
BRANCH   8  15
HETATM   15  C1  UNL     1      13.255  20.848  11.096  1.00  0.00     0.173 C 
BRANCH  15  16
HETATM   16  N4  UNL     1      12.547  21.140  12.242  1.00  0.00    -0.264 N 
ATOM     17  H4  UNL     1      12.965  20.998  13.161  1.00  0.00     0.190 HD
BRANCH  16  18
HETATM   18  N3  UNL     1      11.179  21.661  12.114  1.00  0.00    -0.227 N 
HETATM   19  N2  UNL     1      10.896  22.241  11.045  1.00  0.00    -0.235 N 
ATOM     20  H2  UNL     1      11.149  21.553  10.336  1.00  0.00     0.209 HD
ATOM     21  H3  UNL     1      10.494  21.554  12.863  1.00  0.00     0.210 HD
BRANCH  19  22
HETATM   22  N1  UNL     1      10.478  23.189  10.377  1.00  0.00    -0.330 N 
ATOM     23  H12 UNL     1      11.344  23.503   9.937  1.00  0.00     0.178 HD
ATOM     24  H11 UNL     1       9.754  23.817  10.030  1.00  0.00     0.178 HD
ENDBRANCH  19  22
ENDBRANCH  16  18
ENDBRANCH  15  16
BRANCH  15  25
HETATM   25  O1  UNL     1      13.981  21.883  10.704  1.00  0.00    -0.344 OA
ATOM     26  H1  UNL     1      13.518  22.701  10.846  1.00  0.00     0.219 HD
ENDBRANCH  15  25
ENDBRANCH   8  15
BRANCH   9  27
HETATM   27  O7  UNL     1      11.036  19.244  10.379  1.00  0.00    -0.357 OA
ATOM     28  H7  UNL     1      10.333  18.608  10.441  1.00  0.00     0.217 HD
ENDBRANCH   9  27
ENDBRANCH   1   2
BRANCH   1  29
HETATM   29  N8  UNL     1      10.608  17.291   7.454  1.00  0.00    -0.379 N 
ATOM     30  H8  UNL     1      10.983  16.753   6.674  1.00  0.00     0.156 HD
BRANCH  29  31
HETATM   31  C7  UNL     1       9.627  18.249   7.206  1.00  0.00     0.309 C 
BRANCH  31  32
HETATM   32  N9  UNL     1       8.806  17.942   6.022  1.00  0.00    -0.057 N 
ATOM     33  H93 UNL     1       7.828  17.816   6.280  1.00  0.00     0.276 HD
ATOM     34  H92 UNL     1       8.716  18.761   5.421  1.00  0.00     0.276 HD
ATOM     35  H91 UNL     1       9.149  17.140   5.495  1.00  0.00     0.276 HD
ENDBRANCH  31  32
BRANCH  31  36
HETATM   36  C8  UNL     1      10.013  19.689   7.137  1.00  0.00     0.242 C 
BRANCH  36  37
HETATM   37  N10 UNL     1       9.495  20.540   8.158  1.00  0.00    -0.071 N 
ATOM     38 3H10 UNL     1       8.525  20.292   8.350  1.00  0.00     0.274 HD
ATOM     39 2H10 UNL     1       9.929  20.307   9.051  1.00  0.00     0.274 HD
ATOM     40 1H10 UNL     1       9.566  21.544   7.994  1.00  0.00     0.274 HD
ENDBRANCH  36  37
BRANCH  36  41
HETATM   41  C9  UNL     1       9.717  20.268   5.741  1.00  0.00     0.111 C 
BRANCH  41  42
HETATM   42  S1  UNL     1      11.195  20.422   4.743  1.00  0.00    -0.159 SA
BRANCH  42  43
HETATM   43  C10 UNL     1      12.007  18.839   4.414  1.00  0.00     0.164 C 
BRANCH  43  44
HETATM   44  C11 UNL     1      13.026  18.505   5.410  1.00  0.00     0.234 C 
HETATM   45  O4  UNL     1      13.524  19.394   6.127  1.00  0.00    -0.285 OA
BRANCH  44  46
HETATM   46  C12 UNL     1      13.462  17.134   5.570  1.00  0.00     0.247 C 
HETATM   47  O5  UNL     1      12.715  16.138   5.364  1.00  0.00    -0.642 OA
HETATM   48  O6  UNL     1      14.773  16.849   5.974  1.00  0.00    -0.642 OA
ENDBRANCH  44  46
ENDBRANCH  43  44
ENDBRANCH  42  43
ENDBRANCH  41  42
ENDBRANCH  36  41
ENDBRANCH  31  36
ENDBRANCH  29  31
ENDBRANCH   1  29
BRANCH   1  49
HETATM   49  C13 UNL     1      11.410  15.553   8.940  1.00  0.00     0.046 A 
HETATM   50  C14 UNL     1      11.255  14.938  10.152  1.00  0.00     0.080 A 
HETATM   51  S2  UNL     1      11.735  13.336   9.813  1.00  0.00    -0.064 SA
HETATM   52  C15 UNL     1      12.103  13.534   8.164  1.00  0.00     0.142 A 
HETATM   53  N12 UNL     1      11.843  14.820   7.940  1.00  0.00    -0.338 N 
ATOM     54  H12 UNL     1      11.976  15.226   7.014  1.00  0.00     0.168 HD
BRANCH  52  55
HETATM   55  N11 UNL     1      12.543  12.645   7.293  1.00  0.00    -0.380 N 
ATOM     56 2H11 UNL     1      12.020  11.869   6.887  1.00  0.00     0.158 HD
ATOM     57 1H11 UNL     1      13.464  12.562   6.865  1.00  0.00     0.158 HD
ENDBRANCH  52  55
ENDBRANCH   1  49
TORSDOF 20
ENDMDL
