MODEL 1
REMARK VINA RESULT: -9.259948507      0.000      0.000
REMARK  17 active torsions:
REMARK  status: ('A' for Active; 'I' for Inactive)
REMARK    1  A    between atoms: C7_8  and  C9_10 
REMARK    2  A    between atoms: C10_11  and  C11_12 
REMARK    3  A    between atoms: C11_12  and  C12_13 
REMARK       I    between atoms: C12_13  and  N2_15 
REMARK    4  A    between atoms: N2_15  and  C13_17 
REMARK    5  A    between atoms: C13_17  and  C14_18 
REMARK       I    between atoms: C14_18  and  N3_20 
REMARK    6  A    between atoms: C21_32  and  C22_33 
REMARK    7  A    between atoms: C22_33  and  C23_34 
REMARK    8  A    between atoms: C23_34  and  C24_35 
REMARK    9  A    between atoms: C24_35  and  N6_36 
REMARK   10  A    between atoms: N6_36  and  C25_38 
REMARK   11  A    between atoms: C25_38  and  O3_39 
REMARK   12  A    between atoms: C25_38  and  C26_41 
REMARK   13  A    between atoms: C26_41  and  C27_42 
REMARK   14  A    between atoms: C27_42  and  C28_43 
REMARK   15  A    between atoms: C28_43  and  N7_44 
REMARK   16  A    between atoms: N7_44  and  C30_46 
REMARK   17  A    between atoms: C30_46  and  C31_47 
ROOT
HETATM    1  C1  UNL     1     -11.054  15.324  26.553  1.00  0.00     0.016 C 
HETATM    2  C2  UNL     1     -10.965  16.554  25.702  1.00  0.00     0.041 A 
HETATM    3  C3  UNL     1     -10.991  16.369  24.423  1.00  0.00     0.005 A 
HETATM    4  C4  UNL     1     -10.498  16.323  23.857  1.00  0.00     0.200 A 
HETATM    5  N1  UNL     1      -9.323  16.370  23.678  1.00  0.00    -0.038 N 
HETATM    6  C5  UNL     1      -8.494  15.177  23.531  1.00  0.00     0.245 C 
HETATM    7  C6  UNL     1      -8.254  15.232  22.026  1.00  0.00     0.043 C 
HETATM    8  C7  UNL     1      -8.324  16.735  21.714  1.00  0.00    -0.000 C 
HETATM    9  C8  UNL     1      -9.534  17.031  20.872  1.00  0.00     0.021 C 
HETATM   10  C20 UNL     1      -8.487  17.357  23.128  1.00  0.00     0.257 C 
HETATM   11  C21 UNL     1      -9.208  16.618  25.369  1.00  0.00     0.225 A 
ENDROOT
BRANCH  11  12
HETATM   12  C22 UNL     1      -8.809  17.897  25.623  1.00  0.00     0.005 C 
BRANCH  12  13
HETATM   13  C23 UNL     1      -8.276  18.375  26.928  1.00  0.00    -0.009 C 
BRANCH  13  14
HETATM   14  C24 UNL     1      -8.289  17.656  28.178  1.00  0.00     0.148 C 
BRANCH  14  15
HETATM   15  N6  UNL     1      -9.266  18.111  29.191  1.00  0.00    -0.368 N 
ATOM     16  H6  UNL     1      -8.922  18.720  29.933  1.00  0.00     0.161 HD
BRANCH  15  17
HETATM   17  C25 UNL     1     -10.610  17.776  29.214  1.00  0.00     0.135 C 
BRANCH  17  18
HETATM   18  O3  UNL     1     -11.367  18.550  28.486  1.00  0.00    -0.346 OA
ATOM     19  H3  UNL     1     -11.263  18.428  27.549  1.00  0.00     0.219 HD
ENDBRANCH  17  18
BRANCH  17  20
HETATM   20  C26 UNL     1     -11.295  16.737  29.905  1.00  0.00     0.053 C 
BRANCH  20  21
HETATM   21  C27 UNL     1     -10.969  15.706  30.594  1.00  0.00    -0.003 C 
BRANCH  21  22
HETATM   22  C28 UNL     1     -11.208  15.291  31.976  1.00  0.00     0.144 C 
BRANCH  22  23
HETATM   23  N7  UNL     1     -10.198  15.837  32.852  1.00  0.00    -0.405 N 
HETATM   24  C29 UNL     1     -10.678  16.318  34.104  1.00  0.00     0.144 C 
BRANCH  23  25
HETATM   25  C30 UNL     1      -8.944  15.176  32.854  1.00  0.00     0.216 C 
BRANCH  25  26
HETATM   26  C31 UNL     1      -7.770  16.022  32.591  1.00  0.00     0.248 C 
HETATM   27  N8  UNL     1      -7.993  17.241  31.888  1.00  0.00    -0.061 NA
HETATM   28  O4  UNL     1      -6.599  15.757  32.933  1.00  0.00    -0.275 OA
ENDBRANCH  25  26
ENDBRANCH  23  25
ENDBRANCH  22  23
ENDBRANCH  21  22
ENDBRANCH  20  21
ENDBRANCH  17  20
ENDBRANCH  15  17
ENDBRANCH  14  15
ENDBRANCH  13  14
ENDBRANCH  12  13
ENDBRANCH  11  12
BRANCH   8  29
HETATM   29  C9  UNL     1      -7.068  17.117  21.073  1.00  0.00    -0.019 C 
HETATM   30  C10 UNL     1      -6.370  16.293  20.280  1.00  0.00    -0.021 C 
BRANCH  30  31
HETATM   31  C11 UNL     1      -5.087  16.665  19.623  1.00  0.00     0.129 C 
BRANCH  31  32
HETATM   32  C12 UNL     1      -4.223  17.278  20.684  1.00  0.00     0.221 C 
HETATM   33  O1  UNL     1      -4.099  18.538  20.747  1.00  0.00    -0.273 OA
HETATM   34  N2  UNL     1      -3.531  16.481  21.633  1.00  0.00    -0.352 N 
ATOM     35  H2  UNL     1      -3.617  15.465  21.614  1.00  0.00     0.162 HD
BRANCH  34  36
HETATM   36  C13 UNL     1      -2.710  17.117  22.618  1.00  0.00     0.227 C 
BRANCH  36  37
HETATM   37  C14 UNL     1      -3.124  16.888  24.010  1.00  0.00     0.256 C 
HETATM   38  O2  UNL     1      -2.501  15.999  24.668  1.00  0.00    -0.270 OA
HETATM   39  N3  UNL     1      -4.168  17.581  24.690  1.00  0.00    -0.258 N 
HETATM   40  C15 UNL     1      -4.357  17.152  26.028  1.00  0.00     0.163 C 
HETATM   41  N5  UNL     1      -4.763  18.549  23.829  1.00  0.00    -0.284 N 
HETATM   42  C16 UNL     1      -4.422  18.271  27.113  1.00  0.00     0.102 C 
HETATM   43  C17 UNL     1      -4.848  19.429  26.459  1.00  0.00    -0.174 C 
HETATM   44  C18 UNL     1      -5.260  20.482  25.603  1.00  0.00     0.157 C 
HETATM   45  C19 UNL     1      -5.322  19.817  24.208  1.00  0.00     0.100 C 
HETATM   46  N4  UNL     1      -5.939  20.459  23.295  1.00  0.00    -0.387 N 
ATOM     47  H42 UNL     1      -6.336  21.359  23.565  1.00  0.00     0.157 HD
ATOM     48  H41 UNL     1      -5.980  20.020  22.375  1.00  0.00     0.157 HD
ATOM     49  H5  UNL     1      -4.796  18.316  22.836  1.00  0.00     0.188 HD
ENDBRANCH  36  37
ENDBRANCH  34  36
ENDBRANCH  31  32
ENDBRANCH  30  31
ENDBRANCH   8  29
TORSDOF 17
ENDMDL
MODEL 2
REMARK VINA RESULT: -9.174896359      1.038      1.472
REMARK  17 active torsions:
REMARK  status: ('A' for Active; 'I' for Inactive)
REMARK    1  A    between atoms: C7_8  and  C9_10 
REMARK    2  A    between atoms: C10_11  and  C11_12 
REMARK    3  A    between atoms: C11_12  and  C12_13 
REMARK       I    between atoms: C12_13  and  N2_15 
REMARK    4  A    between atoms: N2_15  and  C13_17 
REMARK    5  A    between atoms: C13_17  and  C14_18 
REMARK       I    between atoms: C14_18  and  N3_20 
REMARK    6  A    between atoms: C21_32  and  C22_33 
REMARK    7  A    between atoms: C22_33  and  C23_34 
REMARK    8  A    between atoms: C23_34  and  C24_35 
REMARK    9  A    between atoms: C24_35  and  N6_36 
REMARK   10  A    between atoms: N6_36  and  C25_38 
REMARK   11  A    between atoms: C25_38  and  O3_39 
REMARK   12  A    between atoms: C25_38  and  C26_41 
REMARK   13  A    between atoms: C26_41  and  C27_42 
REMARK   14  A    between atoms: C27_42  and  C28_43 
REMARK   15  A    between atoms: C28_43  and  N7_44 
REMARK   16  A    between atoms: N7_44  and  C30_46 
REMARK   17  A    between atoms: C30_46  and  C31_47 
ROOT
HETATM    1  C1  UNL     1     -11.064  15.410  26.496  1.00  0.00     0.016 C 
HETATM    2  C2  UNL     1     -10.963  16.622  25.620  1.00  0.00     0.041 A 
HETATM    3  C3  UNL     1     -10.980  16.411  24.345  1.00  0.00     0.005 A 
HETATM    4  C4  UNL     1     -10.483  16.351  23.785  1.00  0.00     0.200 A 
HETATM    5  N1  UNL     1      -9.306  16.390  23.614  1.00  0.00    -0.038 N 
HETATM    6  C5  UNL     1      -8.481  15.190  23.498  1.00  0.00     0.245 C 
HETATM    7  C6  UNL     1      -8.228  15.213  21.995  1.00  0.00     0.043 C 
HETATM    8  C7  UNL     1      -8.289  16.710  21.652  1.00  0.00    -0.000 C 
HETATM    9  C8  UNL     1      -9.491  16.993  20.794  1.00  0.00     0.021 C 
HETATM   10  C20 UNL     1      -8.461  17.362  23.050  1.00  0.00     0.257 C 
HETATM   11  C21 UNL     1      -9.204  16.672  25.300  1.00  0.00     0.225 A 
ENDROOT
BRANCH  11  12
HETATM   12  C22 UNL     1      -8.801  17.955  25.531  1.00  0.00     0.005 C 
BRANCH  12  13
HETATM   13  C23 UNL     1      -8.410  18.493  26.862  1.00  0.00    -0.009 C 
BRANCH  13  14
HETATM   14  C24 UNL     1      -8.315  17.753  28.096  1.00  0.00     0.148 C 
BRANCH  14  15
HETATM   15  N6  UNL     1      -9.289  18.104  29.153  1.00  0.00    -0.368 N 
ATOM     16  H6  UNL     1      -8.941  18.632  29.954  1.00  0.00     0.161 HD
BRANCH  15  17
HETATM   17  C25 UNL     1     -10.634  17.774  29.143  1.00  0.00     0.135 C 
BRANCH  17  18
HETATM   18  O3  UNL     1     -11.381  18.593  28.455  1.00  0.00    -0.346 OA
ATOM     19  H3  UNL     1     -11.316  19.502  28.726  1.00  0.00     0.219 HD
ENDBRANCH  17  18
BRANCH  17  20
HETATM   20  C26 UNL     1     -11.331  16.700  29.766  1.00  0.00     0.053 C 
BRANCH  20  21
HETATM   21  C27 UNL     1     -11.132  15.916  30.761  1.00  0.00    -0.003 C 
BRANCH  21  22
HETATM   22  C28 UNL     1     -10.040  15.023  31.148  1.00  0.00     0.144 C 
BRANCH  22  23
HETATM   23  N7  UNL     1      -9.752  15.154  32.557  1.00  0.00    -0.405 N 
HETATM   24  C29 UNL     1      -8.376  15.038  32.907  1.00  0.00     0.144 C 
BRANCH  23  25
HETATM   25  C30 UNL     1     -10.520  16.109  33.268  1.00  0.00     0.216 C 
BRANCH  25  26
HETATM   26  C31 UNL     1     -11.364  15.580  34.351  1.00  0.00     0.248 C 
HETATM   27  N8  UNL     1     -11.740  14.209  34.269  1.00  0.00    -0.061 NA
HETATM   28  O4  UNL     1     -11.775  16.236  35.331  1.00  0.00    -0.275 OA
ENDBRANCH  25  26
ENDBRANCH  23  25
ENDBRANCH  22  23
ENDBRANCH  21  22
ENDBRANCH  20  21
ENDBRANCH  17  20
ENDBRANCH  15  17
ENDBRANCH  14  15
ENDBRANCH  13  14
ENDBRANCH  12  13
ENDBRANCH  11  12
BRANCH   8  29
HETATM   29  C9  UNL     1      -7.026  17.073  21.012  1.00  0.00    -0.019 C 
HETATM   30  C10 UNL     1      -6.352  16.248  20.201  1.00  0.00    -0.021 C 
BRANCH  30  31
HETATM   31  C11 UNL     1      -5.063  16.602  19.546  1.00  0.00     0.129 C 
BRANCH  31  32
HETATM   32  C12 UNL     1      -4.202  17.227  20.602  1.00  0.00     0.221 C 
HETATM   33  O1  UNL     1      -4.062  18.486  20.639  1.00  0.00    -0.273 OA
HETATM   34  N2  UNL     1      -3.530  16.443  21.576  1.00  0.00    -0.352 N 
ATOM     35  H2  UNL     1      -3.630  15.427  21.578  1.00  0.00     0.162 HD
BRANCH  34  36
HETATM   36  C13 UNL     1      -2.711  17.090  22.556  1.00  0.00     0.227 C 
BRANCH  36  37
HETATM   37  C14 UNL     1      -3.141  16.893  23.948  1.00  0.00     0.256 C 
HETATM   38  O2  UNL     1      -2.525  16.020  24.633  1.00  0.00    -0.270 OA
HETATM   39  N3  UNL     1      -4.191  17.602  24.600  1.00  0.00    -0.258 N 
HETATM   40  C15 UNL     1      -4.395  17.204  25.945  1.00  0.00     0.163 C 
HETATM   41  N5  UNL     1      -4.777  18.550  23.710  1.00  0.00    -0.284 N 
HETATM   42  C16 UNL     1      -4.472  18.348  27.003  1.00  0.00     0.102 C 
HETATM   43  C17 UNL     1      -4.890  19.491  26.318  1.00  0.00    -0.174 C 
HETATM   44  C18 UNL     1      -5.293  20.524  25.432  1.00  0.00     0.157 C 
HETATM   45  C19 UNL     1      -5.340  19.826  24.053  1.00  0.00     0.100 C 
HETATM   46  N4  UNL     1      -5.947  20.446  23.119  1.00  0.00    -0.387 N 
ATOM     47  H42 UNL     1      -6.347  21.352  23.363  1.00  0.00     0.157 HD
ATOM     48  H41 UNL     1      -5.978  19.985  22.209  1.00  0.00     0.157 HD
ATOM     49  H5  UNL     1      -4.799  18.293  22.723  1.00  0.00     0.188 HD
ENDBRANCH  36  37
ENDBRANCH  34  36
ENDBRANCH  31  32
ENDBRANCH  30  31
ENDBRANCH   8  29
TORSDOF 17
ENDMDL
MODEL 3
REMARK VINA RESULT: -8.883207643      1.579      2.403
REMARK  17 active torsions:
REMARK  status: ('A' for Active; 'I' for Inactive)
REMARK    1  A    between atoms: C7_8  and  C9_10 
REMARK    2  A    between atoms: C10_11  and  C11_12 
REMARK    3  A    between atoms: C11_12  and  C12_13 
REMARK       I    between atoms: C12_13  and  N2_15 
REMARK    4  A    between atoms: N2_15  and  C13_17 
REMARK    5  A    between atoms: C13_17  and  C14_18 
REMARK       I    between atoms: C14_18  and  N3_20 
REMARK    6  A    between atoms: C21_32  and  C22_33 
REMARK    7  A    between atoms: C22_33  and  C23_34 
REMARK    8  A    between atoms: C23_34  and  C24_35 
REMARK    9  A    between atoms: C24_35  and  N6_36 
REMARK   10  A    between atoms: N6_36  and  C25_38 
REMARK   11  A    between atoms: C25_38  and  O3_39 
REMARK   12  A    between atoms: C25_38  and  C26_41 
REMARK   13  A    between atoms: C26_41  and  C27_42 
REMARK   14  A    between atoms: C27_42  and  C28_43 
REMARK   15  A    between atoms: C28_43  and  N7_44 
REMARK   16  A    between atoms: N7_44  and  C30_46 
REMARK   17  A    between atoms: C30_46  and  C31_47 
ROOT
HETATM    1  C1  UNL     1     -11.004  15.323  26.502  1.00  0.00     0.016 C 
HETATM    2  C2  UNL     1     -10.896  16.560  25.662  1.00  0.00     0.041 A 
HETATM    3  C3  UNL     1     -10.919  16.386  24.382  1.00  0.00     0.005 A 
HETATM    4  C4  UNL     1     -10.425  16.340  23.818  1.00  0.00     0.200 A 
HETATM    5  N1  UNL     1      -9.248  16.373  23.643  1.00  0.00    -0.038 N 
HETATM    6  C5  UNL     1      -8.434  15.171  23.489  1.00  0.00     0.245 C 
HETATM    7  C6  UNL     1      -8.187  15.237  21.986  1.00  0.00     0.043 C 
HETATM    8  C7  UNL     1      -8.236  16.744  21.688  1.00  0.00    -0.000 C 
HETATM    9  C8  UNL     1      -9.439  17.062  20.843  1.00  0.00     0.021 C 
HETATM   10  C20 UNL     1      -8.397  17.355  23.106  1.00  0.00     0.257 C 
HETATM   11  C21 UNL     1      -9.137  16.604  25.337  1.00  0.00     0.225 A 
ENDROOT
BRANCH  11  12
HETATM   12  C22 UNL     1      -8.723  17.876  25.605  1.00  0.00     0.005 C 
BRANCH  12  13
HETATM   13  C23 UNL     1      -8.251  18.351  26.933  1.00  0.00    -0.009 C 
BRANCH  13  14
HETATM   14  C24 UNL     1      -8.317  17.629  28.179  1.00  0.00     0.148 C 
BRANCH  14  15
HETATM   15  N6  UNL     1      -9.303  18.111  29.171  1.00  0.00    -0.368 N 
ATOM     16  H6  UNL     1      -8.962  18.730  29.907  1.00  0.00     0.161 HD
BRANCH  15  17
HETATM   17  C25 UNL     1     -10.650  17.789  29.181  1.00  0.00     0.135 C 
BRANCH  17  18
HETATM   18  O3  UNL     1     -11.391  18.566  28.441  1.00  0.00    -0.346 OA
ATOM     19  H3  UNL     1     -11.144  18.583  27.523  1.00  0.00     0.219 HD
ENDBRANCH  17  18
BRANCH  17  20
HETATM   20  C26 UNL     1     -11.353  16.762  29.872  1.00  0.00     0.053 C 
BRANCH  20  21
HETATM   21  C27 UNL     1     -11.045  15.751  30.598  1.00  0.00    -0.003 C 
BRANCH  21  22
HETATM   22  C28 UNL     1     -11.009  14.308  30.367  1.00  0.00     0.144 C 
BRANCH  22  23
HETATM   23  N7  UNL     1     -11.901  13.625  31.274  1.00  0.00    -0.405 N 
HETATM   24  C29 UNL     1     -12.224  14.344  32.461  1.00  0.00     0.144 C 
BRANCH  23  25
HETATM   25  C30 UNL     1     -12.938  12.863  30.680  1.00  0.00     0.216 C 
BRANCH  25  26
HETATM   26  C31 UNL     1     -14.279  13.467  30.709  1.00  0.00     0.248 C 
HETATM   27  N8  UNL     1     -15.284  12.782  31.451  1.00  0.00    -0.061 NA
HETATM   28  O4  UNL     1     -14.604  14.528  30.136  1.00  0.00    -0.275 OA
ENDBRANCH  25  26
ENDBRANCH  23  25
ENDBRANCH  22  23
ENDBRANCH  21  22
ENDBRANCH  20  21
ENDBRANCH  17  20
ENDBRANCH  15  17
ENDBRANCH  14  15
ENDBRANCH  13  14
ENDBRANCH  12  13
ENDBRANCH  11  12
BRANCH   8  29
HETATM   29  C9  UNL     1      -6.973  17.115  21.054  1.00  0.00    -0.019 C 
HETATM   30  C10 UNL     1      -6.331  16.328  20.182  1.00  0.00    -0.021 C 
BRANCH  30  31
HETATM   31  C11 UNL     1      -5.042  16.690  19.532  1.00  0.00     0.129 C 
BRANCH  31  32
HETATM   32  C12 UNL     1      -4.176  17.286  20.599  1.00  0.00     0.221 C 
HETATM   33  O1  UNL     1      -4.002  18.541  20.644  1.00  0.00    -0.273 OA
HETATM   34  N2  UNL     1      -3.535  16.480  21.577  1.00  0.00    -0.352 N 
ATOM     35  H2  UNL     1      -3.662  15.468  21.573  1.00  0.00     0.162 HD
BRANCH  34  36
HETATM   36  C13 UNL     1      -2.710  17.101  22.568  1.00  0.00     0.227 C 
BRANCH  36  37
HETATM   37  C14 UNL     1      -3.152  16.901  23.956  1.00  0.00     0.256 C 
HETATM   38  O2  UNL     1      -2.554  16.014  24.639  1.00  0.00    -0.270 OA
HETATM   39  N3  UNL     1      -4.198  17.620  24.604  1.00  0.00    -0.258 N 
HETATM   40  C15 UNL     1      -4.418  17.215  25.945  1.00  0.00     0.163 C 
HETATM   41  N5  UNL     1      -4.764  18.581  23.716  1.00  0.00    -0.284 N 
HETATM   42  C16 UNL     1      -4.487  18.353  27.010  1.00  0.00     0.102 C 
HETATM   43  C17 UNL     1      -4.884  19.506  26.329  1.00  0.00    -0.174 C 
HETATM   44  C18 UNL     1      -5.266  20.551  25.448  1.00  0.00     0.157 C 
HETATM   45  C19 UNL     1      -5.312  19.863  24.063  1.00  0.00     0.100 C 
HETATM   46  N4  UNL     1      -5.902  20.498  23.129  1.00  0.00    -0.387 N 
ATOM     47  H42 UNL     1      -6.292  21.408  23.376  1.00  0.00     0.157 HD
ATOM     48  H41 UNL     1      -5.933  20.044  22.216  1.00  0.00     0.157 HD
ATOM     49  H5  UNL     1      -4.782  18.332  22.727  1.00  0.00     0.188 HD
ENDBRANCH  36  37
ENDBRANCH  34  36
ENDBRANCH  31  32
ENDBRANCH  30  31
ENDBRANCH   8  29
TORSDOF 17
ENDMDL
MODEL 4
REMARK VINA RESULT: -8.366217549      1.790      8.189
REMARK  17 active torsions:
REMARK  status: ('A' for Active; 'I' for Inactive)
REMARK    1  A    between atoms: C7_8  and  C9_10 
REMARK    2  A    between atoms: C10_11  and  C11_12 
REMARK    3  A    between atoms: C11_12  and  C12_13 
REMARK       I    between atoms: C12_13  and  N2_15 
REMARK    4  A    between atoms: N2_15  and  C13_17 
REMARK    5  A    between atoms: C13_17  and  C14_18 
REMARK       I    between atoms: C14_18  and  N3_20 
REMARK    6  A    between atoms: C21_32  and  C22_33 
REMARK    7  A    between atoms: C22_33  and  C23_34 
REMARK    8  A    between atoms: C23_34  and  C24_35 
REMARK    9  A    between atoms: C24_35  and  N6_36 
REMARK   10  A    between atoms: N6_36  and  C25_38 
REMARK   11  A    between atoms: C25_38  and  O3_39 
REMARK   12  A    between atoms: C25_38  and  C26_41 
REMARK   13  A    between atoms: C26_41  and  C27_42 
REMARK   14  A    between atoms: C27_42  and  C28_43 
REMARK   15  A    between atoms: C28_43  and  N7_44 
REMARK   16  A    between atoms: N7_44  and  C30_46 
REMARK   17  A    between atoms: C30_46  and  C31_47 
ROOT
HETATM    1  C1  UNL     1      -5.530  18.214  19.147  1.00  0.00     0.016 C 
HETATM    2  C2  UNL     1      -5.536  17.436  20.429  1.00  0.00     0.041 A 
HETATM    3  C3  UNL     1      -6.356  16.439  20.490  1.00  0.00     0.005 A 
HETATM    4  C4  UNL     1      -7.040  16.298  20.767  1.00  0.00     0.200 A 
HETATM    5  N1  UNL     1      -7.912  16.861  21.350  1.00  0.00    -0.038 N 
HETATM    6  C5  UNL     1      -9.092  17.403  20.682  1.00  0.00     0.245 C 
HETATM    7  C6  UNL     1     -10.116  16.358  21.113  1.00  0.00     0.043 C 
HETATM    8  C7  UNL     1      -9.574  15.872  22.467  1.00  0.00    -0.000 C 
HETATM    9  C8  UNL     1      -9.127  14.440  22.359  1.00  0.00     0.021 C 
HETATM   10  C20 UNL     1      -8.350  16.803  22.684  1.00  0.00     0.257 C 
HETATM   11  C21 UNL     1      -6.880  18.226  21.306  1.00  0.00     0.225 A 
ENDROOT
BRANCH  11  12
HETATM   12  C22 UNL     1      -6.419  18.499  22.562  1.00  0.00     0.005 C 
BRANCH  12  13
HETATM   13  C23 UNL     1      -6.188  19.866  23.101  1.00  0.00    -0.009 C 
BRANCH  13  14
HETATM   14  C24 UNL     1      -5.472  20.207  24.305  1.00  0.00     0.148 C 
BRANCH  14  15
HETATM   15  N6  UNL     1      -6.224  20.095  25.575  1.00  0.00    -0.368 N 
ATOM     16  H6  UNL     1      -6.969  20.772  25.739  1.00  0.00     0.161 HD
BRANCH  15  17
HETATM   17  C25 UNL     1      -5.996  19.146  26.558  1.00  0.00     0.135 C 
BRANCH  17  18
HETATM   18  O3  UNL     1      -7.037  18.883  27.299  1.00  0.00    -0.346 OA
ATOM     19  H3  UNL     1      -6.968  19.194  28.194  1.00  0.00     0.219 HD
ENDBRANCH  17  18
BRANCH  17  20
HETATM   20  C26 UNL     1      -4.816  18.425  26.895  1.00  0.00     0.053 C 
BRANCH  20  21
HETATM   21  C27 UNL     1      -4.038  17.590  26.311  1.00  0.00    -0.003 C 
BRANCH  21  22
HETATM   22  C28 UNL     1      -4.145  16.781  25.096  1.00  0.00     0.144 C 
BRANCH  22  23
HETATM   23  N7  UNL     1      -2.894  16.782  24.375  1.00  0.00    -0.405 N 
HETATM   24  C29 UNL     1      -1.992  15.736  24.726  1.00  0.00     0.144 C 
BRANCH  23  25
HETATM   25  C30 UNL     1      -2.958  17.145  23.006  1.00  0.00     0.216 C 
BRANCH  25  26
HETATM   26  C31 UNL     1      -2.597  18.536  22.691  1.00  0.00     0.248 C 
HETATM   27  N8  UNL     1      -1.998  19.302  23.733  1.00  0.00    -0.061 NA
HETATM   28  O4  UNL     1      -2.773  19.095  21.589  1.00  0.00    -0.275 OA
ENDBRANCH  25  26
ENDBRANCH  23  25
ENDBRANCH  22  23
ENDBRANCH  21  22
ENDBRANCH  20  21
ENDBRANCH  17  20
ENDBRANCH  15  17
ENDBRANCH  14  15
ENDBRANCH  13  14
ENDBRANCH  12  13
ENDBRANCH  11  12
BRANCH   8  29
HETATM   29  C9  UNL     1     -10.621  16.075  23.465  1.00  0.00    -0.019 C 
HETATM   30  C10 UNL     1     -10.379  16.119  24.782  1.00  0.00    -0.021 C 
BRANCH  30  31
HETATM   31  C11 UNL     1     -11.435  16.322  25.811  1.00  0.00     0.129 C 
BRANCH  31  32
HETATM   32  C12 UNL     1     -10.834  17.184  26.879  1.00  0.00     0.221 C 
HETATM   33  O1  UNL     1      -9.866  17.953  26.598  1.00  0.00    -0.273 OA
HETATM   34  N2  UNL     1     -11.321  17.169  28.213  1.00  0.00    -0.352 N 
ATOM     35  H2  UNL     1     -12.105  16.568  28.468  1.00  0.00     0.162 HD
BRANCH  34  36
HETATM   36  C13 UNL     1     -10.703  18.006  29.196  1.00  0.00     0.227 C 
BRANCH  36  37
HETATM   37  C14 UNL     1      -9.641  17.357  29.980  1.00  0.00     0.256 C 
HETATM   38  O2  UNL     1      -8.441  17.673  29.715  1.00  0.00    -0.270 OA
HETATM   39  N3  UNL     1      -9.843  16.402  31.019  1.00  0.00    -0.258 N 
HETATM   40  C15 UNL     1      -8.639  15.935  31.602  1.00  0.00     0.163 C 
HETATM   41  N5  UNL     1     -11.236  16.159  31.205  1.00  0.00    -0.284 N 
HETATM   42  C16 UNL     1      -8.570  15.960  33.161  1.00  0.00     0.102 C 
HETATM   43  C17 UNL     1      -9.889  15.892  33.615  1.00  0.00    -0.174 C 
HETATM   44  C18 UNL     1     -11.286  15.843  33.856  1.00  0.00     0.157 C 
HETATM   45  C19 UNL     1     -11.901  15.839  32.437  1.00  0.00     0.100 C 
HETATM   46  N4  UNL     1     -13.130  15.512  32.348  1.00  0.00    -0.387 N 
ATOM     47  H42 UNL     1     -13.602  15.285  33.223  1.00  0.00     0.157 HD
ATOM     48  H41 UNL     1     -13.536  15.509  31.412  1.00  0.00     0.157 HD
ATOM     49  H5  UNL     1     -11.823  16.219  30.373  1.00  0.00     0.188 HD
ENDBRANCH  36  37
ENDBRANCH  34  36
ENDBRANCH  31  32
ENDBRANCH  30  31
ENDBRANCH   8  29
TORSDOF 17
ENDMDL
MODEL 5
REMARK VINA RESULT: -8.195796639      2.583      7.676
REMARK  17 active torsions:
REMARK  status: ('A' for Active; 'I' for Inactive)
REMARK    1  A    between atoms: C7_8  and  C9_10 
REMARK    2  A    between atoms: C10_11  and  C11_12 
REMARK    3  A    between atoms: C11_12  and  C12_13 
REMARK       I    between atoms: C12_13  and  N2_15 
REMARK    4  A    between atoms: N2_15  and  C13_17 
REMARK    5  A    between atoms: C13_17  and  C14_18 
REMARK       I    between atoms: C14_18  and  N3_20 
REMARK    6  A    between atoms: C21_32  and  C22_33 
REMARK    7  A    between atoms: C22_33  and  C23_34 
REMARK    8  A    between atoms: C23_34  and  C24_35 
REMARK    9  A    between atoms: C24_35  and  N6_36 
REMARK   10  A    between atoms: N6_36  and  C25_38 
REMARK   11  A    between atoms: C25_38  and  O3_39 
REMARK   12  A    between atoms: C25_38  and  C26_41 
REMARK   13  A    between atoms: C26_41  and  C27_42 
REMARK   14  A    between atoms: C27_42  and  C28_43 
REMARK   15  A    between atoms: C28_43  and  N7_44 
REMARK   16  A    between atoms: N7_44  and  C30_46 
REMARK   17  A    between atoms: C30_46  and  C31_47 
ROOT
HETATM    1  C1  UNL     1      -5.595  18.141  19.354  1.00  0.00     0.016 C 
HETATM    2  C2  UNL     1      -5.603  17.157  20.485  1.00  0.00     0.041 A 
HETATM    3  C3  UNL     1      -6.523  16.250  20.449  1.00  0.00     0.005 A 
HETATM    4  C4  UNL     1      -7.199  16.132  20.756  1.00  0.00     0.200 A 
HETATM    5  N1  UNL     1      -7.962  16.668  21.495  1.00  0.00    -0.038 N 
HETATM    6  C5  UNL     1      -9.116  17.431  21.029  1.00  0.00     0.245 C 
HETATM    7  C6  UNL     1     -10.219  16.433  21.365  1.00  0.00     0.043 C 
HETATM    8  C7  UNL     1      -9.646  15.669  22.570  1.00  0.00    -0.000 C 
HETATM    9  C8  UNL     1      -9.369  14.241  22.190  1.00  0.00     0.021 C 
HETATM   10  C20 UNL     1      -8.314  16.423  22.834  1.00  0.00     0.257 C 
HETATM   11  C21 UNL     1      -6.789  17.912  21.591  1.00  0.00     0.225 A 
ENDROOT
BRANCH  11  12
HETATM   12  C22 UNL     1      -6.218  17.916  22.831  1.00  0.00     0.005 C 
BRANCH  12  13
HETATM   13  C23 UNL     1      -5.907  19.141  23.616  1.00  0.00    -0.009 C 
BRANCH  13  14
HETATM   14  C24 UNL     1      -5.550  19.202  25.011  1.00  0.00     0.148 C 
BRANCH  14  15
HETATM   15  N6  UNL     1      -6.606  19.654  25.944  1.00  0.00    -0.368 N 
ATOM     16  H6  UNL     1      -6.750  20.659  26.037  1.00  0.00     0.161 HD
BRANCH  15  17
HETATM   17  C25 UNL     1      -7.414  18.822  26.701  1.00  0.00     0.135 C 
BRANCH  17  18
HETATM   18  O3  UNL     1      -8.650  19.227  26.806  1.00  0.00    -0.346 OA
ATOM     19  H3  UNL     1      -9.297  18.572  26.570  1.00  0.00     0.219 HD
ENDBRANCH  17  18
BRANCH  17  20
HETATM   20  C26 UNL     1      -7.115  17.610  27.385  1.00  0.00     0.053 C 
BRANCH  20  21
HETATM   21  C27 UNL     1      -7.002  17.235  28.606  1.00  0.00    -0.003 C 
BRANCH  21  22
HETATM   22  C28 UNL     1      -7.867  16.495  29.525  1.00  0.00     0.144 C 
BRANCH  22  23
HETATM   23  N7  UNL     1      -8.665  17.403  30.314  1.00  0.00    -0.405 N 
HETATM   24  C29 UNL     1      -9.963  17.677  29.794  1.00  0.00     0.144 C 
BRANCH  23  25
HETATM   25  C30 UNL     1      -8.548  17.282  31.722  1.00  0.00     0.216 C 
BRANCH  25  26
HETATM   26  C31 UNL     1      -8.700  15.924  32.266  1.00  0.00     0.248 C 
HETATM   27  N8  UNL     1      -7.586  15.378  32.968  1.00  0.00    -0.061 NA
HETATM   28  O4  UNL     1      -9.722  15.215  32.162  1.00  0.00    -0.275 OA
ENDBRANCH  25  26
ENDBRANCH  23  25
ENDBRANCH  22  23
ENDBRANCH  21  22
ENDBRANCH  20  21
ENDBRANCH  17  20
ENDBRANCH  15  17
ENDBRANCH  14  15
ENDBRANCH  13  14
ENDBRANCH  12  13
ENDBRANCH  11  12
BRANCH   8  29
HETATM   29  C9  UNL     1     -10.595  15.799  23.673  1.00  0.00    -0.019 C 
HETATM   30  C10 UNL     1     -10.264  16.301  24.870  1.00  0.00    -0.021 C 
BRANCH  30  31
HETATM   31  C11 UNL     1     -11.218  16.435  26.004  1.00  0.00     0.129 C 
BRANCH  31  32
HETATM   32  C12 UNL     1     -10.786  15.451  27.048  1.00  0.00     0.221 C 
HETATM   33  O1  UNL     1      -9.611  14.975  27.019  1.00  0.00    -0.273 OA
HETATM   34  N2  UNL     1     -11.661  15.029  28.083  1.00  0.00    -0.352 N 
ATOM     35  H2  UNL     1     -12.609  15.400  28.139  1.00  0.00     0.162 HD
BRANCH  34  36
HETATM   36  C13 UNL     1     -11.200  14.078  29.048  1.00  0.00     0.227 C 
BRANCH  36  37
HETATM   37  C14 UNL     1     -12.166  13.023  29.388  1.00  0.00     0.256 C 
HETATM   38  O2  UNL     1     -12.289  12.057  28.573  1.00  0.00    -0.270 OA
HETATM   39  N3  UNL     1     -12.979  12.988  30.558  1.00  0.00    -0.258 N 
HETATM   40  C15 UNL     1     -13.827  11.854  30.626  1.00  0.00     0.163 C 
HETATM   41  N5  UNL     1     -12.722  14.128  31.375  1.00  0.00    -0.284 N 
HETATM   42  C16 UNL     1     -13.809  11.054  31.966  1.00  0.00     0.102 C 
HETATM   43  C17 UNL     1     -13.409  11.954  32.956  1.00  0.00    -0.174 C 
HETATM   44  C18 UNL     1     -12.968  13.015  33.789  1.00  0.00     0.157 C 
HETATM   45  C19 UNL     1     -12.776  14.195  32.808  1.00  0.00     0.100 C 
HETATM   46  N4  UNL     1     -12.658  15.354  33.326  1.00  0.00    -0.387 N 
ATOM     47  H42 UNL     1     -12.697  15.402  34.344  1.00  0.00     0.157 HD
ATOM     48  H41 UNL     1     -12.532  16.133  32.679  1.00  0.00     0.157 HD
ATOM     49  H5  UNL     1     -12.472  14.989  30.888  1.00  0.00     0.188 HD
ENDBRANCH  36  37
ENDBRANCH  34  36
ENDBRANCH  31  32
ENDBRANCH  30  31
ENDBRANCH   8  29
TORSDOF 17
ENDMDL
