MODEL 1
REMARK VINA RESULT: -8.949083050      0.000      0.000
REMARK  15 active torsions:
REMARK  status: ('A' for Active; 'I' for Inactive)
REMARK    1  A    between atoms: C3_3  and  C4_4 
REMARK    2  A    between atoms: C4_4  and  N1_5 
REMARK       I    between atoms: N1_5  and  C5_7 
REMARK    3  A    between atoms: C5_7  and  C6_9 
REMARK    4  A    between atoms: N2_13  and  C10_14 
REMARK    5  A    between atoms: C10_14  and  O2_15 
REMARK    6  A    between atoms: C10_14  and  C11_17 
REMARK       I    between atoms: N3_22  and  C16_23 
REMARK    7  A    between atoms: C16_23  and  C17_25 
REMARK    8  A    between atoms: C17_25  and  C18_26 
REMARK    9  A    between atoms: C17_25  and  N4_28 
REMARK       I    between atoms: N4_28  and  C20_30 
REMARK   10  A    between atoms: C20_30  and  C21_32 
REMARK   11  A    between atoms: C21_32  and  C22_33 
REMARK   12  A    between atoms: C22_33  and  C23_34 
REMARK   13  A    between atoms: C27_41  and  C28_42 
REMARK   14  A    between atoms: C28_42  and  C29_43 
REMARK   15  A    between atoms: C29_43  and  C30_44 
ROOT
HETATM    1  C1  UNL     1      -4.336  18.230  26.894  1.00  0.00     0.097 C 
HETATM    2  C2  UNL     1      -5.232  17.526  27.538  1.00  0.00    -0.186 C 
HETATM    3  C3  UNL     1      -6.131  16.883  28.253  1.00  0.00     0.099 C 
ENDROOT
BRANCH   3   4
HETATM    4  C4  UNL     1      -7.060  17.733  29.012  1.00  0.00     0.134 C 
BRANCH   4   5
HETATM    5  N1  UNL     1      -7.582  17.125  30.186  1.00  0.00    -0.358 N 
HETATM    6  C5  UNL     1      -8.942  17.311  30.623  1.00  0.00     0.240 C 
HETATM    7  O1  UNL     1      -9.646  18.051  29.892  1.00  0.00    -0.271 OA
ATOM      8  H1  UNL     1      -6.967  16.533  30.744  1.00  0.00     0.162 HD
BRANCH   6   9
HETATM    9  C6  UNL     1      -9.531  16.716  31.814  1.00  0.00     0.178 C 
HETATM   10  C7  UNL     1      -8.568  16.809  32.973  1.00  0.00     0.037 C 
HETATM   11  C8  UNL     1      -7.667  15.629  32.682  1.00  0.00     0.022 C 
HETATM   12  C9  UNL     1      -8.700  14.583  32.248  1.00  0.00     0.126 C 
HETATM   13  N2  UNL     1      -9.788  15.273  31.644  1.00  0.00    -0.350 N 
BRANCH  13  14
HETATM   14  C10 UNL     1     -10.921  14.774  31.010  1.00  0.00     0.138 C 
BRANCH  14  15
HETATM   15  O2  UNL     1     -12.002  14.853  31.778  1.00  0.00    -0.348 OA
ATOM     16  H2  UNL     1     -12.788  15.026  31.275  1.00  0.00     0.219 HD
ENDBRANCH  14  15
BRANCH  14  17
HETATM   17  C11 UNL     1     -11.146  14.197  29.699  1.00  0.00     0.161 C 
HETATM   18  C12 UNL     1     -12.212  13.098  29.722  1.00  0.00     0.034 C 
HETATM   19  C13 UNL     1     -13.001  13.092  28.438  1.00  0.00     0.004 C 
HETATM   20  C14 UNL     1     -13.675  14.410  28.246  1.00  0.00     0.020 C 
HETATM   21  C15 UNL     1     -12.603  15.467  28.067  1.00  0.00     0.127 C 
HETATM   22  N3  UNL     1     -11.295  15.032  28.552  1.00  0.00    -0.338 N 
HETATM   23  C16 UNL     1     -10.166  15.448  27.785  1.00  0.00     0.243 C 
HETATM   24  O3  UNL     1      -9.008  15.055  28.199  1.00  0.00    -0.271 OA
BRANCH  23  25
HETATM   25  C17 UNL     1     -10.194  16.271  26.568  1.00  0.00     0.176 C 
BRANCH  25  26
HETATM   26  C18 UNL     1      -9.238  17.410  26.600  1.00  0.00     0.030 C 
HETATM   27  C19 UNL     1      -9.952  18.738  26.289  1.00  0.00     0.007 C 
ENDBRANCH  25  26
BRANCH  25  28
HETATM   28  N4  UNL     1      -9.769  15.430  25.408  1.00  0.00    -0.348 N 
HETATM   29  C20 UNL     1     -10.349  15.651  24.139  1.00  0.00     0.218 C 
HETATM   30  O4  UNL     1     -11.220  16.546  23.994  1.00  0.00    -0.274 OA
ATOM     31  H4  UNL     1      -9.066  14.701  25.532  1.00  0.00     0.163 HD
BRANCH  29  32
HETATM   32  C21 UNL     1      -9.921  14.812  22.995  1.00  0.00     0.105 C 
BRANCH  32  33
HETATM   33  C22 UNL     1      -8.445  15.048  22.730  1.00  0.00     0.040 C 
BRANCH  33  34
HETATM   34  C23 UNL     1      -8.288  16.086  21.662  1.00  0.00     0.037 C 
HETATM   35  C24 UNL     1      -9.504  16.091  20.753  1.00  0.00     0.039 C 
HETATM   36  N5  UNL     1      -7.076  15.965  20.916  1.00  0.00    -0.352 N 
HETATM   37  C25 UNL     1      -6.695  17.261  20.481  1.00  0.00     0.218 C 
ATOM     38  H5  UNL     1      -6.572  15.098  20.729  1.00  0.00     0.163 HD
HETATM   39  O5  UNL     1      -5.704  17.657  19.841  1.00  0.00    -0.274 OA
HETATM   40  C26 UNL     1      -7.779  18.210  20.953  1.00  0.00     0.113 C 
HETATM   41  C27 UNL     1      -8.178  17.510  22.274  1.00  0.00     0.045 C 
BRANCH  41  42
HETATM   42  C28 UNL     1      -7.037  17.552  23.194  1.00  0.00    -0.014 C 
BRANCH  42  43
HETATM   43  C29 UNL     1      -6.629  18.789  23.884  1.00  0.00     0.067 C 
BRANCH  43  44
HETATM   44  C30 UNL     1      -5.455  19.545  23.529  1.00  0.00     0.254 C 
HETATM   45  N6  UNL     1      -4.377  18.940  22.810  1.00  0.00    -0.058 NA
HETATM   46  O6  UNL     1      -5.315  20.781  23.846  1.00  0.00    -0.272 OA
ENDBRANCH  43  44
ENDBRANCH  42  43
ENDBRANCH  41  42
ENDBRANCH  33  34
ENDBRANCH  32  33
ENDBRANCH  29  32
ENDBRANCH  25  28
ENDBRANCH  23  25
ENDBRANCH  14  17
ENDBRANCH  13  14
ENDBRANCH   6   9
ENDBRANCH   4   5
ENDBRANCH   3   4
TORSDOF 15
ENDMDL
MODEL 2
REMARK VINA RESULT: -8.929712721      2.460      5.848
REMARK  15 active torsions:
REMARK  status: ('A' for Active; 'I' for Inactive)
REMARK    1  A    between atoms: C3_3  and  C4_4 
REMARK    2  A    between atoms: C4_4  and  N1_5 
REMARK       I    between atoms: N1_5  and  C5_7 
REMARK    3  A    between atoms: C5_7  and  C6_9 
REMARK    4  A    between atoms: N2_13  and  C10_14 
REMARK    5  A    between atoms: C10_14  and  O2_15 
REMARK    6  A    between atoms: C10_14  and  C11_17 
REMARK       I    between atoms: N3_22  and  C16_23 
REMARK    7  A    between atoms: C16_23  and  C17_25 
REMARK    8  A    between atoms: C17_25  and  C18_26 
REMARK    9  A    between atoms: C17_25  and  N4_28 
REMARK       I    between atoms: N4_28  and  C20_30 
REMARK   10  A    between atoms: C20_30  and  C21_32 
REMARK   11  A    between atoms: C21_32  and  C22_33 
REMARK   12  A    between atoms: C22_33  and  C23_34 
REMARK   13  A    between atoms: C27_41  and  C28_42 
REMARK   14  A    between atoms: C28_42  and  C29_43 
REMARK   15  A    between atoms: C29_43  and  C30_44 
ROOT
HETATM    1  C1  UNL     1     -11.179  16.000  34.284  1.00  0.00     0.097 C 
HETATM    2  C2  UNL     1     -11.723  15.105  35.068  1.00  0.00    -0.186 C 
HETATM    3  C3  UNL     1     -12.307  14.163  35.781  1.00  0.00     0.099 C 
ENDROOT
BRANCH   3   4
HETATM    4  C4  UNL     1     -12.373  12.840  35.145  1.00  0.00     0.134 C 
BRANCH   4   5
HETATM    5  N1  UNL     1     -12.665  12.873  33.754  1.00  0.00    -0.358 N 
HETATM    6  C5  UNL     1     -13.995  12.700  33.229  1.00  0.00     0.240 C 
HETATM    7  O1  UNL     1     -14.892  12.517  34.090  1.00  0.00    -0.271 OA
ATOM      8  H1  UNL     1     -11.898  13.025  33.099  1.00  0.00     0.162 HD
BRANCH   6   9
HETATM    9  C6  UNL     1     -14.353  12.724  31.819  1.00  0.00     0.178 C 
HETATM   10  C7  UNL     1     -15.001  11.418  31.424  1.00  0.00     0.037 C 
HETATM   11  C8  UNL     1     -13.779  10.548  31.225  1.00  0.00     0.022 C 
HETATM   12  C9  UNL     1     -12.849  11.527  30.500  1.00  0.00     0.126 C 
HETATM   13  N2  UNL     1     -13.166  12.840  30.949  1.00  0.00    -0.350 N 
BRANCH  13  14
HETATM   14  C10 UNL     1     -12.551  14.055  30.664  1.00  0.00     0.138 C 
BRANCH  14  15
HETATM   15  O2  UNL     1     -13.023  15.044  31.415  1.00  0.00    -0.348 OA
ATOM     16  H2  UNL     1     -13.300  15.789  30.894  1.00  0.00     0.219 HD
ENDBRANCH  14  15
BRANCH  14  17
HETATM   17  C11 UNL     1     -11.515  14.442  29.727  1.00  0.00     0.161 C 
HETATM   18  C12 UNL     1     -11.935  14.222  28.272  1.00  0.00     0.034 C 
HETATM   19  C13 UNL     1     -11.340  15.280  27.378  1.00  0.00     0.004 C 
HETATM   20  C14 UNL     1     -11.799  16.633  27.811  1.00  0.00     0.020 C 
HETATM   21  C15 UNL     1     -11.242  16.900  29.195  1.00  0.00     0.127 C 
HETATM   22  N3  UNL     1     -10.821  15.680  29.880  1.00  0.00    -0.338 N 
HETATM   23  C16 UNL     1      -9.643  15.777  30.677  1.00  0.00     0.243 C 
HETATM   24  O3  UNL     1      -9.257  14.699  31.273  1.00  0.00    -0.271 OA
BRANCH  23  25
HETATM   25  C17 UNL     1      -8.822  16.979  30.879  1.00  0.00     0.176 C 
BRANCH  25  26
HETATM   26  C18 UNL     1      -8.334  17.137  32.275  1.00  0.00     0.030 C 
HETATM   27  C19 UNL     1      -6.841  16.777  32.381  1.00  0.00     0.007 C 
ENDBRANCH  25  26
BRANCH  25  28
HETATM   28  N4  UNL     1      -7.591  16.868  30.040  1.00  0.00    -0.348 N 
HETATM   29  C20 UNL     1      -7.525  17.557  28.808  1.00  0.00     0.218 C 
HETATM   30  O4  UNL     1      -8.500  18.252  28.424  1.00  0.00    -0.274 OA
ATOM     31  H4  UNL     1      -6.804  16.299  30.353  1.00  0.00     0.163 HD
BRANCH  29  32
HETATM   32  C21 UNL     1      -6.299  17.442  27.983  1.00  0.00     0.105 C 
BRANCH  32  33
HETATM   33  C22 UNL     1      -6.659  17.650  26.523  1.00  0.00     0.040 C 
BRANCH  33  34
HETATM   34  C23 UNL     1      -5.587  18.451  25.853  1.00  0.00     0.037 C 
HETATM   35  C24 UNL     1      -4.242  18.171  26.498  1.00  0.00     0.039 C 
HETATM   36  N5  UNL     1      -5.863  19.852  25.801  1.00  0.00    -0.352 N 
HETATM   37  C25 UNL     1      -5.242  20.382  24.640  1.00  0.00     0.218 C 
ATOM     38  H5  UNL     1      -6.411  20.379  26.481  1.00  0.00     0.163 HD
HETATM   39  O5  UNL     1      -5.235  21.530  24.160  1.00  0.00    -0.274 OA
HETATM   40  C26 UNL     1      -4.502  19.232  23.985  1.00  0.00     0.113 C 
HETATM   41  C27 UNL     1      -5.455  18.069  24.352  1.00  0.00     0.045 C 
BRANCH  41  42
HETATM   42  C28 UNL     1      -6.742  18.285  23.685  1.00  0.00    -0.014 C 
BRANCH  42  43
HETATM   43  C29 UNL     1      -6.926  18.064  22.238  1.00  0.00     0.067 C 
BRANCH  43  44
HETATM   44  C30 UNL     1      -8.186  17.697  21.646  1.00  0.00     0.254 C 
HETATM   45  N6  UNL     1      -9.023  16.706  22.246  1.00  0.00    -0.058 NA
HETATM   46  O6  UNL     1      -8.611  18.229  20.558  1.00  0.00    -0.272 OA
ENDBRANCH  43  44
ENDBRANCH  42  43
ENDBRANCH  41  42
ENDBRANCH  33  34
ENDBRANCH  32  33
ENDBRANCH  29  32
ENDBRANCH  25  28
ENDBRANCH  23  25
ENDBRANCH  14  17
ENDBRANCH  13  14
ENDBRANCH   6   9
ENDBRANCH   4   5
ENDBRANCH   3   4
TORSDOF 15
ENDMDL
MODEL 3
REMARK VINA RESULT: -8.895066128      1.983      5.504
REMARK  15 active torsions:
REMARK  status: ('A' for Active; 'I' for Inactive)
REMARK    1  A    between atoms: C3_3  and  C4_4 
REMARK    2  A    between atoms: C4_4  and  N1_5 
REMARK       I    between atoms: N1_5  and  C5_7 
REMARK    3  A    between atoms: C5_7  and  C6_9 
REMARK    4  A    between atoms: N2_13  and  C10_14 
REMARK    5  A    between atoms: C10_14  and  O2_15 
REMARK    6  A    between atoms: C10_14  and  C11_17 
REMARK       I    between atoms: N3_22  and  C16_23 
REMARK    7  A    between atoms: C16_23  and  C17_25 
REMARK    8  A    between atoms: C17_25  and  C18_26 
REMARK    9  A    between atoms: C17_25  and  N4_28 
REMARK       I    between atoms: N4_28  and  C20_30 
REMARK   10  A    between atoms: C20_30  and  C21_32 
REMARK   11  A    between atoms: C21_32  and  C22_33 
REMARK   12  A    between atoms: C22_33  and  C23_34 
REMARK   13  A    between atoms: C27_41  and  C28_42 
REMARK   14  A    between atoms: C28_42  and  C29_43 
REMARK   15  A    between atoms: C29_43  and  C30_44 
ROOT
HETATM    1  C1  UNL     1     -12.232  14.414  35.840  1.00  0.00     0.097 C 
HETATM    2  C2  UNL     1     -11.732  15.260  34.975  1.00  0.00    -0.186 C 
HETATM    3  C3  UNL     1     -11.172  16.044  34.078  1.00  0.00     0.099 C 
ENDROOT
BRANCH   3   4
HETATM    4  C4  UNL     1     -10.738  15.378  32.841  1.00  0.00     0.134 C 
BRANCH   4   5
HETATM    5  N1  UNL     1     -11.687  15.435  31.783  1.00  0.00    -0.358 N 
HETATM    6  C5  UNL     1     -12.593  14.355  31.487  1.00  0.00     0.240 C 
HETATM    7  O1  UNL     1     -12.492  13.349  32.233  1.00  0.00    -0.271 OA
ATOM      8  H1  UNL     1     -11.726  16.276  31.208  1.00  0.00     0.162 HD
BRANCH   6   9
HETATM    9  C6  UNL     1     -13.582  14.356  30.419  1.00  0.00     0.178 C 
HETATM   10  C7  UNL     1     -14.473  13.142  30.534  1.00  0.00     0.037 C 
HETATM   11  C8  UNL     1     -13.597  12.091  29.887  1.00  0.00     0.022 C 
HETATM   12  C9  UNL     1     -13.036  12.881  28.700  1.00  0.00     0.126 C 
HETATM   13  N2  UNL     1     -12.958  14.248  29.086  1.00  0.00    -0.350 N 
BRANCH  13  14
HETATM   14  C10 UNL     1     -12.433  15.342  28.405  1.00  0.00     0.138 C 
BRANCH  14  15
HETATM   15  O2  UNL     1     -13.298  16.347  28.327  1.00  0.00    -0.348 OA
ATOM     16  H2  UNL     1     -12.955  17.077  27.826  1.00  0.00     0.219 HD
ENDBRANCH  14  15
BRANCH  14  17
HETATM   17  C11 UNL     1     -11.151  15.591  27.776  1.00  0.00     0.161 C 
HETATM   18  C12 UNL     1     -11.232  15.539  26.249  1.00  0.00     0.034 C 
HETATM   19  C13 UNL     1     -10.273  16.524  25.629  1.00  0.00     0.004 C 
HETATM   20  C14 UNL     1     -10.599  17.908  26.080  1.00  0.00     0.020 C 
HETATM   21  C15 UNL     1     -10.362  17.986  27.575  1.00  0.00     0.127 C 
HETATM   22  N3  UNL     1     -10.325  16.671  28.210  1.00  0.00    -0.338 N 
HETATM   23  C16 UNL     1      -9.378  16.504  29.264  1.00  0.00     0.243 C 
HETATM   24  O3  UNL     1      -9.329  15.340  29.819  1.00  0.00    -0.271 OA
BRANCH  23  25
HETATM   25  C17 UNL     1      -8.449  17.524  29.772  1.00  0.00     0.176 C 
BRANCH  25  26
HETATM   26  C18 UNL     1      -8.311  17.517  31.252  1.00  0.00     0.030 C 
HETATM   27  C19 UNL     1      -6.961  16.910  31.677  1.00  0.00     0.007 C 
ENDBRANCH  25  26
BRANCH  25  28
HETATM   28  N4  UNL     1      -7.081  17.232  29.245  1.00  0.00    -0.348 N 
HETATM   29  C20 UNL     1      -6.613  17.922  28.104  1.00  0.00     0.218 C 
HETATM   30  O4  UNL     1      -7.350  18.767  27.536  1.00  0.00    -0.274 OA
ATOM     31  H4  UNL     1      -6.489  16.541  29.706  1.00  0.00     0.163 HD
BRANCH  29  32
HETATM   32  C21 UNL     1      -5.255  17.626  27.591  1.00  0.00     0.105 C 
BRANCH  32  33
HETATM   33  C22 UNL     1      -5.362  17.089  26.175  1.00  0.00     0.040 C 
BRANCH  33  34
HETATM   34  C23 UNL     1      -4.749  18.066  25.221  1.00  0.00     0.037 C 
HETATM   35  C24 UNL     1      -3.256  17.822  25.107  1.00  0.00     0.039 C 
HETATM   36  N5  UNL     1      -5.036  19.430  25.532  1.00  0.00    -0.352 N 
HETATM   37  C25 UNL     1      -5.050  20.167  24.319  1.00  0.00     0.218 C 
ATOM     38  H5  UNL     1      -5.202  19.810  26.465  1.00  0.00     0.163 HD
HETATM   39  O5  UNL     1      -5.288  21.365  24.085  1.00  0.00    -0.274 OA
HETATM   40  C26 UNL     1      -4.695  19.187  23.217  1.00  0.00     0.113 C 
HETATM   41  C27 UNL     1      -5.342  17.905  23.793  1.00  0.00     0.045 C 
BRANCH  41  42
HETATM   42  C28 UNL     1      -6.795  18.094  23.851  1.00  0.00    -0.014 C 
BRANCH  42  43
HETATM   43  C29 UNL     1      -7.721  17.345  22.981  1.00  0.00     0.067 C 
BRANCH  43  44
HETATM   44  C30 UNL     1      -7.668  17.391  21.542  1.00  0.00     0.254 C 
HETATM   45  N6  UNL     1      -8.613  18.158  20.792  1.00  0.00    -0.058 NA
HETATM   46  O6  UNL     1      -6.787  16.743  20.869  1.00  0.00    -0.272 OA
ENDBRANCH  43  44
ENDBRANCH  42  43
ENDBRANCH  41  42
ENDBRANCH  33  34
ENDBRANCH  32  33
ENDBRANCH  29  32
ENDBRANCH  25  28
ENDBRANCH  23  25
ENDBRANCH  14  17
ENDBRANCH  13  14
ENDBRANCH   6   9
ENDBRANCH   4   5
ENDBRANCH   3   4
TORSDOF 15
ENDMDL
MODEL 4
REMARK VINA RESULT: -8.777661354      2.058      4.654
REMARK  15 active torsions:
REMARK  status: ('A' for Active; 'I' for Inactive)
REMARK    1  A    between atoms: C3_3  and  C4_4 
REMARK    2  A    between atoms: C4_4  and  N1_5 
REMARK       I    between atoms: N1_5  and  C5_7 
REMARK    3  A    between atoms: C5_7  and  C6_9 
REMARK    4  A    between atoms: N2_13  and  C10_14 
REMARK    5  A    between atoms: C10_14  and  O2_15 
REMARK    6  A    between atoms: C10_14  and  C11_17 
REMARK       I    between atoms: N3_22  and  C16_23 
REMARK    7  A    between atoms: C16_23  and  C17_25 
REMARK    8  A    between atoms: C17_25  and  C18_26 
REMARK    9  A    between atoms: C17_25  and  N4_28 
REMARK       I    between atoms: N4_28  and  C20_30 
REMARK   10  A    between atoms: C20_30  and  C21_32 
REMARK   11  A    between atoms: C21_32  and  C22_33 
REMARK   12  A    between atoms: C22_33  and  C23_34 
REMARK   13  A    between atoms: C27_41  and  C28_42 
REMARK   14  A    between atoms: C28_42  and  C29_43 
REMARK   15  A    between atoms: C29_43  and  C30_44 
ROOT
HETATM    1  C1  UNL     1      -6.921  16.662  32.450  1.00  0.00     0.097 C 
HETATM    2  C2  UNL     1      -8.186  16.627  32.786  1.00  0.00    -0.186 C 
HETATM    3  C3  UNL     1      -9.469  16.523  33.063  1.00  0.00     0.099 C 
ENDROOT
BRANCH   3   4
HETATM    4  C4  UNL     1     -10.020  15.162  32.999  1.00  0.00     0.134 C 
BRANCH   4   5
HETATM    5  N1  UNL     1     -10.739  14.877  31.806  1.00  0.00    -0.358 N 
HETATM    6  C5  UNL     1     -12.159  15.079  31.682  1.00  0.00     0.240 C 
HETATM    7  O1  UNL     1     -12.729  15.529  32.707  1.00  0.00    -0.271 OA
ATOM      8  H1  UNL     1     -10.226  14.513  31.003  1.00  0.00     0.162 HD
BRANCH   6   9
HETATM    9  C6  UNL     1     -12.947  14.805  30.489  1.00  0.00     0.178 C 
HETATM   10  C7  UNL     1     -13.573  13.434  30.581  1.00  0.00     0.037 C 
HETATM   11  C8  UNL     1     -12.407  12.567  30.158  1.00  0.00     0.022 C 
HETATM   12  C9  UNL     1     -11.843  13.395  28.998  1.00  0.00     0.126 C 
HETATM   13  N2  UNL     1     -12.113  14.765  29.272  1.00  0.00    -0.350 N 
BRANCH  13  14
HETATM   14  C10 UNL     1     -11.728  15.909  28.580  1.00  0.00     0.138 C 
BRANCH  14  15
HETATM   15  O2  UNL     1     -12.760  16.693  28.292  1.00  0.00    -0.348 OA
ATOM     16  H2  UNL     1     -12.775  16.946  27.377  1.00  0.00     0.219 HD
ENDBRANCH  14  15
BRANCH  14  17
HETATM   17  C11 UNL     1     -10.443  16.399  28.121  1.00  0.00     0.161 C 
HETATM   18  C12 UNL     1      -9.410  16.468  29.249  1.00  0.00     0.034 C 
HETATM   19  C13 UNL     1      -8.029  16.163  28.727  1.00  0.00     0.004 C 
HETATM   20  C14 UNL     1      -7.998  14.795  28.131  1.00  0.00     0.020 C 
HETATM   21  C15 UNL     1      -8.908  14.787  26.918  1.00  0.00     0.127 C 
HETATM   22  N3  UNL     1      -9.859  15.897  26.920  1.00  0.00    -0.338 N 
HETATM   23  C16 UNL     1     -10.140  16.490  25.654  1.00  0.00     0.243 C 
HETATM   24  O3  UNL     1     -10.968  17.481  25.649  1.00  0.00    -0.271 OA
BRANCH  23  25
HETATM   25  C17 UNL     1      -9.573  16.090  24.357  1.00  0.00     0.176 C 
BRANCH  25  26
HETATM   26  C18 UNL     1     -10.596  15.639  23.377  1.00  0.00     0.030 C 
HETATM   27  C19 UNL     1     -10.289  14.215  22.877  1.00  0.00     0.007 C 
ENDBRANCH  25  26
BRANCH  25  28
HETATM   28  N4  UNL     1      -8.921  17.279  23.730  1.00  0.00    -0.348 N 
HETATM   29  C20 UNL     1      -8.008  17.092  22.667  1.00  0.00     0.218 C 
HETATM   30  O4  UNL     1      -7.748  15.931  22.261  1.00  0.00    -0.274 OA
ATOM     31  H4  UNL     1      -9.132  18.219  24.067  1.00  0.00     0.163 HD
BRANCH  29  32
HETATM   32  C21 UNL     1      -7.368  18.277  22.051  1.00  0.00     0.105 C 
BRANCH  32  33
HETATM   33  C22 UNL     1      -6.706  19.107  23.137  1.00  0.00     0.040 C 
BRANCH  33  34
HETATM   34  C23 UNL     1      -5.277  18.686  23.287  1.00  0.00     0.037 C 
HETATM   35  C24 UNL     1      -4.517  18.941  21.999  1.00  0.00     0.039 C 
HETATM   36  N5  UNL     1      -5.119  17.339  23.733  1.00  0.00    -0.352 N 
HETATM   37  C25 UNL     1      -3.912  17.259  24.477  1.00  0.00     0.218 C 
ATOM     38  H5  UNL     1      -5.761  16.567  23.549  1.00  0.00     0.163 HD
HETATM   39  O5  UNL     1      -3.381  16.313  25.087  1.00  0.00    -0.274 OA
HETATM   40  C26 UNL     1      -3.283  18.638  24.427  1.00  0.00     0.113 C 
HETATM   41  C27 UNL     1      -4.565  19.505  24.399  1.00  0.00     0.045 C 
BRANCH  41  42
HETATM   42  C28 UNL     1      -5.283  19.326  25.665  1.00  0.00    -0.014 C 
BRANCH  42  43
HETATM   43  C29 UNL     1      -4.626  19.500  26.974  1.00  0.00     0.067 C 
BRANCH  43  44
HETATM   44  C30 UNL     1      -4.410  18.419  27.902  1.00  0.00     0.254 C 
HETATM   45  N6  UNL     1      -3.493  18.552  28.990  1.00  0.00    -0.058 NA
HETATM   46  O6  UNL     1      -5.017  17.293  27.793  1.00  0.00    -0.272 OA
ENDBRANCH  43  44
ENDBRANCH  42  43
ENDBRANCH  41  42
ENDBRANCH  33  34
ENDBRANCH  32  33
ENDBRANCH  29  32
ENDBRANCH  25  28
ENDBRANCH  23  25
ENDBRANCH  14  17
ENDBRANCH  13  14
ENDBRANCH   6   9
ENDBRANCH   4   5
ENDBRANCH   3   4
TORSDOF 15
ENDMDL
MODEL 5
REMARK VINA RESULT: -8.762754032      1.540      2.750
REMARK  15 active torsions:
REMARK  status: ('A' for Active; 'I' for Inactive)
REMARK    1  A    between atoms: C3_3  and  C4_4 
REMARK    2  A    between atoms: C4_4  and  N1_5 
REMARK       I    between atoms: N1_5  and  C5_7 
REMARK    3  A    between atoms: C5_7  and  C6_9 
REMARK    4  A    between atoms: N2_13  and  C10_14 
REMARK    5  A    between atoms: C10_14  and  O2_15 
REMARK    6  A    between atoms: C10_14  and  C11_17 
REMARK       I    between atoms: N3_22  and  C16_23 
REMARK    7  A    between atoms: C16_23  and  C17_25 
REMARK    8  A    between atoms: C17_25  and  C18_26 
REMARK    9  A    between atoms: C17_25  and  N4_28 
REMARK       I    between atoms: N4_28  and  C20_30 
REMARK   10  A    between atoms: C20_30  and  C21_32 
REMARK   11  A    between atoms: C21_32  and  C22_33 
REMARK   12  A    between atoms: C22_33  and  C23_34 
REMARK   13  A    between atoms: C27_41  and  C28_42 
REMARK   14  A    between atoms: C28_42  and  C29_43 
REMARK   15  A    between atoms: C29_43  and  C30_44 
ROOT
HETATM    1  C1  UNL     1      -7.729  16.658  30.841  1.00  0.00     0.097 C 
HETATM    2  C2  UNL     1      -7.995  17.043  32.064  1.00  0.00    -0.186 C 
HETATM    3  C3  UNL     1      -8.352  17.412  33.277  1.00  0.00     0.099 C 
ENDROOT
BRANCH   3   4
HETATM    4  C4  UNL     1      -9.469  16.657  33.863  1.00  0.00     0.134 C 
BRANCH   4   5
HETATM    5  N1  UNL     1     -10.326  16.043  32.908  1.00  0.00    -0.358 N 
HETATM    6  C5  UNL     1     -11.695  15.699  33.194  1.00  0.00     0.240 C 
HETATM    7  O1  UNL     1     -12.089  15.980  34.353  1.00  0.00    -0.271 OA
ATOM      8  H1  UNL     1      -9.954  15.838  31.981  1.00  0.00     0.162 HD
BRANCH   6   9
HETATM    9  C6  UNL     1     -12.617  15.071  32.259  1.00  0.00     0.178 C 
HETATM   10  C7  UNL     1     -13.842  14.576  32.990  1.00  0.00     0.037 C 
HETATM   11  C8  UNL     1     -13.325  13.268  33.547  1.00  0.00     0.022 C 
HETATM   12  C9  UNL     1     -12.526  12.744  32.348  1.00  0.00     0.126 C 
HETATM   13  N2  UNL     1     -12.034  13.870  31.630  1.00  0.00    -0.350 N 
BRANCH  13  14
HETATM   14  C10 UNL     1     -11.185  13.927  30.529  1.00  0.00     0.138 C 
BRANCH  14  15
HETATM   15  O2  UNL     1      -9.911  14.047  30.885  1.00  0.00    -0.348 OA
ATOM     16  H2  UNL     1      -9.659  14.953  31.017  1.00  0.00     0.219 HD
ENDBRANCH  14  15
BRANCH  14  17
HETATM   17  C11 UNL     1     -11.417  13.882  29.099  1.00  0.00     0.161 C 
HETATM   18  C12 UNL     1     -12.824  13.389  28.754  1.00  0.00     0.034 C 
HETATM   19  C13 UNL     1     -13.340  14.072  27.513  1.00  0.00     0.004 C 
HETATM   20  C14 UNL     1     -13.387  15.548  27.723  1.00  0.00     0.020 C 
HETATM   21  C15 UNL     1     -11.967  16.045  27.908  1.00  0.00     0.127 C 
HETATM   22  N3  UNL     1     -11.037  14.976  28.266  1.00  0.00    -0.338 N 
HETATM   23  C16 UNL     1      -9.733  15.056  27.694  1.00  0.00     0.243 C 
HETATM   24  O3  UNL     1      -8.910  14.107  27.993  1.00  0.00    -0.271 OA
BRANCH  23  25
HETATM   25  C17 UNL     1      -9.237  16.106  26.793  1.00  0.00     0.176 C 
BRANCH  25  26
HETATM   26  C18 UNL     1      -7.841  16.526  27.082  1.00  0.00     0.030 C 
HETATM   27  C19 UNL     1      -7.764  18.042  27.342  1.00  0.00     0.007 C 
ENDBRANCH  25  26
BRANCH  25  28
HETATM   28  N4  UNL     1      -9.209  15.570  25.399  1.00  0.00    -0.348 N 
HETATM   29  C20 UNL     1     -10.216  15.954  24.485  1.00  0.00     0.218 C 
HETATM   30  O4  UNL     1     -11.130  16.736  24.851  1.00  0.00    -0.274 OA
ATOM     31  H4  UNL     1      -8.468  14.931  25.108  1.00  0.00     0.163 HD
BRANCH  29  32
HETATM   32  C21 UNL     1     -10.178  15.418  23.104  1.00  0.00     0.105 C 
BRANCH  32  33
HETATM   33  C22 UNL     1      -8.732  15.241  22.678  1.00  0.00     0.040 C 
BRANCH  33  34
HETATM   34  C23 UNL     1      -8.409  16.216  21.589  1.00  0.00     0.037 C 
HETATM   35  C24 UNL     1      -9.577  16.333  20.626  1.00  0.00     0.039 C 
HETATM   36  N5  UNL     1      -7.190  15.929  20.903  1.00  0.00    -0.352 N 
HETATM   37  C25 UNL     1      -6.640  17.156  20.448  1.00  0.00     0.218 C 
ATOM     38  H5  UNL     1      -6.785  15.003  20.764  1.00  0.00     0.163 HD
HETATM   39  O5  UNL     1      -5.582  17.411  19.844  1.00  0.00    -0.274 OA
HETATM   40  C26 UNL     1      -7.623  18.241  20.843  1.00  0.00     0.113 C 
HETATM   41  C27 UNL     1      -8.157  17.638  22.164  1.00  0.00     0.045 C 
BRANCH  41  42
HETATM   42  C28 UNL     1      -7.058  17.577  23.133  1.00  0.00    -0.014 C 
BRANCH  42  43
HETATM   43  C29 UNL     1      -6.582  18.769  23.859  1.00  0.00     0.067 C 
BRANCH  43  44
HETATM   44  C30 UNL     1      -5.473  19.575  23.418  1.00  0.00     0.254 C 
HETATM   45  N6  UNL     1      -4.396  19.003  22.672  1.00  0.00    -0.058 NA
HETATM   46  O6  UNL     1      -5.391  20.829  23.679  1.00  0.00    -0.272 OA
ENDBRANCH  43  44
ENDBRANCH  42  43
ENDBRANCH  41  42
ENDBRANCH  33  34
ENDBRANCH  32  33
ENDBRANCH  29  32
ENDBRANCH  25  28
ENDBRANCH  23  25
ENDBRANCH  14  17
ENDBRANCH  13  14
ENDBRANCH   6   9
ENDBRANCH   4   5
ENDBRANCH   3   4
TORSDOF 15
ENDMDL
