MODEL 1
REMARK VINA RESULT: -9.564213480      0.000      0.000
REMARK  14 active torsions:
REMARK  status: ('A' for Active; 'I' for Inactive)
REMARK    1  A    between atoms: N1_2  and  C4_5 
REMARK    2  A    between atoms: C4_5  and  C5_6 
REMARK    3  A    between atoms: C5_6  and  N2_7 
REMARK    4  A    between atoms: C7_9  and  C8_10 
REMARK    5  A    between atoms: C8_10  and  C9_11 
REMARK    6  A    between atoms: C9_11  and  C10_12 
REMARK    7  A    between atoms: C13_15  and  N3_16 
REMARK       I    between atoms: N3_16  and  C14_18 
REMARK    8  A    between atoms: C16_28  and  N8_29 
REMARK    9  A    between atoms: N8_29  and  C17_30 
REMARK   10  A    between atoms: N8_29  and  C18_32 
REMARK   11  A    between atoms: C18_32  and  C19_33 
REMARK   12  A    between atoms: C22_36  and  C23_37 
REMARK   13  A    between atoms: C23_37  and  N9_38 
REMARK   14  A    between atoms: C27_42  and  C28_43 
ROOT
HETATM    1  N2  UNL     1      -5.205  18.071  23.155  1.00  0.00    -0.300 N 
HETATM    2  C6  UNL     1      -5.413  18.596  24.384  1.00  0.00     0.117 A 
HETATM    3  C7  UNL     1      -6.598  18.494  25.045  1.00  0.00    -0.037 A 
HETATM    4  C15 UNL     1      -7.644  17.823  24.437  1.00  0.00     0.058 A 
HETATM    5  C16 UNL     1      -7.431  17.290  23.190  1.00  0.00     0.125 A 
HETATM    6  N12 UNL     1      -6.225  17.439  22.608  1.00  0.00    -0.283 N 
ATOM      7  H12 UNL     1      -6.092  17.035  21.681  1.00  0.00     0.188 HD
ENDROOT
BRANCH   5   8
HETATM    8  N8  UNL     1      -8.474  16.571  22.538  1.00  0.00    -0.306 N 
BRANCH   8   9
HETATM    9  C17 UNL     1      -9.041  17.004  21.330  1.00  0.00     0.357 C 
HETATM   10  O1  UNL     1      -8.721  18.107  20.796  1.00  0.00    -0.283 OA
ENDBRANCH   8   9
BRANCH   8  11
HETATM   11  C18 UNL     1      -8.977  15.369  23.164  1.00  0.00     0.171 C 
BRANCH  11  12
HETATM   12  C19 UNL     1      -9.638  15.636  24.466  1.00  0.00    -0.040 A 
HETATM   13  C20 UNL     1     -10.788  16.422  24.476  1.00  0.00     0.009 A 
HETATM   14  C21 UNL     1     -11.431  16.681  25.667  1.00  0.00     0.009 A 
HETATM   15  C22 UNL     1     -10.970  16.180  26.875  1.00  0.00    -0.040 A 
HETATM   16  C30 UNL     1      -9.832  15.403  26.864  1.00  0.00     0.009 A 
HETATM   17  C31 UNL     1      -9.180  15.143  25.644  1.00  0.00     0.009 A 
BRANCH  15  18
HETATM   18  C23 UNL     1     -11.695  16.474  28.143  1.00  0.00     0.166 C 
BRANCH  18  19
HETATM   19  N9  UNL     1     -12.277  15.234  28.665  1.00  0.00    -0.361 N 
HETATM   20  C24 UNL     1     -12.661  14.289  27.784  1.00  0.00     0.090 A 
HETATM   21  C25 UNL     1     -13.219  13.110  28.232  1.00  0.00     0.018 A 
HETATM   22  C26 UNL     1     -13.392  12.881  29.592  1.00  0.00     0.017 A 
HETATM   23  C27 UNL     1     -12.991  13.865  30.486  1.00  0.00     0.020 A 
HETATM   24  C29 UNL     1     -12.441  15.023  29.987  1.00  0.00     0.105 A 
BRANCH  23  25
HETATM   25  C28 UNL     1     -13.176  13.630  31.916  1.00  0.00     0.121 C 
HETATM   26  N10 UNL     1     -12.216  13.680  32.753  1.00  0.00    -0.387 N 
ATOM     27 2H10 UNL     1     -11.282  13.895  32.403  1.00  0.00     0.157 HD
ATOM     28 1H10 UNL     1     -12.345  13.516  33.751  1.00  0.00     0.157 HD
HETATM   29  N11 UNL     1     -14.471  13.331  32.401  1.00  0.00    -0.082 NA
ENDBRANCH  23  25
ENDBRANCH  18  19
ENDBRANCH  15  18
ENDBRANCH  11  12
ENDBRANCH   8  11
ENDBRANCH   5   8
BRANCH   3  30
HETATM   30  C8  UNL     1      -6.733  19.087  26.407  1.00  0.00     0.046 C 
BRANCH  30  31
HETATM   31  C9  UNL     1      -8.105  18.771  26.977  1.00  0.00     0.063 C 
BRANCH  31  32
HETATM   32  C10 UNL     1      -8.021  18.155  28.320  1.00  0.00     0.026 A 
HETATM   33  C11 UNL     1      -6.938  17.431  28.774  1.00  0.00     0.030 A 
HETATM   34  C12 UNL     1      -6.922  16.897  30.056  1.00  0.00     0.052 A 
HETATM   35  C13 UNL     1      -7.995  17.085  30.891  1.00  0.00     0.122 A 
HETATM   36  N6  UNL     1      -9.039  17.797  30.413  1.00  0.00    -0.285 N 
HETATM   37  N7  UNL     1      -9.051  18.304  29.196  1.00  0.00    -0.303 N 
ATOM     38  H6  UNL     1      -9.847  17.949  31.017  1.00  0.00     0.188 HD
ATOM     39  H7  UNL     1      -9.871  18.832  28.896  1.00  0.00     0.186 HD
BRANCH  35  40
HETATM   40  N3  UNL     1      -8.018  16.596  32.105  1.00  0.00    -0.316 N 
HETATM   41  C14 UNL     1      -9.017  15.686  32.478  1.00  0.00     0.187 C 
HETATM   42  N4  UNL     1      -8.796  14.430  32.475  1.00  0.00    -0.373 N 
HETATM   43  N5  UNL     1     -10.295  16.165  32.855  1.00  0.00    -0.064 NA
ATOM     44  H42 UNL     1      -7.875  14.085  32.204  1.00  0.00     0.158 HD
ATOM     45  H41 UNL     1      -9.523  13.767  32.747  1.00  0.00     0.158 HD
ATOM     46  H3  UNL     1      -7.308  16.879  32.781  1.00  0.00     0.170 HD
ENDBRANCH  35  40
ENDBRANCH  31  32
ENDBRANCH  30  31
ENDBRANCH   3  30
BRANCH   1  47
HETATM   47  C5  UNL     1      -3.949  18.184  22.447  1.00  0.00     0.176 C 
BRANCH  47  48
HETATM   48  C4  UNL     1      -2.778  18.273  23.399  1.00  0.00     0.257 C 
BRANCH  48  49
HETATM   49  N1  UNL     1      -2.027  17.034  23.441  1.00  0.00    -0.077 N 
HETATM   50  C1  UNL     1      -2.504  16.194  24.542  1.00  0.00     0.271 C 
HETATM   51  C2  UNL     1      -0.610  17.281  23.669  1.00  0.00     0.271 C 
HETATM   52  C3  UNL     1      -2.140  16.263  22.238  1.00  0.00     0.271 C 
ENDBRANCH  48  49
ENDBRANCH  47  48
ENDBRANCH   1  47
TORSDOF 14
ENDMDL
MODEL 2
REMARK VINA RESULT: -9.465772851      1.360      2.034
REMARK  14 active torsions:
REMARK  status: ('A' for Active; 'I' for Inactive)
REMARK    1  A    between atoms: N1_2  and  C4_5 
REMARK    2  A    between atoms: C4_5  and  C5_6 
REMARK    3  A    between atoms: C5_6  and  N2_7 
REMARK    4  A    between atoms: C7_9  and  C8_10 
REMARK    5  A    between atoms: C8_10  and  C9_11 
REMARK    6  A    between atoms: C9_11  and  C10_12 
REMARK    7  A    between atoms: C13_15  and  N3_16 
REMARK       I    between atoms: N3_16  and  C14_18 
REMARK    8  A    between atoms: C16_28  and  N8_29 
REMARK    9  A    between atoms: N8_29  and  C17_30 
REMARK   10  A    between atoms: N8_29  and  C18_32 
REMARK   11  A    between atoms: C18_32  and  C19_33 
REMARK   12  A    between atoms: C22_36  and  C23_37 
REMARK   13  A    between atoms: C23_37  and  N9_38 
REMARK   14  A    between atoms: C27_42  and  C28_43 
ROOT
HETATM    1  N2  UNL     1      -4.410  17.304  25.497  1.00  0.00    -0.300 N 
HETATM    2  C6  UNL     1      -4.751  17.490  26.792  1.00  0.00     0.117 A 
HETATM    3  C7  UNL     1      -6.037  17.440  27.237  1.00  0.00    -0.037 A 
HETATM    4  C15 UNL     1      -7.047  17.187  26.325  1.00  0.00     0.058 A 
HETATM    5  C16 UNL     1      -6.699  16.998  25.011  1.00  0.00     0.125 A 
HETATM    6  N12 UNL     1      -5.400  17.065  24.658  1.00  0.00    -0.283 N 
ATOM      7  H12 UNL     1      -5.167  16.922  23.675  1.00  0.00     0.188 HD
ENDROOT
BRANCH   5   8
HETATM    8  N8  UNL     1      -7.705  16.712  24.045  1.00  0.00    -0.306 N 
BRANCH   8   9
HETATM    9  C17 UNL     1      -7.984  17.576  22.976  1.00  0.00     0.357 C 
HETATM   10  O1  UNL     1      -7.263  18.586  22.724  1.00  0.00    -0.283 OA
ENDBRANCH   8   9
BRANCH   8  11
HETATM   11  C18 UNL     1      -8.480  15.500  24.195  1.00  0.00     0.171 C 
BRANCH  11  12
HETATM   12  C19 UNL     1      -9.542  15.624  25.224  1.00  0.00    -0.040 A 
HETATM   13  C20 UNL     1      -9.344  15.007  26.458  1.00  0.00     0.009 A 
HETATM   14  C21 UNL     1     -10.307  15.111  27.438  1.00  0.00     0.009 A 
HETATM   15  C22 UNL     1     -11.484  15.817  27.240  1.00  0.00    -0.040 A 
HETATM   16  C30 UNL     1     -11.679  16.426  26.019  1.00  0.00     0.009 A 
HETATM   17  C31 UNL     1     -10.692  16.315  25.022  1.00  0.00     0.009 A 
BRANCH  15  18
HETATM   18  C23 UNL     1     -12.500  15.915  28.325  1.00  0.00     0.166 C 
BRANCH  18  19
HETATM   19  N9  UNL     1     -12.863  14.567  28.771  1.00  0.00    -0.361 N 
HETATM   20  C24 UNL     1     -13.050  13.615  27.836  1.00  0.00     0.090 A 
HETATM   21  C25 UNL     1     -13.399  12.334  28.212  1.00  0.00     0.018 A 
HETATM   22  C26 UNL     1     -13.560  12.010  29.554  1.00  0.00     0.017 A 
HETATM   23  C27 UNL     1     -13.364  13.003  30.504  1.00  0.00     0.020 A 
HETATM   24  C29 UNL     1     -13.018  14.265  30.076  1.00  0.00     0.105 A 
BRANCH  23  25
HETATM   25  C28 UNL     1     -13.537  12.667  31.916  1.00  0.00     0.121 C 
HETATM   26  N10 UNL     1     -12.804  11.815  32.516  1.00  0.00    -0.387 N 
ATOM     27 2H10 UNL     1     -12.067  11.352  31.984  1.00  0.00     0.157 HD
ATOM     28 1H10 UNL     1     -12.926  11.580  33.501  1.00  0.00     0.157 HD
HETATM   29  N11 UNL     1     -14.560  13.309  32.653  1.00  0.00    -0.082 NA
ENDBRANCH  23  25
ENDBRANCH  18  19
ENDBRANCH  15  18
ENDBRANCH  11  12
ENDBRANCH   8  11
ENDBRANCH   5   8
BRANCH   3  30
HETATM   30  C8  UNL     1      -6.320  17.638  28.688  1.00  0.00     0.046 C 
BRANCH  30  31
HETATM   31  C9  UNL     1      -7.794  17.939  28.891  1.00  0.00     0.063 C 
BRANCH  31  32
HETATM   32  C10 UNL     1      -8.366  17.180  30.026  1.00  0.00     0.026 A 
HETATM   33  C11 UNL     1      -7.611  16.523  30.976  1.00  0.00     0.030 A 
HETATM   34  C12 UNL     1      -8.218  15.844  32.026  1.00  0.00     0.052 A 
HETATM   35  C13 UNL     1      -9.586  15.819  32.127  1.00  0.00     0.122 A 
HETATM   36  N6  UNL     1     -10.293  16.472  31.179  1.00  0.00    -0.285 N 
HETATM   37  N7  UNL     1      -9.715  17.116  30.184  1.00  0.00    -0.303 N 
ATOM     38  H6  UNL     1     -11.311  16.467  31.235  1.00  0.00     0.188 HD
ATOM     39  H7  UNL     1     -10.307  17.588  29.500  1.00  0.00     0.186 HD
BRANCH  35  40
HETATM   40  N3  UNL     1     -10.194  15.190  33.100  1.00  0.00    -0.316 N 
HETATM   41  C14 UNL     1     -11.258  15.803  33.777  1.00  0.00     0.187 C 
HETATM   42  N4  UNL     1     -12.469  15.541  33.473  1.00  0.00    -0.373 N 
HETATM   43  N5  UNL     1     -10.987  16.735  34.809  1.00  0.00    -0.064 NA
ATOM     44  H42 UNL     1     -12.663  14.870  32.730  1.00  0.00     0.158 HD
ATOM     45  H41 UNL     1     -13.243  15.987  33.965  1.00  0.00     0.158 HD
ATOM     46  H3  UNL     1      -9.893  14.252  33.367  1.00  0.00     0.170 HD
ENDBRANCH  35  40
ENDBRANCH  31  32
ENDBRANCH  30  31
ENDBRANCH   3  30
BRANCH   1  47
HETATM   47  C5  UNL     1      -3.046  17.363  25.020  1.00  0.00     0.176 C 
BRANCH  47  48
HETATM   48  C4  UNL     1      -2.512  15.990  24.683  1.00  0.00     0.257 C 
BRANCH  48  49
HETATM   49  N1  UNL     1      -1.552  16.039  23.598  1.00  0.00    -0.077 N 
HETATM   50  C1  UNL     1      -0.828  14.770  23.510  1.00  0.00     0.271 C 
HETATM   51  C2  UNL     1      -0.563  17.087  23.814  1.00  0.00     0.271 C 
HETATM   52  C3  UNL     1      -2.155  16.275  22.319  1.00  0.00     0.271 C 
ENDBRANCH  48  49
ENDBRANCH  47  48
ENDBRANCH   1  47
TORSDOF 14
ENDMDL
MODEL 3
REMARK VINA RESULT: -9.316916173      0.842      1.379
REMARK  14 active torsions:
REMARK  status: ('A' for Active; 'I' for Inactive)
REMARK    1  A    between atoms: N1_2  and  C4_5 
REMARK    2  A    between atoms: C4_5  and  C5_6 
REMARK    3  A    between atoms: C5_6  and  N2_7 
REMARK    4  A    between atoms: C7_9  and  C8_10 
REMARK    5  A    between atoms: C8_10  and  C9_11 
REMARK    6  A    between atoms: C9_11  and  C10_12 
REMARK    7  A    between atoms: C13_15  and  N3_16 
REMARK       I    between atoms: N3_16  and  C14_18 
REMARK    8  A    between atoms: C16_28  and  N8_29 
REMARK    9  A    between atoms: N8_29  and  C17_30 
REMARK   10  A    between atoms: N8_29  and  C18_32 
REMARK   11  A    between atoms: C18_32  and  C19_33 
REMARK   12  A    between atoms: C22_36  and  C23_37 
REMARK   13  A    between atoms: C23_37  and  N9_38 
REMARK   14  A    between atoms: C27_42  and  C28_43 
ROOT
HETATM    1  N2  UNL     1      -5.191  18.114  23.237  1.00  0.00    -0.300 N 
HETATM    2  C6  UNL     1      -5.422  18.637  24.463  1.00  0.00     0.117 A 
HETATM    3  C7  UNL     1      -6.619  18.532  25.103  1.00  0.00    -0.037 A 
HETATM    4  C15 UNL     1      -7.652  17.860  24.475  1.00  0.00     0.058 A 
HETATM    5  C16 UNL     1      -7.416  17.329  23.231  1.00  0.00     0.125 A 
HETATM    6  N12 UNL     1      -6.201  17.480  22.671  1.00  0.00    -0.283 N 
ATOM      7  H12 UNL     1      -6.051  17.078  21.745  1.00  0.00     0.188 HD
ENDROOT
BRANCH   5   8
HETATM    8  N8  UNL     1      -8.446  16.609  22.560  1.00  0.00    -0.306 N 
BRANCH   8   9
HETATM    9  C17 UNL     1      -8.978  17.032  21.333  1.00  0.00     0.357 C 
HETATM   10  O1  UNL     1      -8.694  18.159  20.831  1.00  0.00    -0.283 OA
ENDBRANCH   8   9
BRANCH   8  11
HETATM   11  C18 UNL     1      -8.974  15.417  23.186  1.00  0.00     0.171 C 
BRANCH  11  12
HETATM   12  C19 UNL     1      -9.689  15.706  24.454  1.00  0.00    -0.040 A 
HETATM   13  C20 UNL     1      -9.188  15.162  25.635  1.00  0.00     0.009 A 
HETATM   14  C21 UNL     1      -9.822  15.419  26.831  1.00  0.00     0.009 A 
HETATM   15  C22 UNL     1     -10.958  16.210  26.905  1.00  0.00    -0.040 A 
HETATM   16  C30 UNL     1     -11.453  16.747  25.736  1.00  0.00     0.009 A 
HETATM   17  C31 UNL     1     -10.800  16.480  24.519  1.00  0.00     0.009 A 
BRANCH  15  18
HETATM   18  C23 UNL     1     -11.615  16.473  28.217  1.00  0.00     0.166 C 
BRANCH  18  19
HETATM   19  N9  UNL     1     -12.214  15.232  28.714  1.00  0.00    -0.361 N 
HETATM   20  C24 UNL     1     -12.579  14.295  27.817  1.00  0.00     0.090 A 
HETATM   21  C25 UNL     1     -13.152  13.115  28.243  1.00  0.00     0.018 A 
HETATM   22  C26 UNL     1     -13.361  12.877  29.596  1.00  0.00     0.017 A 
HETATM   23  C27 UNL     1     -12.979  13.853  30.507  1.00  0.00     0.020 A 
HETATM   24  C29 UNL     1     -12.412  15.013  30.030  1.00  0.00     0.105 A 
BRANCH  23  25
HETATM   25  C28 UNL     1     -13.201  13.608  31.931  1.00  0.00     0.121 C 
HETATM   26  N10 UNL     1     -12.263  13.653  32.792  1.00  0.00    -0.387 N 
ATOM     27 2H10 UNL     1     -11.320  13.870  32.468  1.00  0.00     0.157 HD
ATOM     28 1H10 UNL     1     -12.417  13.482  33.785  1.00  0.00     0.157 HD
HETATM   29  N11 UNL     1     -14.508  13.307  32.380  1.00  0.00    -0.082 NA
ENDBRANCH  23  25
ENDBRANCH  18  19
ENDBRANCH  15  18
ENDBRANCH  11  12
ENDBRANCH   8  11
ENDBRANCH   5   8
BRANCH   3  30
HETATM   30  C8  UNL     1      -6.779  19.122  26.463  1.00  0.00     0.046 C 
BRANCH  30  31
HETATM   31  C9  UNL     1      -8.146  18.773  27.022  1.00  0.00     0.063 C 
BRANCH  31  32
HETATM   32  C10 UNL     1      -8.056  18.129  28.352  1.00  0.00     0.026 A 
HETATM   33  C11 UNL     1      -7.069  17.236  28.714  1.00  0.00     0.030 A 
HETATM   34  C12 UNL     1      -7.037  16.684  29.989  1.00  0.00     0.052 A 
HETATM   35  C13 UNL     1      -7.998  17.024  30.907  1.00  0.00     0.122 A 
HETATM   36  N6  UNL     1      -8.950  17.900  30.518  1.00  0.00    -0.285 N 
HETATM   37  N7  UNL     1      -8.978  18.423  29.308  1.00  0.00    -0.303 N 
ATOM     38  H6  UNL     1      -9.674  18.167  31.186  1.00  0.00     0.188 HD
ATOM     39  H7  UNL     1      -9.725  19.078  29.078  1.00  0.00     0.186 HD
BRANCH  35  40
HETATM   40  N3  UNL     1      -8.002  16.525  32.117  1.00  0.00    -0.316 N 
HETATM   41  C14 UNL     1      -9.009  15.628  32.504  1.00  0.00     0.187 C 
HETATM   42  N4  UNL     1      -8.810  14.369  32.485  1.00  0.00    -0.373 N 
HETATM   43  N5  UNL     1     -10.270  16.126  32.914  1.00  0.00    -0.064 NA
ATOM     44  H42 UNL     1      -7.902  14.011  32.190  1.00  0.00     0.158 HD
ATOM     45  H41 UNL     1      -9.542  13.716  32.767  1.00  0.00     0.158 HD
ATOM     46  H3  UNL     1      -7.273  16.788  32.780  1.00  0.00     0.170 HD
ENDBRANCH  35  40
ENDBRANCH  31  32
ENDBRANCH  30  31
ENDBRANCH   3  30
BRANCH   1  47
HETATM   47  C5  UNL     1      -3.924  18.230  22.551  1.00  0.00     0.176 C 
BRANCH  47  48
HETATM   48  C4  UNL     1      -4.081  18.069  21.056  1.00  0.00     0.257 C 
BRANCH  48  49
HETATM   49  N1  UNL     1      -3.018  17.265  20.489  1.00  0.00    -0.077 N 
HETATM   50  C1  UNL     1      -3.564  16.338  19.495  1.00  0.00     0.271 C 
HETATM   51  C2  UNL     1      -2.359  16.462  21.511  1.00  0.00     0.271 C 
HETATM   52  C3  UNL     1      -2.007  18.042  19.836  1.00  0.00     0.271 C 
ENDBRANCH  48  49
ENDBRANCH  47  48
ENDBRANCH   1  47
TORSDOF 14
ENDMDL
MODEL 4
REMARK VINA RESULT: -9.310379424      2.626      5.013
REMARK  14 active torsions:
REMARK  status: ('A' for Active; 'I' for Inactive)
REMARK    1  A    between atoms: N1_2  and  C4_5 
REMARK    2  A    between atoms: C4_5  and  C5_6 
REMARK    3  A    between atoms: C5_6  and  N2_7 
REMARK    4  A    between atoms: C7_9  and  C8_10 
REMARK    5  A    between atoms: C8_10  and  C9_11 
REMARK    6  A    between atoms: C9_11  and  C10_12 
REMARK    7  A    between atoms: C13_15  and  N3_16 
REMARK       I    between atoms: N3_16  and  C14_18 
REMARK    8  A    between atoms: C16_28  and  N8_29 
REMARK    9  A    between atoms: N8_29  and  C17_30 
REMARK   10  A    between atoms: N8_29  and  C18_32 
REMARK   11  A    between atoms: C18_32  and  C19_33 
REMARK   12  A    between atoms: C22_36  and  C23_37 
REMARK   13  A    between atoms: C23_37  and  N9_38 
REMARK   14  A    between atoms: C27_42  and  C28_43 
ROOT
HETATM    1  N2  UNL     1      -6.673  17.168  28.138  1.00  0.00    -0.300 N 
HETATM    2  C6  UNL     1      -6.523  17.205  29.482  1.00  0.00     0.117 A 
HETATM    3  C7  UNL     1      -7.565  17.370  30.342  1.00  0.00    -0.037 A 
HETATM    4  C15 UNL     1      -8.841  17.506  29.823  1.00  0.00     0.058 A 
HETATM    5  C16 UNL     1      -8.991  17.467  28.459  1.00  0.00     0.125 A 
HETATM    6  N12 UNL     1      -7.904  17.300  27.682  1.00  0.00    -0.283 N 
ATOM      7  H12 UNL     1      -8.041  17.276  26.672  1.00  0.00     0.188 HD
ENDROOT
BRANCH   5   8
HETATM    8  N8  UNL     1     -10.290  17.579  27.885  1.00  0.00    -0.306 N 
BRANCH   8   9
HETATM    9  C17 UNL     1     -10.488  17.955  26.549  1.00  0.00     0.357 C 
HETATM   10  O1  UNL     1      -9.899  18.952  26.038  1.00  0.00    -0.283 OA
ENDBRANCH   8   9
BRANCH   8  11
HETATM   11  C18 UNL     1     -11.439  17.320  28.725  1.00  0.00     0.171 C 
BRANCH  11  12
HETATM   12  C19 UNL     1     -11.832  15.889  28.731  1.00  0.00    -0.040 A 
HETATM   13  C20 UNL     1     -11.224  15.039  29.653  1.00  0.00     0.009 A 
HETATM   14  C21 UNL     1     -11.573  13.707  29.691  1.00  0.00     0.009 A 
HETATM   15  C22 UNL     1     -12.521  13.171  28.834  1.00  0.00    -0.040 A 
HETATM   16  C30 UNL     1     -13.121  14.012  27.921  1.00  0.00     0.009 A 
HETATM   17  C31 UNL     1     -12.759  15.371  27.888  1.00  0.00     0.009 A 
BRANCH  15  18
HETATM   18  C23 UNL     1     -12.880  11.727  28.907  1.00  0.00     0.166 C 
BRANCH  18  19
HETATM   19  N9  UNL     1     -13.502  11.449  30.205  1.00  0.00    -0.361 N 
HETATM   20  C24 UNL     1     -14.597  12.153  30.552  1.00  0.00     0.090 A 
HETATM   21  C25 UNL     1     -15.210  11.928  31.767  1.00  0.00     0.018 A 
HETATM   22  C26 UNL     1     -14.709  10.974  32.646  1.00  0.00     0.017 A 
HETATM   23  C27 UNL     1     -13.580  10.258  32.272  1.00  0.00     0.020 A 
HETATM   24  C29 UNL     1     -13.006  10.522  31.050  1.00  0.00     0.105 A 
BRANCH  23  25
HETATM   25  C28 UNL     1     -13.048   9.258  33.196  1.00  0.00     0.121 C 
HETATM   26  N10 UNL     1     -12.934   9.467  34.448  1.00  0.00    -0.387 N 
ATOM     27 2H10 UNL     1     -13.231  10.372  34.814  1.00  0.00     0.157 HD
ATOM     28 1H10 UNL     1     -12.563   8.770  35.093  1.00  0.00     0.157 HD
HETATM   29  N11 UNL     1     -12.636   8.003  32.687  1.00  0.00    -0.082 NA
ENDBRANCH  23  25
ENDBRANCH  18  19
ENDBRANCH  15  18
ENDBRANCH  11  12
ENDBRANCH   8  11
ENDBRANCH   5   8
BRANCH   3  30
HETATM   30  C8  UNL     1      -7.310  17.380  31.811  1.00  0.00     0.046 C 
BRANCH  30  31
HETATM   31  C9  UNL     1      -7.463  15.978  32.373  1.00  0.00     0.063 C 
BRANCH  31  32
HETATM   32  C10 UNL     1      -8.796  15.764  32.980  1.00  0.00     0.026 A 
HETATM   33  C11 UNL     1      -9.436  16.681  33.787  1.00  0.00     0.030 A 
HETATM   34  C12 UNL     1     -10.697  16.419  34.308  1.00  0.00     0.052 A 
HETATM   35  C13 UNL     1     -11.323  15.232  34.022  1.00  0.00     0.122 A 
HETATM   36  N6  UNL     1     -10.667  14.356  33.230  1.00  0.00    -0.285 N 
HETATM   37  N7  UNL     1      -9.470  14.608  32.736  1.00  0.00    -0.303 N 
ATOM     38  H6  UNL     1     -11.115  13.467  33.004  1.00  0.00     0.188 HD
ATOM     39  H7  UNL     1      -9.029  13.903  32.145  1.00  0.00     0.186 HD
BRANCH  35  40
HETATM   40  N3  UNL     1     -12.510  14.947  34.494  1.00  0.00    -0.316 N 
HETATM   41  C14 UNL     1     -12.655  13.975  35.494  1.00  0.00     0.187 C 
HETATM   42  N4  UNL     1     -12.756  14.305  36.722  1.00  0.00    -0.373 N 
HETATM   43  N5  UNL     1     -12.681  12.604  35.139  1.00  0.00    -0.064 NA
ATOM     44  H42 UNL     1     -12.737  15.292  36.977  1.00  0.00     0.158 HD
ATOM     45  H41 UNL     1     -12.862  13.598  37.450  1.00  0.00     0.158 HD
ATOM     46  H3  UNL     1     -13.332  15.434  34.133  1.00  0.00     0.170 HD
ENDBRANCH  35  40
ENDBRANCH  31  32
ENDBRANCH  30  31
ENDBRANCH   3  30
BRANCH   1  47
HETATM   47  C5  UNL     1      -5.567  17.001  27.222  1.00  0.00     0.176 C 
BRANCH  47  48
HETATM   48  C4  UNL     1      -5.913  17.492  25.834  1.00  0.00     0.257 C 
BRANCH  48  49
HETATM   49  N1  UNL     1      -5.002  18.527  25.390  1.00  0.00    -0.077 N 
HETATM   50  C1  UNL     1      -5.290  19.783  26.086  1.00  0.00     0.271 C 
HETATM   51  C2  UNL     1      -5.145  18.782  23.963  1.00  0.00     0.271 C 
HETATM   52  C3  UNL     1      -3.625  18.212  25.634  1.00  0.00     0.271 C 
ENDBRANCH  48  49
ENDBRANCH  47  48
ENDBRANCH   1  47
TORSDOF 14
ENDMDL
MODEL 5
REMARK VINA RESULT: -9.226816685      3.065      9.829
REMARK  14 active torsions:
REMARK  status: ('A' for Active; 'I' for Inactive)
REMARK    1  A    between atoms: N1_2  and  C4_5 
REMARK    2  A    between atoms: C4_5  and  C5_6 
REMARK    3  A    between atoms: C5_6  and  N2_7 
REMARK    4  A    between atoms: C7_9  and  C8_10 
REMARK    5  A    between atoms: C8_10  and  C9_11 
REMARK    6  A    between atoms: C9_11  and  C10_12 
REMARK    7  A    between atoms: C13_15  and  N3_16 
REMARK       I    between atoms: N3_16  and  C14_18 
REMARK    8  A    between atoms: C16_28  and  N8_29 
REMARK    9  A    between atoms: N8_29  and  C17_30 
REMARK   10  A    between atoms: N8_29  and  C18_32 
REMARK   11  A    between atoms: C18_32  and  C19_33 
REMARK   12  A    between atoms: C22_36  and  C23_37 
REMARK   13  A    between atoms: C23_37  and  N9_38 
REMARK   14  A    between atoms: C27_42  and  C28_43 
ROOT
HETATM    1  N2  UNL     1     -11.696  14.674  33.988  1.00  0.00    -0.300 N 
HETATM    2  C6  UNL     1     -10.713  15.549  33.680  1.00  0.00     0.117 A 
HETATM    3  C7  UNL     1     -10.345  15.835  32.401  1.00  0.00    -0.037 A 
HETATM    4  C15 UNL     1     -11.005  15.203  31.362  1.00  0.00     0.058 A 
HETATM    5  C16 UNL     1     -12.004  14.316  31.676  1.00  0.00     0.125 A 
HETATM    6  N12 UNL     1     -12.303  14.092  32.970  1.00  0.00    -0.283 N 
ATOM      7  H12 UNL     1     -13.048  13.428  33.178  1.00  0.00     0.188 HD
ENDROOT
BRANCH   5   8
HETATM    8  N8  UNL     1     -12.724  13.662  30.636  1.00  0.00    -0.306 N 
BRANCH   8   9
HETATM    9  C17 UNL     1     -14.119  13.522  30.665  1.00  0.00     0.357 C 
HETATM   10  O1  UNL     1     -14.750  13.307  31.741  1.00  0.00    -0.283 OA
ENDBRANCH   8   9
BRANCH   8  11
HETATM   11  C18 UNL     1     -11.980  13.103  29.529  1.00  0.00     0.171 C 
BRANCH  11  12
HETATM   12  C19 UNL     1     -11.580  14.129  28.533  1.00  0.00    -0.040 A 
HETATM   13  C20 UNL     1     -12.577  14.897  27.936  1.00  0.00     0.009 A 
HETATM   14  C21 UNL     1     -12.238  15.864  27.016  1.00  0.00     0.009 A 
HETATM   15  C22 UNL     1     -10.921  16.107  26.655  1.00  0.00    -0.040 A 
HETATM   16  C30 UNL     1      -9.935  15.345  27.247  1.00  0.00     0.009 A 
HETATM   17  C31 UNL     1     -10.289  14.359  28.185  1.00  0.00     0.009 A 
BRANCH  15  18
HETATM   18  C23 UNL     1     -10.589  17.166  25.662  1.00  0.00     0.166 C 
BRANCH  18  19
HETATM   19  N9  UNL     1      -9.969  16.549  24.486  1.00  0.00    -0.361 N 
HETATM   20  C24 UNL     1     -10.372  15.314  24.126  1.00  0.00     0.090 A 
HETATM   21  C25 UNL     1      -9.810  14.694  23.030  1.00  0.00     0.018 A 
HETATM   22  C26 UNL     1      -8.825  15.331  22.284  1.00  0.00     0.017 A 
HETATM   23  C27 UNL     1      -8.421  16.603  22.669  1.00  0.00     0.020 A 
HETATM   24  C29 UNL     1      -9.013  17.176  23.771  1.00  0.00     0.105 A 
BRANCH  23  25
HETATM   25  C28 UNL     1      -7.382  17.274  21.891  1.00  0.00     0.121 C 
HETATM   26  N10 UNL     1      -6.591  16.647  21.113  1.00  0.00    -0.387 N 
ATOM     27 2H10 UNL     1      -6.693  15.635  21.034  1.00  0.00     0.157 HD
ATOM     28 1H10 UNL     1      -5.866  17.115  20.570  1.00  0.00     0.157 HD
HETATM   29  N11 UNL     1      -7.241  18.677  22.000  1.00  0.00    -0.082 NA
ENDBRANCH  23  25
ENDBRANCH  18  19
ENDBRANCH  15  18
ENDBRANCH  11  12
ENDBRANCH   8  11
ENDBRANCH   5   8
BRANCH   3  30
HETATM   30  C8  UNL     1      -9.260  16.829  32.154  1.00  0.00     0.046 C 
BRANCH  30  31
HETATM   31  C9  UNL     1      -8.143  16.187  31.351  1.00  0.00     0.063 C 
BRANCH  31  32
HETATM   32  C10 UNL     1      -7.914  16.880  30.063  1.00  0.00     0.026 A 
HETATM   33  C11 UNL     1      -6.881  16.584  29.198  1.00  0.00     0.030 A 
HETATM   34  C12 UNL     1      -6.739  17.265  27.995  1.00  0.00     0.052 A 
HETATM   35  C13 UNL     1      -7.632  18.250  27.655  1.00  0.00     0.122 A 
HETATM   36  N6  UNL     1      -8.630  18.514  28.527  1.00  0.00    -0.285 N 
HETATM   37  N7  UNL     1      -8.763  17.865  29.667  1.00  0.00    -0.303 N 
ATOM     38  H6  UNL     1      -9.306  19.242  28.293  1.00  0.00     0.188 HD
ATOM     39  H7  UNL     1      -9.539  18.114  30.281  1.00  0.00     0.186 HD
BRANCH  35  40
HETATM   40  N3  UNL     1      -7.531  18.914  26.532  1.00  0.00    -0.316 N 
HETATM   41  C14 UNL     1      -6.276  19.097  25.933  1.00  0.00     0.187 C 
HETATM   42  N4  UNL     1      -5.886  18.342  24.983  1.00  0.00    -0.373 N 
HETATM   43  N5  UNL     1      -5.424  20.130  26.395  1.00  0.00    -0.064 NA
ATOM     44  H42 UNL     1      -6.500  17.599  24.650  1.00  0.00     0.158 HD
ATOM     45  H41 UNL     1      -4.973  18.475  24.546  1.00  0.00     0.158 HD
ATOM     46  H3  UNL     1      -8.367  19.300  26.092  1.00  0.00     0.170 HD
ENDBRANCH  35  40
ENDBRANCH  31  32
ENDBRANCH  30  31
ENDBRANCH   3  30
BRANCH   1  47
HETATM   47  C5  UNL     1     -12.085  14.363  35.346  1.00  0.00     0.176 C 
BRANCH  47  48
HETATM   48  C4  UNL     1     -12.464  12.907  35.498  1.00  0.00     0.257 C 
BRANCH  48  49
HETATM   49  N1  UNL     1     -13.065  12.643  36.789  1.00  0.00    -0.077 N 
HETATM   50  C1  UNL     1     -12.023  12.490  37.807  1.00  0.00     0.271 C 
HETATM   51  C2  UNL     1     -13.836  11.407  36.772  1.00  0.00     0.271 C 
HETATM   52  C3  UNL     1     -13.940  13.688  37.231  1.00  0.00     0.271 C 
ENDBRANCH  48  49
ENDBRANCH  47  48
ENDBRANCH   1  47
TORSDOF 14
ENDMDL
