MODEL 1
REMARK VINA RESULT: -9.447261352      0.000      0.000
REMARK  5 active torsions:
REMARK  status: ('A' for Active; 'I' for Inactive)
REMARK    1  A    between atoms: C3_3  and  C4_4 
REMARK    2  A    between atoms: C13_15  and  C14_16 
REMARK       I    between atoms: C14_16  and  N2_18 
REMARK    3  A    between atoms: N2_18  and  N3_19 
REMARK    4  A    between atoms: C15_21  and  C16_22 
REMARK    5  A    between atoms: C26_34  and  O2_35 
ROOT
HETATM    1  C4  UNL     1       2.828  -1.441 -22.696  1.00  0.00    -0.023 A 
HETATM    2  C5  UNL     1       4.012  -1.183 -21.990  1.00  0.00     0.012 A 
HETATM    3  C6  UNL     1       3.999  -0.276 -20.979  1.00  0.00     0.002 A 
HETATM    4  C7  UNL     1       2.814   0.405 -20.632  1.00  0.00     0.012 A 
HETATM    5  C8  UNL     1       1.648   0.185 -21.292  1.00  0.00    -0.024 A 
HETATM    6  C9  UNL     1       0.344   0.745 -21.027  1.00  0.00    -0.006 A 
HETATM    7  C10 UNL     1      -0.622  -0.233 -20.579  1.00  0.00     0.030 A 
HETATM    8  C11 UNL     1      -1.855   0.207 -20.267  1.00  0.00     0.088 A 
HETATM    9  N1  UNL     1      -2.226   1.490 -20.348  1.00  0.00    -0.374 N 
ATOM     10  H1  UNL     1      -3.175   1.767 -20.098  1.00  0.00     0.164 HD
HETATM   11  C12 UNL     1      -1.315   2.433 -20.772  1.00  0.00     0.106 A 
HETATM   12  C13 UNL     1      -0.010   2.015 -21.117  1.00  0.00     0.075 A 
HETATM   13  C29 UNL     1       1.684  -0.765 -22.346  1.00  0.00     0.024 A 
ENDROOT
BRANCH  12  14
HETATM   14  C14 UNL     1       0.877   3.105 -21.653  1.00  0.00     0.348 C 
HETATM   15  O1  UNL     1       1.100   4.067 -20.823  1.00  0.00    -0.249 OA
HETATM   16  N2  UNL     1       1.366   3.077 -22.846  1.00  0.00    -0.282 NA
BRANCH  16  17
HETATM   17  N3  UNL     1       1.906   3.053 -24.153  1.00  0.00    -0.242 N 
HETATM   18  C15 UNL     1       2.512   1.996 -24.554  1.00  0.00     0.134 C 
ATOM     19  H3  UNL     1       1.814   3.863 -24.767  1.00  0.00     0.201 HD
BRANCH  18  20
HETATM   20  C16 UNL     1       3.151   1.653 -25.793  1.00  0.00     0.007 A 
HETATM   21  C17 UNL     1       4.382   0.949 -25.786  1.00  0.00     0.003 A 
HETATM   22  C18 UNL     1       5.023   0.673 -24.613  1.00  0.00     0.014 A 
HETATM   23  C22 UNL     1       4.964   0.537 -26.969  1.00  0.00     0.043 A 
HETATM   24  C19 UNL     1       6.248  -0.016 -24.551  1.00  0.00     0.001 A 
HETATM   25  C20 UNL     1       6.818  -0.425 -25.708  1.00  0.00     0.002 A 
HETATM   26  C21 UNL     1       6.177  -0.146 -26.909  1.00  0.00     0.030 A 
HETATM   27  N4  UNL     1       4.367   0.804 -28.112  1.00  0.00    -0.355 N 
HETATM   28  C23 UNL     1       3.208   1.465 -28.218  1.00  0.00     0.044 A 
ATOM     29  H4  UNL     1       4.816   0.486 -28.971  1.00  0.00     0.166 HD
HETATM   30  C24 UNL     1       2.617   1.700 -29.451  1.00  0.00     0.033 A 
HETATM   31  C28 UNL     1       2.582   1.902 -27.052  1.00  0.00     0.006 A 
HETATM   32  C25 UNL     1       1.416   2.359 -29.563  1.00  0.00     0.039 A 
HETATM   33  C26 UNL     1       0.782   2.799 -28.436  1.00  0.00     0.066 A 
HETATM   34  C27 UNL     1       1.384   2.559 -27.190  1.00  0.00     0.051 A 
BRANCH  33  35
HETATM   35  O2  UNL     1      -0.438   3.473 -28.453  1.00  0.00    -0.361 OA
ATOM     36  H2  UNL     1      -0.978   3.599 -27.681  1.00  0.00     0.217 HD
ENDBRANCH  33  35
ENDBRANCH  18  20
ENDBRANCH  16  17
ENDBRANCH  12  14
BRANCH   1  37
HETATM   37  C3  UNL     1       2.814  -2.476 -23.704  1.00  0.00    -0.003 A 
HETATM   38  C2  UNL     1       2.075  -3.640 -23.395  1.00  0.00     0.018 A 
HETATM   39  C1  UNL     1       1.400  -3.655 -22.088  1.00  0.00     0.069 C 
HETATM   40  N5  UNL     1       1.993  -4.677 -24.247  1.00  0.00    -0.354 N 
HETATM   41  C36 UNL     1       2.638  -4.594 -25.421  1.00  0.00     0.044 A 
HETATM   42  C37 UNL     1       1.229  -5.858 -23.899  1.00  0.00     0.156 C 
HETATM   43  C31 UNL     1       3.383  -3.495 -25.801  1.00  0.00    -0.008 A 
HETATM   44  C35 UNL     1       2.591  -5.646 -26.332  1.00  0.00     0.030 A 
HETATM   45  C30 UNL     1       3.460  -2.426 -24.911  1.00  0.00     0.028 A 
HETATM   46  C32 UNL     1       4.046  -3.391 -26.982  1.00  0.00     0.014 A 
HETATM   47  C33 UNL     1       3.989  -4.457 -27.885  1.00  0.00     0.001 A 
HETATM   48  C34 UNL     1       3.267  -5.577 -27.562  1.00  0.00     0.002 A 
ENDBRANCH   1  37
TORSDOF 5
ENDMDL
MODEL 2
REMARK VINA RESULT: -9.146095142      6.996     10.198
REMARK  5 active torsions:
REMARK  status: ('A' for Active; 'I' for Inactive)
REMARK    1  A    between atoms: C3_3  and  C4_4 
REMARK    2  A    between atoms: C13_15  and  C14_16 
REMARK       I    between atoms: C14_16  and  N2_18 
REMARK    3  A    between atoms: N2_18  and  N3_19 
REMARK    4  A    between atoms: C15_21  and  C16_22 
REMARK    5  A    between atoms: C26_34  and  O2_35 
ROOT
HETATM    1  C4  UNL     1      -5.247   6.062 -21.070  1.00  0.00    -0.023 A 
HETATM    2  C5  UNL     1      -4.954   7.160 -20.246  1.00  0.00     0.012 A 
HETATM    3  C6  UNL     1      -5.574   8.347 -20.478  1.00  0.00     0.002 A 
HETATM    4  C7  UNL     1      -6.502   8.487 -21.530  1.00  0.00     0.012 A 
HETATM    5  C8  UNL     1      -6.809   7.449 -22.350  1.00  0.00    -0.024 A 
HETATM    6  C9  UNL     1      -7.773   7.405 -23.424  1.00  0.00    -0.006 A 
HETATM    7  C10 UNL     1      -8.886   6.521 -23.162  1.00  0.00     0.030 A 
HETATM    8  C11 UNL     1      -9.857   6.450 -24.092  1.00  0.00     0.088 A 
HETATM    9  N1  UNL     1      -9.844   7.150 -25.232  1.00  0.00    -0.374 N 
ATOM     10  H1  UNL     1     -10.608   7.057 -25.901  1.00  0.00     0.164 HD
HETATM   11  C12 UNL     1      -8.790   7.997 -25.494  1.00  0.00     0.106 A 
HETATM   12  C13 UNL     1      -7.745   8.099 -24.548  1.00  0.00     0.075 A 
HETATM   13  C29 UNL     1      -6.151   6.218 -22.092  1.00  0.00     0.024 A 
ENDROOT
BRANCH  12  14
HETATM   14  C14 UNL     1      -6.600   8.980 -24.970  1.00  0.00     0.348 C 
HETATM   15  O1  UNL     1      -6.796  10.239 -24.773  1.00  0.00    -0.249 OA
HETATM   16  N2  UNL     1      -5.518   8.509 -25.491  1.00  0.00    -0.282 NA
BRANCH  16  17
HETATM   17  N3  UNL     1      -4.329   8.000 -26.061  1.00  0.00    -0.242 N 
HETATM   18  C15 UNL     1      -3.991   8.385 -27.237  1.00  0.00     0.134 C 
ATOM     19  H3  UNL     1      -3.749   7.337 -25.546  1.00  0.00     0.201 HD
BRANCH  18  20
HETATM   20  C16 UNL     1      -2.869   8.072 -28.078  1.00  0.00     0.007 A 
HETATM   21  C17 UNL     1      -1.558   8.430 -27.674  1.00  0.00     0.003 A 
HETATM   22  C18 UNL     1      -1.350   9.157 -26.537  1.00  0.00     0.014 A 
HETATM   23  C22 UNL     1      -0.463   8.060 -28.430  1.00  0.00     0.043 A 
HETATM   24  C19 UNL     1      -0.072   9.543 -26.096  1.00  0.00     0.001 A 
HETATM   25  C20 UNL     1       1.004   9.177 -26.832  1.00  0.00     0.002 A 
HETATM   26  C21 UNL     1       0.804   8.440 -27.993  1.00  0.00     0.030 A 
HETATM   27  N4  UNL     1      -0.643   7.368 -29.536  1.00  0.00    -0.355 N 
HETATM   28  C23 UNL     1      -1.841   6.989 -29.998  1.00  0.00     0.044 A 
ATOM     29  H4  UNL     1       0.182   7.104 -30.074  1.00  0.00     0.166 HD
HETATM   30  C24 UNL     1      -1.967   6.244 -31.162  1.00  0.00     0.033 A 
HETATM   31  C28 UNL     1      -2.976   7.340 -29.271  1.00  0.00     0.006 A 
HETATM   32  C25 UNL     1      -3.193   5.834 -31.629  1.00  0.00     0.039 A 
HETATM   33  C26 UNL     1      -4.322   6.165 -30.935  1.00  0.00     0.066 A 
HETATM   34  C27 UNL     1      -4.190   6.919 -29.758  1.00  0.00     0.051 A 
BRANCH  33  35
HETATM   35  O2  UNL     1      -5.605   5.792 -31.330  1.00  0.00    -0.361 OA
ATOM     36  H2  UNL     1      -6.369   6.347 -31.224  1.00  0.00     0.217 HD
ENDBRANCH  33  35
ENDBRANCH  18  20
ENDBRANCH  16  17
ENDBRANCH  12  14
BRANCH   1  37
HETATM   37  C3  UNL     1      -4.668   4.774 -20.765  1.00  0.00    -0.003 A 
HETATM   38  C2  UNL     1      -5.413   3.942 -19.901  1.00  0.00     0.018 A 
HETATM   39  C1  UNL     1      -6.695   4.481 -19.422  1.00  0.00     0.069 C 
HETATM   40  N5  UNL     1      -4.977   2.723 -19.535  1.00  0.00    -0.354 N 
HETATM   41  C36 UNL     1      -3.796   2.297 -20.010  1.00  0.00     0.044 A 
HETATM   42  C37 UNL     1      -5.764   1.895 -18.645  1.00  0.00     0.156 C 
HETATM   43  C31 UNL     1      -3.004   3.046 -20.857  1.00  0.00    -0.008 A 
HETATM   44  C35 UNL     1      -3.297   1.047 -19.652  1.00  0.00     0.030 A 
HETATM   45  C30 UNL     1      -3.467   4.306 -21.229  1.00  0.00     0.028 A 
HETATM   46  C32 UNL     1      -1.805   2.637 -21.346  1.00  0.00     0.014 A 
HETATM   47  C33 UNL     1      -1.318   1.379 -20.975  1.00  0.00     0.001 A 
HETATM   48  C34 UNL     1      -2.059   0.590 -20.135  1.00  0.00     0.002 A 
ENDBRANCH   1  37
TORSDOF 5
ENDMDL
MODEL 3
REMARK VINA RESULT: -8.986113054      6.954     10.504
REMARK  5 active torsions:
REMARK  status: ('A' for Active; 'I' for Inactive)
REMARK    1  A    between atoms: C3_3  and  C4_4 
REMARK    2  A    between atoms: C13_15  and  C14_16 
REMARK       I    between atoms: C14_16  and  N2_18 
REMARK    3  A    between atoms: N2_18  and  N3_19 
REMARK    4  A    between atoms: C15_21  and  C16_22 
REMARK    5  A    between atoms: C26_34  and  O2_35 
ROOT
HETATM    1  C4  UNL     1      -5.229   6.114 -21.128  1.00  0.00    -0.023 A 
HETATM    2  C5  UNL     1      -4.925   7.215 -20.314  1.00  0.00     0.012 A 
HETATM    3  C6  UNL     1      -5.532   8.407 -20.555  1.00  0.00     0.002 A 
HETATM    4  C7  UNL     1      -6.459   8.548 -21.608  1.00  0.00     0.012 A 
HETATM    5  C8  UNL     1      -6.777   7.507 -22.420  1.00  0.00    -0.024 A 
HETATM    6  C9  UNL     1      -7.741   7.464 -23.493  1.00  0.00    -0.006 A 
HETATM    7  C10 UNL     1      -8.863   6.594 -23.224  1.00  0.00     0.030 A 
HETATM    8  C11 UNL     1      -9.835   6.525 -24.154  1.00  0.00     0.088 A 
HETATM    9  N1  UNL     1      -9.815   7.216 -25.299  1.00  0.00    -0.374 N 
ATOM     10  H1  UNL     1     -10.579   7.126 -25.968  1.00  0.00     0.164 HD
HETATM   11  C12 UNL     1      -8.751   8.050 -25.568  1.00  0.00     0.106 A 
HETATM   12  C13 UNL     1      -7.705   8.149 -24.623  1.00  0.00     0.075 A 
HETATM   13  C29 UNL     1      -6.131   6.271 -22.152  1.00  0.00     0.024 A 
ENDROOT
BRANCH  12  14
HETATM   14  C14 UNL     1      -6.552   9.015 -25.051  1.00  0.00     0.348 C 
HETATM   15  O1  UNL     1      -6.725  10.275 -24.842  1.00  0.00    -0.249 OA
HETATM   16  N2  UNL     1      -5.484   8.531 -25.589  1.00  0.00    -0.282 NA
BRANCH  16  17
HETATM   17  N3  UNL     1      -4.310   8.007 -26.178  1.00  0.00    -0.242 N 
HETATM   18  C15 UNL     1      -4.066   8.267 -27.411  1.00  0.00     0.134 C 
ATOM     19  H3  UNL     1      -3.668   7.432 -25.632  1.00  0.00     0.201 HD
BRANCH  18  20
HETATM   20  C16 UNL     1      -2.986   7.903 -28.285  1.00  0.00     0.007 A 
HETATM   21  C17 UNL     1      -3.261   7.309 -29.543  1.00  0.00     0.003 A 
HETATM   22  C18 UNL     1      -4.538   6.986 -29.900  1.00  0.00     0.014 A 
HETATM   23  C22 UNL     1      -2.238   7.033 -30.429  1.00  0.00     0.043 A 
HETATM   24  C19 UNL     1      -4.864   6.390 -31.132  1.00  0.00     0.001 A 
HETATM   25  C20 UNL     1      -3.865   6.124 -32.004  1.00  0.00     0.002 A 
HETATM   26  C21 UNL     1      -2.560   6.444 -31.650  1.00  0.00     0.030 A 
HETATM   27  N4  UNL     1      -0.998   7.326 -30.099  1.00  0.00    -0.355 N 
HETATM   28  C23 UNL     1      -0.642   7.884 -28.935  1.00  0.00     0.044 A 
ATOM     29  H4  UNL     1      -0.262   7.116 -30.773  1.00  0.00     0.166 HD
HETATM   30  C24 UNL     1       0.682   8.187 -28.650  1.00  0.00     0.033 A 
HETATM   31  C28 UNL     1      -1.638   8.180 -28.007  1.00  0.00     0.006 A 
HETATM   32  C25 UNL     1       1.049   8.779 -27.466  1.00  0.00     0.039 A 
HETATM   33  C26 UNL     1       0.092   9.079 -26.538  1.00  0.00     0.066 A 
HETATM   34  C27 UNL     1      -1.246   8.770 -26.830  1.00  0.00     0.051 A 
BRANCH  33  35
HETATM   35  O2  UNL     1       0.371   9.681 -25.312  1.00  0.00    -0.361 OA
ATOM     36  H2  UNL     1       0.231   9.254 -24.475  1.00  0.00     0.217 HD
ENDBRANCH  33  35
ENDBRANCH  18  20
ENDBRANCH  16  17
ENDBRANCH  12  14
BRANCH   1  37
HETATM   37  C3  UNL     1      -4.663   4.822 -20.814  1.00  0.00    -0.003 A 
HETATM   38  C2  UNL     1      -5.434   3.990 -19.973  1.00  0.00     0.018 A 
HETATM   39  C1  UNL     1      -6.726   4.533 -19.525  1.00  0.00     0.069 C 
HETATM   40  N5  UNL     1      -5.013   2.768 -19.600  1.00  0.00    -0.354 N 
HETATM   41  C36 UNL     1      -3.821   2.339 -20.045  1.00  0.00     0.044 A 
HETATM   42  C37 UNL     1      -5.826   1.940 -18.734  1.00  0.00     0.156 C 
HETATM   43  C31 UNL     1      -3.004   3.088 -20.869  1.00  0.00    -0.008 A 
HETATM   44  C35 UNL     1      -3.337   1.085 -19.679  1.00  0.00     0.030 A 
HETATM   45  C30 UNL     1      -3.452   4.352 -21.248  1.00  0.00     0.028 A 
HETATM   46  C32 UNL     1      -1.794   2.675 -21.327  1.00  0.00     0.014 A 
HETATM   47  C33 UNL     1      -1.322   1.414 -20.949  1.00  0.00     0.001 A 
HETATM   48  C34 UNL     1      -2.088   0.625 -20.131  1.00  0.00     0.002 A 
ENDBRANCH   1  37
TORSDOF 5
ENDMDL
MODEL 4
REMARK VINA RESULT: -8.972886448      1.026      1.956
REMARK  5 active torsions:
REMARK  status: ('A' for Active; 'I' for Inactive)
REMARK    1  A    between atoms: C3_3  and  C4_4 
REMARK    2  A    between atoms: C13_15  and  C14_16 
REMARK       I    between atoms: C14_16  and  N2_18 
REMARK    3  A    between atoms: N2_18  and  N3_19 
REMARK    4  A    between atoms: C15_21  and  C16_22 
REMARK    5  A    between atoms: C26_34  and  O2_35 
ROOT
HETATM    1  C4  UNL     1       2.722  -2.445 -23.091  1.00  0.00    -0.023 A 
HETATM    2  C5  UNL     1       4.034  -2.082 -22.753  1.00  0.00     0.012 A 
HETATM    3  C6  UNL     1       4.235  -1.071 -21.866  1.00  0.00     0.002 A 
HETATM    4  C7  UNL     1       3.147  -0.388 -21.286  1.00  0.00     0.012 A 
HETATM    5  C8  UNL     1       1.863  -0.709 -21.590  1.00  0.00    -0.024 A 
HETATM    6  C9  UNL     1       0.645  -0.158 -21.046  1.00  0.00    -0.006 A 
HETATM    7  C10 UNL     1      -0.118  -1.107 -20.266  1.00  0.00     0.030 A 
HETATM    8  C11 UNL     1      -1.249  -0.668 -19.683  1.00  0.00     0.088 A 
HETATM    9  N1  UNL     1      -1.697   0.589 -19.787  1.00  0.00    -0.374 N 
ATOM     10  H1  UNL     1      -2.561   0.866 -19.323  1.00  0.00     0.164 HD
HETATM   11  C12 UNL     1      -0.979   1.503 -20.526  1.00  0.00     0.106 A 
HETATM   12  C13 UNL     1       0.211   1.085 -21.161  1.00  0.00     0.075 A 
HETATM   13  C29 UNL     1       1.674  -1.766 -22.518  1.00  0.00     0.024 A 
ENDROOT
BRANCH  12  14
HETATM   14  C14 UNL     1       0.869   2.134 -22.016  1.00  0.00     0.348 C 
HETATM   15  O1  UNL     1       1.049   3.266 -21.426  1.00  0.00    -0.249 OA
HETATM   16  N2  UNL     1       1.216   1.915 -23.239  1.00  0.00    -0.282 NA
BRANCH  16  17
HETATM   17  N3  UNL     1       1.599   1.681 -24.580  1.00  0.00    -0.242 N 
HETATM   18  C15 UNL     1       2.848   1.605 -24.863  1.00  0.00     0.134 C 
ATOM     19  H3  UNL     1       0.894   1.574 -25.309  1.00  0.00     0.201 HD
BRANCH  18  20
HETATM   20  C16 UNL     1       3.553   1.376 -26.093  1.00  0.00     0.007 A 
HETATM   21  C17 UNL     1       4.868   0.846 -26.069  1.00  0.00     0.003 A 
HETATM   22  C18 UNL     1       5.517   0.637 -24.886  1.00  0.00     0.014 A 
HETATM   23  C22 UNL     1       5.525   0.540 -27.245  1.00  0.00     0.043 A 
HETATM   24  C19 UNL     1       6.822   0.120 -24.807  1.00  0.00     0.001 A 
HETATM   25  C20 UNL     1       7.467  -0.185 -25.957  1.00  0.00     0.002 A 
HETATM   26  C21 UNL     1       6.818   0.026 -27.167  1.00  0.00     0.030 A 
HETATM   27  N4  UNL     1       4.922   0.745 -28.397  1.00  0.00    -0.355 N 
HETATM   28  C23 UNL     1       3.686   1.245 -28.519  1.00  0.00     0.044 A 
ATOM     29  H4  UNL     1       5.428   0.507 -29.250  1.00  0.00     0.166 HD
HETATM   30  C24 UNL     1       3.094   1.421 -29.761  1.00  0.00     0.033 A 
HETATM   31  C28 UNL     1       2.982   1.570 -27.361  1.00  0.00     0.006 A 
HETATM   32  C25 UNL     1       1.817   1.913 -29.891  1.00  0.00     0.039 A 
HETATM   33  C26 UNL     1       1.106   2.241 -28.772  1.00  0.00     0.066 A 
HETATM   34  C27 UNL     1       1.709   2.061 -27.516  1.00  0.00     0.051 A 
BRANCH  33  35
HETATM   35  O2  UNL     1      -0.194   2.743 -28.805  1.00  0.00    -0.361 OA
ATOM     36  H2  UNL     1      -0.495   3.456 -28.254  1.00  0.00     0.217 HD
ENDBRANCH  33  35
ENDBRANCH  18  20
ENDBRANCH  16  17
ENDBRANCH  12  14
BRANCH   1  37
HETATM   37  C3  UNL     1       2.502  -3.583 -23.954  1.00  0.00    -0.003 A 
HETATM   38  C2  UNL     1       3.013  -3.479 -25.267  1.00  0.00     0.018 A 
HETATM   39  C1  UNL     1       3.717  -2.230 -25.596  1.00  0.00     0.069 C 
HETATM   40  N5  UNL     1       2.865  -4.467 -26.168  1.00  0.00    -0.354 N 
HETATM   41  C36 UNL     1       2.208  -5.578 -25.797  1.00  0.00     0.044 A 
HETATM   42  C37 UNL     1       3.398  -4.330 -27.508  1.00  0.00     0.156 C 
HETATM   43  C31 UNL     1       1.676  -5.760 -24.536  1.00  0.00    -0.008 A 
HETATM   44  C35 UNL     1       2.020  -6.624 -26.698  1.00  0.00     0.030 A 
HETATM   45  C30 UNL     1       1.837  -4.730 -23.612  1.00  0.00     0.028 A 
HETATM   46  C32 UNL     1       1.005  -6.873 -24.142  1.00  0.00     0.014 A 
HETATM   47  C33 UNL     1       0.825  -7.914 -25.059  1.00  0.00     0.001 A 
HETATM   48  C34 UNL     1       1.329  -7.790 -26.327  1.00  0.00     0.002 A 
ENDBRANCH   1  37
TORSDOF 5
ENDMDL
MODEL 5
REMARK VINA RESULT: -8.963871970      1.143      1.259
REMARK  5 active torsions:
REMARK  status: ('A' for Active; 'I' for Inactive)
REMARK    1  A    between atoms: C3_3  and  C4_4 
REMARK    2  A    between atoms: C13_15  and  C14_16 
REMARK       I    between atoms: C14_16  and  N2_18 
REMARK    3  A    between atoms: N2_18  and  N3_19 
REMARK    4  A    between atoms: C15_21  and  C16_22 
REMARK    5  A    between atoms: C26_34  and  O2_35 
ROOT
HETATM    1  C4  UNL     1       2.873  -1.520 -22.747  1.00  0.00    -0.023 A 
HETATM    2  C5  UNL     1       4.111  -1.116 -22.228  1.00  0.00     0.012 A 
HETATM    3  C6  UNL     1       4.143  -0.213 -21.213  1.00  0.00     0.002 A 
HETATM    4  C7  UNL     1       2.952   0.320 -20.679  1.00  0.00     0.012 A 
HETATM    5  C8  UNL     1       1.734  -0.043 -21.157  1.00  0.00    -0.024 A 
HETATM    6  C9  UNL     1       0.428   0.354 -20.687  1.00  0.00    -0.006 A 
HETATM    7  C10 UNL     1      -0.332  -0.732 -20.111  1.00  0.00     0.030 A 
HETATM    8  C11 UNL     1      -1.546  -0.444 -19.608  1.00  0.00     0.088 A 
HETATM    9  N1  UNL     1      -2.078   0.783 -19.612  1.00  0.00    -0.374 N 
ATOM     10  H1  UNL     1      -3.004   0.944 -19.216  1.00  0.00     0.164 HD
HETATM   11  C12 UNL     1      -1.364   1.828 -20.157  1.00  0.00     0.106 A 
HETATM   12  C13 UNL     1      -0.087   1.571 -20.703  1.00  0.00     0.075 A 
HETATM   13  C29 UNL     1       1.722  -0.987 -22.217  1.00  0.00     0.024 A 
ENDROOT
BRANCH  12  14
HETATM   14  C14 UNL     1       0.569   2.759 -21.353  1.00  0.00     0.348 C 
HETATM   15  O1  UNL     1       0.891   3.703 -20.536  1.00  0.00    -0.249 OA
HETATM   16  N2  UNL     1       0.783   2.824 -22.623  1.00  0.00    -0.282 NA
BRANCH  16  17
HETATM   17  N3  UNL     1       1.021   2.902 -24.015  1.00  0.00    -0.242 N 
HETATM   18  C15 UNL     1       2.224   2.790 -24.446  1.00  0.00     0.134 C 
ATOM     19  H3  UNL     1       0.248   3.045 -24.666  1.00  0.00     0.201 HD
BRANCH  18  20
HETATM   20  C16 UNL     1       2.790   2.816 -25.765  1.00  0.00     0.007 A 
HETATM   21  C17 UNL     1       3.811   1.897 -26.117  1.00  0.00     0.003 A 
HETATM   22  C18 UNL     1       4.336   1.045 -25.189  1.00  0.00     0.014 A 
HETATM   23  C22 UNL     1       4.305   1.853 -27.406  1.00  0.00     0.043 A 
HETATM   24  C19 UNL     1       5.353   0.119 -25.484  1.00  0.00     0.001 A 
HETATM   25  C20 UNL     1       5.836   0.071 -26.747  1.00  0.00     0.002 A 
HETATM   26  C21 UNL     1       5.312   0.936 -27.700  1.00  0.00     0.030 A 
HETATM   27  N4  UNL     1       3.820   2.675 -28.314  1.00  0.00    -0.355 N 
HETATM   28  C23 UNL     1       2.861   3.577 -28.075  1.00  0.00     0.044 A 
ATOM     29  H4  UNL     1       4.199   2.619 -29.259  1.00  0.00     0.166 HD
HETATM   30  C24 UNL     1       2.376   4.404 -29.078  1.00  0.00     0.033 A 
HETATM   31  C28 UNL     1       2.331   3.660 -26.789  1.00  0.00     0.006 A 
HETATM   32  C25 UNL     1       1.376   5.317 -28.842  1.00  0.00     0.039 A 
HETATM   33  C26 UNL     1       0.840   5.419 -27.589  1.00  0.00     0.066 A 
HETATM   34  C27 UNL     1       1.334   4.580 -26.577  1.00  0.00     0.051 A 
BRANCH  33  35
HETATM   35  O2  UNL     1      -0.177   6.313 -27.258  1.00  0.00    -0.361 OA
ATOM     36  H2  UNL     1      -1.100   6.093 -27.294  1.00  0.00     0.217 HD
ENDBRANCH  33  35
ENDBRANCH  18  20
ENDBRANCH  16  17
ENDBRANCH  12  14
BRANCH   1  37
HETATM   37  C3  UNL     1       2.830  -2.553 -23.756  1.00  0.00    -0.003 A 
HETATM   38  C2  UNL     1       2.099  -3.717 -23.428  1.00  0.00     0.018 A 
HETATM   39  C1  UNL     1       1.461  -3.734 -22.103  1.00  0.00     0.069 C 
HETATM   40  N5  UNL     1       1.992  -4.753 -24.279  1.00  0.00    -0.354 N 
HETATM   41  C36 UNL     1       2.604  -4.668 -25.471  1.00  0.00     0.044 A 
HETATM   42  C37 UNL     1       1.237  -5.934 -23.912  1.00  0.00     0.156 C 
HETATM   43  C31 UNL     1       3.338  -3.569 -25.871  1.00  0.00    -0.008 A 
HETATM   44  C35 UNL     1       2.530  -5.719 -26.382  1.00  0.00     0.030 A 
HETATM   45  C30 UNL     1       3.441  -2.502 -24.981  1.00  0.00     0.028 A 
HETATM   46  C32 UNL     1       3.968  -3.464 -27.069  1.00  0.00     0.014 A 
HETATM   47  C33 UNL     1       3.885  -4.529 -27.972  1.00  0.00     0.001 A 
HETATM   48  C34 UNL     1       3.172  -5.648 -27.631  1.00  0.00     0.002 A 
ENDBRANCH   1  37
TORSDOF 5
ENDMDL
