MODEL 1
REMARK VINA RESULT: -10.659813120      0.000      0.000
REMARK  6 active torsions:
REMARK  status: ('A' for Active; 'I' for Inactive)
REMARK    1  A    between atoms: S1_2  and  C1_4 
REMARK    2  A    between atoms: S1_2  and  C7_10 
REMARK    3  A    between atoms: C14_17  and  O3_18 
REMARK    4  A    between atoms: C14_17  and  C15_20 
REMARK    5  A    between atoms: C18_23  and  C19_24 
REMARK    6  A    between atoms: C30_37  and  C31_38 
ROOT
HETATM    1  C7  UNL     1      -6.616   5.093 -19.881  1.00  0.00     0.072 A 
HETATM    2  C8  UNL     1      -6.474   5.281 -18.510  1.00  0.00     0.024 A 
HETATM    3  C9  UNL     1      -6.561   6.523 -17.917  1.00  0.00     0.004 A 
HETATM    4  C10 UNL     1      -6.802   7.600 -18.752  1.00  0.00     0.030 A 
HETATM    5  C11 UNL     1      -6.948   7.441 -20.123  1.00  0.00     0.040 A 
HETATM    6  C12 UNL     1      -6.859   6.207 -20.700  1.00  0.00    -0.006 A 
HETATM    7  C13 UNL     1      -6.996   5.912 -22.136  1.00  0.00     0.092 C 
HETATM    8  C14 UNL     1      -7.144   7.140 -23.014  1.00  0.00     0.132 C 
HETATM    9  C30 UNL     1      -7.842   8.183 -22.267  1.00  0.00     0.060 C 
HETATM   10  N2  UNL     1      -7.226   8.549 -20.996  1.00  0.00    -0.356 N 
ATOM     11  H2  UNL     1      -7.009   9.514 -20.747  1.00  0.00     0.166 HD
ENDROOT
BRANCH   8  12
HETATM   12  O3  UNL     1      -8.085   6.718 -24.012  1.00  0.00    -0.378 OA
ATOM     13  H3  UNL     1      -8.871   6.541 -23.507  1.00  0.00     0.211 HD
ENDBRANCH   8  12
BRANCH   8  14
HETATM   14  C15 UNL     1      -5.931   7.377 -23.750  1.00  0.00    -0.018 A 
HETATM   15  C16 UNL     1      -6.124   7.789 -25.083  1.00  0.00     0.011 A 
HETATM   16  C17 UNL     1      -5.093   8.080 -25.935  1.00  0.00     0.013 A 
HETATM   17  C18 UNL     1      -3.787   7.979 -25.509  1.00  0.00    -0.026 A 
HETATM   18  C28 UNL     1      -3.577   7.577 -24.207  1.00  0.00     0.013 A 
HETATM   19  C29 UNL     1      -4.637   7.283 -23.355  1.00  0.00     0.011 A 
BRANCH  17  20
HETATM   20  C19 UNL     1      -2.645   8.283 -26.363  1.00  0.00    -0.025 A 
HETATM   21  C20 UNL     1      -2.579   7.823 -27.678  1.00  0.00     0.014 A 
HETATM   22  C21 UNL     1      -1.530   8.127 -28.510  1.00  0.00     0.031 A 
HETATM   23  C22 UNL     1      -0.498   8.903 -28.070  1.00  0.00     0.042 A 
HETATM   24  N1  UNL     1       0.518   9.198 -28.896  1.00  0.00    -0.365 N 
HETATM   25  C26 UNL     1      -0.550   9.368 -26.764  1.00  0.00    -0.009 A 
HETATM   26  C23 UNL     1       1.538   9.965 -28.483  1.00  0.00     0.088 A 
ATOM     27  H1  UNL     1       0.514   8.834 -29.849  1.00  0.00     0.165 HD
HETATM   28  C24 UNL     1       1.553  10.464 -27.195  1.00  0.00     0.018 A 
HETATM   29  C25 UNL     1       0.503  10.155 -26.354  1.00  0.00     0.015 A 
HETATM   30  C27 UNL     1      -1.618   9.061 -25.911  1.00  0.00     0.026 A 
ENDBRANCH  17  20
ENDBRANCH   8  14
BRANCH   9  31
HETATM   31  C31 UNL     1      -8.506   9.266 -22.973  1.00  0.00    -0.010 A 
HETATM   32  C32 UNL     1      -8.121  10.604 -22.803  1.00  0.00     0.013 A 
HETATM   33  C33 UNL     1      -8.713  11.638 -23.487  1.00  0.00     0.001 A 
HETATM   34  C34 UNL     1      -9.726  11.386 -24.381  1.00  0.00     0.000 A 
HETATM   35  C35 UNL     1     -10.124  10.089 -24.568  1.00  0.00     0.001 A 
HETATM   36  C36 UNL     1      -9.514   9.060 -23.867  1.00  0.00     0.013 A 
ENDBRANCH   9  31
BRANCH   1  37
HETATM   37  S1  UNL     1      -6.488   3.471 -20.523  1.00  0.00     0.207 S 
HETATM   38  O1  UNL     1      -7.169   3.347 -21.865  1.00  0.00    -0.217 OA
HETATM   39  O2  UNL     1      -7.017   2.430 -19.570  1.00  0.00    -0.217 OA
BRANCH  37  40
HETATM   40  C1  UNL     1      -4.815   3.066 -20.789  1.00  0.00     0.064 A 
HETATM   41  C2  UNL     1      -4.139   2.293 -19.892  1.00  0.00     0.024 A 
HETATM   42  C3  UNL     1      -2.795   1.953 -20.078  1.00  0.00     0.002 A 
HETATM   43  C4  UNL     1      -2.137   2.411 -21.202  1.00  0.00     0.000 A 
HETATM   44  C5  UNL     1      -2.810   3.185 -22.107  1.00  0.00     0.002 A 
HETATM   45  C6  UNL     1      -4.124   3.509 -21.907  1.00  0.00     0.024 A 
ENDBRANCH  37  40
ENDBRANCH   1  37
TORSDOF 6
ENDMDL
MODEL 2
REMARK VINA RESULT: -10.609142582      1.477      1.944
REMARK  6 active torsions:
REMARK  status: ('A' for Active; 'I' for Inactive)
REMARK    1  A    between atoms: S1_2  and  C1_4 
REMARK    2  A    between atoms: S1_2  and  C7_10 
REMARK    3  A    between atoms: C14_17  and  O3_18 
REMARK    4  A    between atoms: C14_17  and  C15_20 
REMARK    5  A    between atoms: C18_23  and  C19_24 
REMARK    6  A    between atoms: C30_37  and  C31_38 
ROOT
HETATM    1  C7  UNL     1      -5.813   3.675 -19.970  1.00  0.00     0.072 A 
HETATM    2  C8  UNL     1      -5.669   3.684 -18.587  1.00  0.00     0.024 A 
HETATM    3  C9  UNL     1      -6.095   4.735 -17.802  1.00  0.00     0.004 A 
HETATM    4  C10 UNL     1      -6.686   5.803 -18.453  1.00  0.00     0.030 A 
HETATM    5  C11 UNL     1      -6.841   5.820 -19.832  1.00  0.00     0.040 A 
HETATM    6  C12 UNL     1      -6.415   4.775 -20.600  1.00  0.00    -0.006 A 
HETATM    7  C13 UNL     1      -6.525   4.678 -22.065  1.00  0.00     0.092 C 
HETATM    8  C14 UNL     1      -7.074   5.923 -22.735  1.00  0.00     0.132 C 
HETATM    9  C30 UNL     1      -8.016   6.578 -21.830  1.00  0.00     0.060 C 
HETATM   10  N2  UNL     1      -7.478   6.913 -20.517  1.00  0.00    -0.356 N 
ATOM     11  H2  UNL     1      -7.547   7.848 -20.115  1.00  0.00     0.166 HD
ENDROOT
BRANCH   8  12
HETATM   12  O3  UNL     1      -7.892   5.394 -23.789  1.00  0.00    -0.378 OA
ATOM     13  H3  UNL     1      -8.620   6.004 -23.825  1.00  0.00     0.211 HD
ENDBRANCH   8  12
BRANCH   8  14
HETATM   14  C15 UNL     1      -6.024   6.626 -23.421  1.00  0.00    -0.018 A 
HETATM   15  C16 UNL     1      -6.404   7.194 -24.651  1.00  0.00     0.011 A 
HETATM   16  C17 UNL     1      -5.550   7.916 -25.440  1.00  0.00     0.013 A 
HETATM   17  C18 UNL     1      -4.245   8.121 -25.049  1.00  0.00    -0.026 A 
HETATM   18  C28 UNL     1      -3.852   7.572 -23.848  1.00  0.00     0.013 A 
HETATM   19  C29 UNL     1      -4.734   6.839 -23.059  1.00  0.00     0.011 A 
BRANCH  17  20
HETATM   20  C19 UNL     1      -3.288   8.888 -25.838  1.00  0.00    -0.025 A 
HETATM   21  C20 UNL     1      -3.709   9.855 -26.750  1.00  0.00     0.014 A 
HETATM   22  C21 UNL     1      -2.824  10.612 -27.477  1.00  0.00     0.031 A 
HETATM   23  C22 UNL     1      -1.479  10.440 -27.330  1.00  0.00     0.042 A 
HETATM   24  N1  UNL     1      -0.625  11.192 -28.042  1.00  0.00    -0.365 N 
HETATM   25  C26 UNL     1      -1.046   9.481 -26.426  1.00  0.00    -0.009 A 
HETATM   26  C23 UNL     1       0.701  11.042 -27.906  1.00  0.00     0.088 A 
ATOM     27  H1  UNL     1      -0.989  11.886 -28.695  1.00  0.00     0.165 HD
HETATM   28  C24 UNL     1       1.205  10.105 -27.023  1.00  0.00     0.018 A 
HETATM   29  C25 UNL     1       0.319   9.338 -26.296  1.00  0.00     0.015 A 
HETATM   30  C27 UNL     1      -1.944   8.706 -25.682  1.00  0.00     0.026 A 
ENDBRANCH  17  20
ENDBRANCH   8  14
BRANCH   9  31
HETATM   31  C31 UNL     1      -9.006   7.505 -22.355  1.00  0.00    -0.010 A 
HETATM   32  C32 UNL     1      -8.810   8.894 -22.316  1.00  0.00     0.013 A 
HETATM   33  C33 UNL     1      -9.718   9.784 -22.836  1.00  0.00     0.001 A 
HETATM   34  C34 UNL     1     -10.872   9.330 -23.427  1.00  0.00     0.000 A 
HETATM   35  C35 UNL     1     -11.091   7.979 -23.479  1.00  0.00     0.001 A 
HETATM   36  C36 UNL     1     -10.164   7.097 -22.947  1.00  0.00     0.013 A 
ENDBRANCH   9  31
BRANCH   1  37
HETATM   37  S1  UNL     1      -5.237   2.286 -20.864  1.00  0.00     0.207 S 
HETATM   38  O1  UNL     1      -4.828   2.659 -22.270  1.00  0.00    -0.217 OA
HETATM   39  O2  UNL     1      -6.239   1.162 -20.894  1.00  0.00    -0.217 OA
BRANCH  37  40
HETATM   40  C1  UNL     1      -3.813   1.635 -20.101  1.00  0.00     0.064 A 
HETATM   41  C2  UNL     1      -2.638   2.324 -20.125  1.00  0.00     0.024 A 
HETATM   42  C3  UNL     1      -1.478   1.826 -19.523  1.00  0.00     0.002 A 
HETATM   43  C4  UNL     1      -1.527   0.602 -18.886  1.00  0.00     0.000 A 
HETATM   44  C5  UNL     1      -2.703  -0.095 -18.856  1.00  0.00     0.002 A 
HETATM   45  C6  UNL     1      -3.828   0.409 -19.453  1.00  0.00     0.024 A 
ENDBRANCH  37  40
ENDBRANCH   1  37
TORSDOF 6
ENDMDL
MODEL 3
REMARK VINA RESULT: -10.442828593      0.665      1.344
REMARK  6 active torsions:
REMARK  status: ('A' for Active; 'I' for Inactive)
REMARK    1  A    between atoms: S1_2  and  C1_4 
REMARK    2  A    between atoms: S1_2  and  C7_10 
REMARK    3  A    between atoms: C14_17  and  O3_18 
REMARK    4  A    between atoms: C14_17  and  C15_20 
REMARK    5  A    between atoms: C18_23  and  C19_24 
REMARK    6  A    between atoms: C30_37  and  C31_38 
ROOT
HETATM    1  C7  UNL     1      -6.653   5.221 -19.874  1.00  0.00     0.072 A 
HETATM    2  C8  UNL     1      -6.509   5.437 -18.507  1.00  0.00     0.024 A 
HETATM    3  C9  UNL     1      -6.586   6.692 -17.941  1.00  0.00     0.004 A 
HETATM    4  C10 UNL     1      -6.818   7.752 -18.798  1.00  0.00     0.030 A 
HETATM    5  C11 UNL     1      -6.965   7.566 -20.166  1.00  0.00     0.040 A 
HETATM    6  C12 UNL     1      -6.887   6.320 -20.716  1.00  0.00    -0.006 A 
HETATM    7  C13 UNL     1      -7.026   5.996 -22.146  1.00  0.00     0.092 C 
HETATM    8  C14 UNL     1      -7.164   7.206 -23.050  1.00  0.00     0.132 C 
HETATM    9  C30 UNL     1      -7.854   8.271 -22.324  1.00  0.00     0.060 C 
HETATM   10  N2  UNL     1      -7.234   8.658 -21.062  1.00  0.00    -0.356 N 
ATOM     11  H2  UNL     1      -7.009   9.626 -20.833  1.00  0.00     0.166 HD
ENDROOT
BRANCH   8  12
HETATM   12  O3  UNL     1      -8.109   6.771 -24.038  1.00  0.00    -0.378 OA
ATOM     13  H3  UNL     1      -8.939   6.811 -23.577  1.00  0.00     0.211 HD
ENDBRANCH   8  12
BRANCH   8  14
HETATM   14  C15 UNL     1      -5.950   7.418 -23.790  1.00  0.00    -0.018 A 
HETATM   15  C16 UNL     1      -6.139   7.817 -25.127  1.00  0.00     0.011 A 
HETATM   16  C17 UNL     1      -5.106   8.084 -25.984  1.00  0.00     0.013 A 
HETATM   17  C18 UNL     1      -3.801   7.969 -25.560  1.00  0.00    -0.026 A 
HETATM   18  C28 UNL     1      -3.593   7.578 -24.254  1.00  0.00     0.013 A 
HETATM   19  C29 UNL     1      -4.656   7.309 -23.397  1.00  0.00     0.011 A 
BRANCH  17  20
HETATM   20  C19 UNL     1      -2.656   8.247 -26.419  1.00  0.00    -0.025 A 
HETATM   21  C20 UNL     1      -1.667   9.154 -26.039  1.00  0.00     0.014 A 
HETATM   22  C21 UNL     1      -0.563   9.405 -26.816  1.00  0.00     0.031 A 
HETATM   23  C22 UNL     1      -0.395   8.764 -28.009  1.00  0.00     0.042 A 
HETATM   24  N1  UNL     1       0.692   9.013 -28.756  1.00  0.00    -0.365 N 
HETATM   25  C26 UNL     1      -1.371   7.859 -28.400  1.00  0.00    -0.009 A 
HETATM   26  C23 UNL     1       0.878   8.388 -29.928  1.00  0.00     0.088 A 
ATOM     27  H1  UNL     1       1.385   9.687 -28.429  1.00  0.00     0.165 HD
HETATM   28  C24 UNL     1      -0.053   7.473 -30.381  1.00  0.00     0.018 A 
HETATM   29  C25 UNL     1      -1.167   7.224 -29.605  1.00  0.00     0.015 A 
HETATM   30  C27 UNL     1      -2.498   7.600 -27.611  1.00  0.00     0.026 A 
ENDBRANCH  17  20
ENDBRANCH   8  14
BRANCH   9  31
HETATM   31  C31 UNL     1      -8.509   9.344 -23.053  1.00  0.00    -0.010 A 
HETATM   32  C32 UNL     1      -8.093  10.679 -22.935  1.00  0.00     0.013 A 
HETATM   33  C33 UNL     1      -8.677  11.702 -23.641  1.00  0.00     0.001 A 
HETATM   34  C34 UNL     1      -9.711  11.442 -24.508  1.00  0.00     0.000 A 
HETATM   35  C35 UNL     1     -10.139  10.149 -24.644  1.00  0.00     0.001 A 
HETATM   36  C36 UNL     1      -9.538   9.131 -23.921  1.00  0.00     0.013 A 
ENDBRANCH   9  31
BRANCH   1  37
HETATM   37  S1  UNL     1      -6.538   3.585 -20.482  1.00  0.00     0.207 S 
HETATM   38  O1  UNL     1      -7.338   3.404 -21.750  1.00  0.00    -0.217 OA
HETATM   39  O2  UNL     1      -6.947   2.558 -19.457  1.00  0.00    -0.217 OA
BRANCH  37  40
HETATM   40  C1  UNL     1      -4.887   3.216 -20.892  1.00  0.00     0.064 A 
HETATM   41  C2  UNL     1      -4.439   1.929 -20.869  1.00  0.00     0.024 A 
HETATM   42  C3  UNL     1      -3.118   1.601 -21.191  1.00  0.00     0.002 A 
HETATM   43  C4  UNL     1      -2.245   2.611 -21.545  1.00  0.00     0.000 A 
HETATM   44  C5  UNL     1      -2.688   3.905 -21.573  1.00  0.00     0.002 A 
HETATM   45  C6  UNL     1      -3.984   4.205 -21.252  1.00  0.00     0.024 A 
ENDBRANCH  37  40
ENDBRANCH   1  37
TORSDOF 6
ENDMDL
MODEL 4
REMARK VINA RESULT: -9.950188527      7.646     12.220
REMARK  6 active torsions:
REMARK  status: ('A' for Active; 'I' for Inactive)
REMARK    1  A    between atoms: S1_2  and  C1_4 
REMARK    2  A    between atoms: S1_2  and  C7_10 
REMARK    3  A    between atoms: C14_17  and  O3_18 
REMARK    4  A    between atoms: C14_17  and  C15_20 
REMARK    5  A    between atoms: C18_23  and  C19_24 
REMARK    6  A    between atoms: C30_37  and  C31_38 
ROOT
HETATM    1  C7  UNL     1       5.045  -0.865 -27.360  1.00  0.00     0.072 A 
HETATM    2  C8  UNL     1       5.051  -1.938 -28.246  1.00  0.00     0.024 A 
HETATM    3  C9  UNL     1       4.105  -2.091 -29.236  1.00  0.00     0.004 A 
HETATM    4  C10 UNL     1       3.126  -1.116 -29.323  1.00  0.00     0.030 A 
HETATM    5  C11 UNL     1       3.096  -0.035 -28.453  1.00  0.00     0.040 A 
HETATM    6  C12 UNL     1       4.037   0.106 -27.475  1.00  0.00    -0.006 A 
HETATM    7  C13 UNL     1       4.110   1.205 -26.497  1.00  0.00     0.092 C 
HETATM    8  C14 UNL     1       2.949   2.179 -26.565  1.00  0.00     0.132 C 
HETATM    9  C30 UNL     1       2.479   2.269 -27.945  1.00  0.00     0.060 C 
HETATM   10  N2  UNL     1       2.099   0.997 -28.551  1.00  0.00    -0.356 N 
ATOM     11  H2  UNL     1       1.199   0.852 -29.007  1.00  0.00     0.166 HD
ENDROOT
BRANCH   8  12
HETATM   12  O3  UNL     1       3.572   3.447 -26.312  1.00  0.00    -0.378 OA
ATOM     13  H3  UNL     1       3.117   3.761 -25.539  1.00  0.00     0.211 HD
ENDBRANCH   8  12
BRANCH   8  14
HETATM   14  C15 UNL     1       2.069   1.987 -25.445  1.00  0.00    -0.018 A 
HETATM   15  C16 UNL     1       1.874   3.132 -24.648  1.00  0.00     0.011 A 
HETATM   16  C17 UNL     1       1.058   3.152 -23.550  1.00  0.00     0.013 A 
HETATM   17  C18 UNL     1       0.374   2.019 -23.169  1.00  0.00    -0.026 A 
HETATM   18  C28 UNL     1       0.552   0.886 -23.935  1.00  0.00     0.013 A 
HETATM   19  C29 UNL     1       1.388   0.884 -25.048  1.00  0.00     0.011 A 
BRANCH  17  20
HETATM   20  C19 UNL     1      -0.518   1.976 -22.016  1.00  0.00    -0.025 A 
HETATM   21  C20 UNL     1      -0.033   2.137 -20.718  1.00  0.00     0.014 A 
HETATM   22  C21 UNL     1      -0.860   2.135 -19.622  1.00  0.00     0.031 A 
HETATM   23  C22 UNL     1      -2.206   1.971 -19.767  1.00  0.00     0.042 A 
HETATM   24  N1  UNL     1      -3.003   1.978 -18.688  1.00  0.00    -0.365 N 
HETATM   25  C26 UNL     1      -2.701   1.809 -21.053  1.00  0.00    -0.009 A 
HETATM   26  C23 UNL     1      -4.330   1.826 -18.812  1.00  0.00     0.088 A 
ATOM     27  H1  UNL     1      -2.595   2.101 -17.761  1.00  0.00     0.165 HD
HETATM   28  C24 UNL     1      -4.894   1.659 -20.062  1.00  0.00     0.018 A 
HETATM   29  C25 UNL     1      -4.066   1.654 -21.166  1.00  0.00     0.015 A 
HETATM   30  C27 UNL     1      -1.863   1.810 -22.175  1.00  0.00     0.026 A 
ENDBRANCH  17  20
ENDBRANCH   8  14
BRANCH   9  31
HETATM   31  C31 UNL     1       1.707   3.422 -28.379  1.00  0.00    -0.010 A 
HETATM   32  C32 UNL     1       2.326   4.591 -28.847  1.00  0.00     0.013 A 
HETATM   33  C33 UNL     1       1.615   5.678 -29.293  1.00  0.00     0.001 A 
HETATM   34  C34 UNL     1       0.241   5.652 -29.296  1.00  0.00     0.000 A 
HETATM   35  C35 UNL     1      -0.391   4.524 -28.844  1.00  0.00     0.001 A 
HETATM   36  C36 UNL     1       0.344   3.438 -28.397  1.00  0.00     0.013 A 
ENDBRANCH   9  31
BRANCH   1  37
HETATM   37  S1  UNL     1       6.298  -0.773 -26.144  1.00  0.00     0.207 S 
HETATM   38  O1  UNL     1       7.032   0.546 -26.199  1.00  0.00    -0.217 OA
HETATM   39  O2  UNL     1       7.274  -1.918 -26.232  1.00  0.00    -0.217 OA
BRANCH  37  40
HETATM   40  C1  UNL     1       5.593  -0.869 -24.554  1.00  0.00     0.064 A 
HETATM   41  C2  UNL     1       5.119  -2.055 -24.078  1.00  0.00     0.024 A 
HETATM   42  C3  UNL     1       4.546  -2.163 -22.806  1.00  0.00     0.002 A 
HETATM   43  C4  UNL     1       4.462  -1.037 -22.012  1.00  0.00     0.000 A 
HETATM   44  C5  UNL     1       4.938   0.156 -22.482  1.00  0.00     0.002 A 
HETATM   45  C6  UNL     1       5.493   0.242 -23.730  1.00  0.00     0.024 A 
ENDBRANCH  37  40
ENDBRANCH   1  37
TORSDOF 6
ENDMDL
MODEL 5
REMARK VINA RESULT: -9.899464484      7.269     11.997
REMARK  6 active torsions:
REMARK  status: ('A' for Active; 'I' for Inactive)
REMARK    1  A    between atoms: S1_2  and  C1_4 
REMARK    2  A    between atoms: S1_2  and  C7_10 
REMARK    3  A    between atoms: C14_17  and  O3_18 
REMARK    4  A    between atoms: C14_17  and  C15_20 
REMARK    5  A    between atoms: C18_23  and  C19_24 
REMARK    6  A    between atoms: C30_37  and  C31_38 
ROOT
HETATM    1  C7  UNL     1       4.773  -0.734 -26.914  1.00  0.00     0.072 A 
HETATM    2  C8  UNL     1       4.864  -1.706 -27.904  1.00  0.00     0.024 A 
HETATM    3  C9  UNL     1       3.983  -1.775 -28.962  1.00  0.00     0.004 A 
HETATM    4  C10 UNL     1       2.982  -0.820 -29.006  1.00  0.00     0.030 A 
HETATM    5  C11 UNL     1       2.868   0.161 -28.031  1.00  0.00     0.040 A 
HETATM    6  C12 UNL     1       3.746   0.219 -26.988  1.00  0.00    -0.006 A 
HETATM    7  C13 UNL     1       3.728   1.209 -25.897  1.00  0.00     0.092 C 
HETATM    8  C14 UNL     1       2.545   2.158 -25.934  1.00  0.00     0.132 C 
HETATM    9  C30 UNL     1       2.154   2.383 -27.324  1.00  0.00     0.060 C 
HETATM   10  N2  UNL     1       1.849   1.174 -28.082  1.00  0.00    -0.356 N 
ATOM     11  H2  UNL     1       0.982   1.057 -28.606  1.00  0.00     0.166 HD
ENDROOT
BRANCH   8  12
HETATM   12  O3  UNL     1       3.113   3.406 -25.511  1.00  0.00    -0.378 OA
ATOM     13  H3  UNL     1       3.495   3.195 -24.668  1.00  0.00     0.211 HD
ENDBRANCH   8  12
BRANCH   8  14
HETATM   14  C15 UNL     1       1.606   1.827 -24.896  1.00  0.00    -0.018 A 
HETATM   15  C16 UNL     1       1.353   2.865 -23.980  1.00  0.00     0.011 A 
HETATM   16  C17 UNL     1       0.478   2.748 -22.935  1.00  0.00     0.013 A 
HETATM   17  C18 UNL     1      -0.212   1.573 -22.733  1.00  0.00    -0.026 A 
HETATM   18  C28 UNL     1       0.022   0.543 -23.618  1.00  0.00     0.013 A 
HETATM   19  C29 UNL     1       0.917   0.680 -24.675  1.00  0.00     0.011 A 
BRANCH  17  20
HETATM   20  C19 UNL     1      -1.166   1.386 -21.646  1.00  0.00    -0.025 A 
HETATM   21  C20 UNL     1      -0.906   0.506 -20.596  1.00  0.00     0.014 A 
HETATM   22  C21 UNL     1      -1.773   0.341 -19.545  1.00  0.00     0.031 A 
HETATM   23  C22 UNL     1      -2.940   1.044 -19.491  1.00  0.00     0.042 A 
HETATM   24  N1  UNL     1      -3.777   0.879 -18.455  1.00  0.00    -0.365 N 
HETATM   25  C26 UNL     1      -3.213   1.924 -20.529  1.00  0.00    -0.009 A 
HETATM   26  C23 UNL     1      -4.925   1.567 -18.381  1.00  0.00     0.088 A 
ATOM     27  H1  UNL     1      -3.535   0.221 -17.713  1.00  0.00     0.165 HD
HETATM   28  C24 UNL     1      -5.262   2.462 -19.379  1.00  0.00     0.018 A 
HETATM   29  C25 UNL     1      -4.396   2.625 -20.441  1.00  0.00     0.015 A 
HETATM   30  C27 UNL     1      -2.331   2.096 -21.603  1.00  0.00     0.026 A 
ENDBRANCH  17  20
ENDBRANCH   8  14
BRANCH   9  31
HETATM   31  C31 UNL     1       1.375   3.557 -27.681  1.00  0.00    -0.010 A 
HETATM   32  C32 UNL     1       0.283   3.480 -28.559  1.00  0.00     0.013 A 
HETATM   33  C33 UNL     1      -0.486   4.572 -28.882  1.00  0.00     0.001 A 
HETATM   34  C34 UNL     1      -0.202   5.802 -28.341  1.00  0.00     0.000 A 
HETATM   35  C35 UNL     1       0.858   5.908 -27.481  1.00  0.00     0.001 A 
HETATM   36  C36 UNL     1       1.622   4.795 -27.168  1.00  0.00     0.013 A 
ENDBRANCH   9  31
BRANCH   1  37
HETATM   37  S1  UNL     1       5.949  -0.742 -25.619  1.00  0.00     0.207 S 
HETATM   38  O1  UNL     1       6.751   0.537 -25.586  1.00  0.00    -0.217 OA
HETATM   39  O2  UNL     1       6.870  -1.934 -25.683  1.00  0.00    -0.217 OA
BRANCH  37  40
HETATM   40  C1  UNL     1       5.141  -0.848 -24.080  1.00  0.00     0.064 A 
HETATM   41  C2  UNL     1       4.479  -1.984 -23.722  1.00  0.00     0.024 A 
HETATM   42  C3  UNL     1       3.819  -2.098 -22.494  1.00  0.00     0.002 A 
HETATM   43  C4  UNL     1       3.842  -1.029 -21.621  1.00  0.00     0.000 A 
HETATM   44  C5  UNL     1       4.505   0.114 -21.972  1.00  0.00     0.002 A 
HETATM   45  C6  UNL     1       5.144   0.206 -23.179  1.00  0.00     0.024 A 
ENDBRANCH  37  40
ENDBRANCH   1  37
TORSDOF 6
ENDMDL
