MODEL 1
REMARK VINA RESULT: -11.480783137      0.000      0.000
REMARK  9 active torsions:
REMARK  status: ('A' for Active; 'I' for Inactive)
REMARK       I    between atoms: C1_2  and  N1_3 
REMARK    1  A    between atoms: C1_2  and  C25_39 
REMARK    2  A    between atoms: N1_3  and  C2_5 
REMARK    3  A    between atoms: C4_7  and  C5_8 
REMARK    4  A    between atoms: N2_20  and  C17_21 
REMARK    5  A    between atoms: C17_21  and  O2_22 
REMARK    6  A    between atoms: C17_21  and  N3_24 
REMARK    7  A    between atoms: N3_24  and  C18_26 
REMARK    8  A    between atoms: C18_26  and  C19_27 
REMARK    9  A    between atoms: C29_43  and  C30_44 
ROOT
HETATM    1  C5  UNL     1      -7.577   3.664 -21.351  1.00  0.00     0.004 A 
HETATM    2  C6  UNL     1      -8.434   2.617 -21.744  1.00  0.00     0.015 A 
HETATM    3  C7  UNL     1      -9.564   2.847 -22.456  1.00  0.00     0.003 A 
HETATM    4  C8  UNL     1      -9.849   4.166 -22.784  1.00  0.00     0.031 A 
HETATM    5  C9  UNL     1      -9.048   5.219 -22.424  1.00  0.00     0.055 A 
HETATM    6  C10 UNL     1      -7.882   4.963 -21.689  1.00  0.00     0.016 A 
HETATM    7  C11 UNL     1      -7.249   6.172 -21.443  1.00  0.00     0.005 A 
HETATM    8  C12 UNL     1      -6.092   6.452 -20.763  1.00  0.00     0.014 A 
HETATM    9  C13 UNL     1      -5.702   7.800 -20.674  1.00  0.00     0.001 A 
HETATM   10  C14 UNL     1      -6.439   8.793 -21.237  1.00  0.00     0.002 A 
HETATM   11  C15 UNL     1      -7.602   8.435 -21.910  1.00  0.00     0.031 A 
HETATM   12  C16 UNL     1      -8.048   7.137 -22.040  1.00  0.00     0.054 A 
HETATM   13  N2  UNL     1      -9.117   6.579 -22.624  1.00  0.00    -0.276 N 
ENDROOT
BRANCH   1  14
HETATM   14  C4  UNL     1      -6.394   3.290 -20.594  1.00  0.00     0.047 A 
HETATM   15  C3  UNL     1      -5.192   3.077 -21.229  1.00  0.00     0.079 A 
HETATM   16  C2  UNL     1      -4.022   2.746 -20.548  1.00  0.00     0.110 A 
HETATM   17  N6  UNL     1      -4.146   2.647 -19.209  1.00  0.00    -0.338 N 
HETATM   18  C24 UNL     1      -5.326   2.858 -18.601  1.00  0.00     0.182 A 
ATOM     19  H6  UNL     1      -3.329   2.408 -18.647  1.00  0.00     0.168 HD
HETATM   20  N5  UNL     1      -6.456   3.177 -19.257  1.00  0.00    -0.352 N 
ATOM     21  H5  UNL     1      -7.331   3.329 -18.755  1.00  0.00     0.166 HD
BRANCH  16  22
HETATM   22  N1  UNL     1      -2.915   2.557 -21.182  1.00  0.00    -0.309 N 
HETATM   23  C1  UNL     1      -1.634   2.503 -20.640  1.00  0.00     0.257 C 
HETATM   24  O1  UNL     1      -1.092   3.554 -20.217  1.00  0.00    -0.267 OA
ATOM     25  H1  UNL     1      -2.985   2.434 -22.192  1.00  0.00     0.170 HD
BRANCH  23  26
HETATM   26  C25 UNL     1      -0.904   1.260 -20.549  1.00  0.00     0.033 A 
HETATM   27  C26 UNL     1      -1.498   0.198 -19.886  1.00  0.00     0.017 A 
HETATM   28  C27 UNL     1      -0.821  -0.975 -19.797  1.00  0.00     0.002 A 
HETATM   29  C28 UNL     1       0.433  -1.133 -20.346  1.00  0.00     0.012 A 
HETATM   30  C29 UNL     1       1.044  -0.074 -21.016  1.00  0.00    -0.025 A 
HETATM   31  C36 UNL     1       0.358   1.099 -21.101  1.00  0.00     0.029 A 
BRANCH  30  32
HETATM   32  C30 UNL     1       2.367  -0.295 -21.579  1.00  0.00    -0.026 A 
HETATM   33  C31 UNL     1       2.742  -1.584 -21.872  1.00  0.00     0.012 A 
HETATM   34  C32 UNL     1       4.001  -1.863 -22.417  1.00  0.00     0.001 A 
HETATM   35  C33 UNL     1       4.880  -0.856 -22.668  1.00  0.00     0.000 A 
HETATM   36  C34 UNL     1       4.518   0.446 -22.380  1.00  0.00     0.001 A 
HETATM   37  C35 UNL     1       3.267   0.716 -21.838  1.00  0.00     0.012 A 
ENDBRANCH  30  32
ENDBRANCH  23  26
ENDBRANCH  16  22
ENDBRANCH   1  14
BRANCH  13  38
HETATM   38  C17 UNL     1     -10.176   7.188 -23.324  1.00  0.00     0.225 C 
BRANCH  38  39
HETATM   39  O2  UNL     1     -11.227   7.567 -22.651  1.00  0.00    -0.332 OA
ATOM     40  H2  UNL     1     -12.007   7.026 -22.689  1.00  0.00     0.221 HD
ENDBRANCH  38  39
BRANCH  38  41
HETATM   41  N3  UNL     1     -10.297   7.467 -24.687  1.00  0.00    -0.350 N 
ATOM     42  H3  UNL     1     -11.132   7.921 -25.057  1.00  0.00     0.163 HD
BRANCH  41  43
HETATM   43  C18 UNL     1      -9.174   7.082 -25.584  1.00  0.00     0.180 C 
BRANCH  43  44
HETATM   44  C19 UNL     1      -8.090   8.085 -25.538  1.00  0.00     0.026 A 
HETATM   45  C20 UNL     1      -6.804   7.599 -25.444  1.00  0.00     0.027 A 
HETATM   46  C21 UNL     1      -5.764   8.502 -25.397  1.00  0.00     0.003 A 
HETATM   47  C22 UNL     1      -6.016   9.858 -25.443  1.00  0.00     0.017 A 
HETATM   48  C23 UNL     1      -7.316  10.313 -25.537  1.00  0.00     0.088 A 
HETATM   49  N4  UNL     1      -8.306   9.408 -25.581  1.00  0.00    -0.368 N 
ATOM     50  H4  UNL     1      -9.267   9.743 -25.651  1.00  0.00     0.165 HD
ENDBRANCH  43  44
ENDBRANCH  41  43
ENDBRANCH  38  41
ENDBRANCH  13  38
TORSDOF 9
ENDMDL
MODEL 2
REMARK VINA RESULT: -10.924954875      1.149      1.290
REMARK  9 active torsions:
REMARK  status: ('A' for Active; 'I' for Inactive)
REMARK       I    between atoms: C1_2  and  N1_3 
REMARK    1  A    between atoms: C1_2  and  C25_39 
REMARK    2  A    between atoms: N1_3  and  C2_5 
REMARK    3  A    between atoms: C4_7  and  C5_8 
REMARK    4  A    between atoms: N2_20  and  C17_21 
REMARK    5  A    between atoms: C17_21  and  O2_22 
REMARK    6  A    between atoms: C17_21  and  N3_24 
REMARK    7  A    between atoms: N3_24  and  C18_26 
REMARK    8  A    between atoms: C18_26  and  C19_27 
REMARK    9  A    between atoms: C29_43  and  C30_44 
ROOT
HETATM    1  C5  UNL     1      -7.120   3.313 -20.807  1.00  0.00     0.004 A 
HETATM    2  C6  UNL     1      -7.902   2.355 -21.485  1.00  0.00     0.015 A 
HETATM    3  C7  UNL     1      -8.903   2.714 -22.324  1.00  0.00     0.003 A 
HETATM    4  C8  UNL     1      -9.133   4.073 -22.492  1.00  0.00     0.031 A 
HETATM    5  C9  UNL     1      -8.401   5.043 -21.855  1.00  0.00     0.055 A 
HETATM    6  C10 UNL     1      -7.369   4.654 -20.991  1.00  0.00     0.016 A 
HETATM    7  C11 UNL     1      -6.785   5.798 -20.469  1.00  0.00     0.005 A 
HETATM    8  C12 UNL     1      -5.752   5.947 -19.580  1.00  0.00     0.014 A 
HETATM    9  C13 UNL     1      -5.383   7.258 -19.228  1.00  0.00     0.001 A 
HETATM   10  C14 UNL     1      -6.021   8.340 -19.746  1.00  0.00     0.002 A 
HETATM   11  C15 UNL     1      -7.060   8.113 -20.641  1.00  0.00     0.031 A 
HETATM   12  C16 UNL     1      -7.478   6.859 -21.034  1.00  0.00     0.054 A 
HETATM   13  N2  UNL     1      -8.438   6.419 -21.857  1.00  0.00    -0.276 N 
ENDROOT
BRANCH   1  14
HETATM   14  C4  UNL     1      -6.075   2.803 -19.936  1.00  0.00     0.047 A 
HETATM   15  C3  UNL     1      -4.753   2.865 -20.316  1.00  0.00     0.079 A 
HETATM   16  C2  UNL     1      -3.709   2.419 -19.506  1.00  0.00     0.110 A 
HETATM   17  N6  UNL     1      -4.084   1.916 -18.312  1.00  0.00    -0.338 N 
HETATM   18  C24 UNL     1      -5.379   1.862 -17.954  1.00  0.00     0.182 A 
ATOM     19  H6  UNL     1      -3.372   1.570 -17.669  1.00  0.00     0.168 HD
HETATM   20  N5  UNL     1      -6.386   2.292 -18.734  1.00  0.00    -0.352 N 
ATOM     21  H5  UNL     1      -7.355   2.232 -18.423  1.00  0.00     0.166 HD
BRANCH  16  22
HETATM   22  N1  UNL     1      -2.484   2.497 -19.899  1.00  0.00    -0.309 N 
HETATM   23  C1  UNL     1      -1.367   1.938 -19.286  1.00  0.00     0.257 C 
HETATM   24  O1  UNL     1      -0.942   2.419 -18.206  1.00  0.00    -0.267 OA
ATOM     25  H1  UNL     1      -2.314   3.027 -20.754  1.00  0.00     0.170 HD
BRANCH  23  26
HETATM   26  C25 UNL     1      -0.675   0.807 -19.861  1.00  0.00     0.033 A 
HETATM   27  C26 UNL     1      -1.199  -0.458 -19.650  1.00  0.00     0.017 A 
HETATM   28  C27 UNL     1      -0.557  -1.526 -20.188  1.00  0.00     0.002 A 
HETATM   29  C28 UNL     1       0.592  -1.383 -20.934  1.00  0.00     0.012 A 
HETATM   30  C29 UNL     1       1.131  -0.117 -21.156  1.00  0.00    -0.025 A 
HETATM   31  C36 UNL     1       0.482   0.950 -20.612  1.00  0.00     0.029 A 
BRANCH  30  32
HETATM   32  C30 UNL     1       2.344  -0.021 -21.952  1.00  0.00    -0.026 A 
HETATM   33  C31 UNL     1       2.235  -0.121 -23.318  1.00  0.00     0.012 A 
HETATM   34  C32 UNL     1       3.365  -0.036 -24.140  1.00  0.00     0.001 A 
HETATM   35  C33 UNL     1       4.598   0.149 -23.598  1.00  0.00     0.000 A 
HETATM   36  C34 UNL     1       4.725   0.253 -22.226  1.00  0.00     0.001 A 
HETATM   37  C35 UNL     1       3.600   0.167 -21.415  1.00  0.00     0.012 A 
ENDBRANCH  30  32
ENDBRANCH  23  26
ENDBRANCH  16  22
ENDBRANCH   1  14
BRANCH  13  38
HETATM   38  C17 UNL     1      -9.372   7.149 -22.618  1.00  0.00     0.225 C 
BRANCH  38  39
HETATM   39  O2  UNL     1     -10.615   7.165 -22.224  1.00  0.00    -0.332 OA
ATOM     40  H2  UNL     1     -11.170   6.427 -22.451  1.00  0.00     0.221 HD
ENDBRANCH  38  39
BRANCH  38  41
HETATM   41  N3  UNL     1      -9.181   7.896 -23.782  1.00  0.00    -0.350 N 
ATOM     42  H3  UNL     1      -9.590   8.825 -23.882  1.00  0.00     0.163 HD
BRANCH  41  43
HETATM   43  C18 UNL     1      -8.364   7.298 -24.873  1.00  0.00     0.180 C 
BRANCH  43  44
HETATM   44  C19 UNL     1      -6.993   7.850 -24.873  1.00  0.00     0.026 A 
HETATM   45  C20 UNL     1      -6.030   7.107 -24.226  1.00  0.00     0.027 A 
HETATM   46  C21 UNL     1      -4.738   7.588 -24.201  1.00  0.00     0.003 A 
HETATM   47  C22 UNL     1      -4.429   8.786 -24.813  1.00  0.00     0.017 A 
HETATM   48  C23 UNL     1      -5.418   9.506 -25.453  1.00  0.00     0.088 A 
HETATM   49  N4  UNL     1      -6.665   9.011 -25.460  1.00  0.00    -0.368 N 
ATOM     50  H4  UNL     1      -7.396   9.541 -25.932  1.00  0.00     0.165 HD
ENDBRANCH  43  44
ENDBRANCH  41  43
ENDBRANCH  38  41
ENDBRANCH  13  38
TORSDOF 9
ENDMDL
MODEL 3
REMARK VINA RESULT: -10.895655133      2.098      3.284
REMARK  9 active torsions:
REMARK  status: ('A' for Active; 'I' for Inactive)
REMARK       I    between atoms: C1_2  and  N1_3 
REMARK    1  A    between atoms: C1_2  and  C25_39 
REMARK    2  A    between atoms: N1_3  and  C2_5 
REMARK    3  A    between atoms: C4_7  and  C5_8 
REMARK    4  A    between atoms: N2_20  and  C17_21 
REMARK    5  A    between atoms: C17_21  and  O2_22 
REMARK    6  A    between atoms: C17_21  and  N3_24 
REMARK    7  A    between atoms: N3_24  and  C18_26 
REMARK    8  A    between atoms: C18_26  and  C19_27 
REMARK    9  A    between atoms: C29_43  and  C30_44 
ROOT
HETATM    1  C5  UNL     1      -5.214   2.628 -21.321  1.00  0.00     0.004 A 
HETATM    2  C6  UNL     1      -6.062   1.503 -21.361  1.00  0.00     0.015 A 
HETATM    3  C7  UNL     1      -7.369   1.605 -21.704  1.00  0.00     0.003 A 
HETATM    4  C8  UNL     1      -7.846   2.872 -22.016  1.00  0.00     0.031 A 
HETATM    5  C9  UNL     1      -7.061   3.996 -21.991  1.00  0.00     0.055 A 
HETATM    6  C10 UNL     1      -5.711   3.872 -21.635  1.00  0.00     0.016 A 
HETATM    7  C11 UNL     1      -5.133   5.132 -21.677  1.00  0.00     0.005 A 
HETATM    8  C12 UNL     1      -3.851   5.535 -21.406  1.00  0.00     0.014 A 
HETATM    9  C13 UNL     1      -3.562   6.906 -21.531  1.00  0.00     0.001 A 
HETATM   10  C14 UNL     1      -4.512   7.802 -21.905  1.00  0.00     0.002 A 
HETATM   11  C15 UNL     1      -5.791   7.322 -22.163  1.00  0.00     0.031 A 
HETATM   12  C16 UNL     1      -6.150   5.994 -22.063  1.00  0.00     0.054 A 
HETATM   13  N2  UNL     1      -7.296   5.327 -22.251  1.00  0.00    -0.276 N 
ENDROOT
BRANCH   1  14
HETATM   14  C4  UNL     1      -3.832   2.389 -20.940  1.00  0.00     0.047 A 
HETATM   15  C3  UNL     1      -2.877   2.120 -21.895  1.00  0.00     0.079 A 
HETATM   16  C2  UNL     1      -1.533   1.914 -21.587  1.00  0.00     0.110 A 
HETATM   17  N6  UNL     1      -1.226   1.996 -20.277  1.00  0.00    -0.338 N 
HETATM   18  C24 UNL     1      -2.168   2.259 -19.355  1.00  0.00     0.182 A 
ATOM     19  H6  UNL     1      -0.260   1.855 -19.980  1.00  0.00     0.168 HD
HETATM   20  N5  UNL     1      -3.465   2.458 -19.650  1.00  0.00    -0.352 N 
ATOM     21  H5  UNL     1      -4.147   2.655 -18.918  1.00  0.00     0.166 HD
BRANCH  16  22
HETATM   22  N1  UNL     1      -0.670   1.668 -22.513  1.00  0.00    -0.309 N 
HETATM   23  C1  UNL     1       0.692   1.948 -22.488  1.00  0.00     0.257 C 
HETATM   24  O1  UNL     1       1.086   3.137 -22.582  1.00  0.00    -0.267 OA
ATOM     25  H1  UNL     1      -1.026   1.218 -23.357  1.00  0.00     0.170 HD
BRANCH  23  26
HETATM   26  C25 UNL     1       1.677   0.899 -22.355  1.00  0.00     0.033 A 
HETATM   27  C26 UNL     1       2.828   1.170 -21.632  1.00  0.00     0.017 A 
HETATM   28  C27 UNL     1       3.758   0.190 -21.499  1.00  0.00     0.002 A 
HETATM   29  C28 UNL     1       3.586  -1.056 -22.060  1.00  0.00     0.012 A 
HETATM   30  C29 UNL     1       2.433  -1.344 -22.790  1.00  0.00    -0.025 A 
HETATM   31  C36 UNL     1       1.505  -0.355 -22.919  1.00  0.00     0.029 A 
BRANCH  30  32
HETATM   32  C30 UNL     1       2.300  -2.676 -23.358  1.00  0.00    -0.026 A 
HETATM   33  C31 UNL     1       1.254  -3.462 -22.936  1.00  0.00     0.012 A 
HETATM   34  C32 UNL     1       1.070  -4.752 -23.446  1.00  0.00     0.001 A 
HETATM   35  C33 UNL     1       1.928  -5.254 -24.375  1.00  0.00     0.000 A 
HETATM   36  C34 UNL     1       2.983  -4.476 -24.811  1.00  0.00     0.001 A 
HETATM   37  C35 UNL     1       3.162  -3.195 -24.300  1.00  0.00     0.012 A 
ENDBRANCH  30  32
ENDBRANCH  23  26
ENDBRANCH  16  22
ENDBRANCH   1  14
BRANCH  13  38
HETATM   38  C17 UNL     1      -8.563   5.812 -22.631  1.00  0.00     0.225 C 
BRANCH  38  39
HETATM   39  O2  UNL     1      -9.065   5.409 -23.765  1.00  0.00    -0.332 OA
ATOM     40  H2  UNL     1      -9.945   5.048 -23.766  1.00  0.00     0.221 HD
ENDBRANCH  38  39
BRANCH  38  41
HETATM   41  N3  UNL     1      -9.413   6.697 -21.965  1.00  0.00    -0.350 N 
ATOM     42  H3  UNL     1      -9.303   6.880 -20.968  1.00  0.00     0.163 HD
BRANCH  41  43
HETATM   43  C18 UNL     1     -10.484   7.366 -22.752  1.00  0.00     0.180 C 
BRANCH  43  44
HETATM   44  C19 UNL     1     -10.073   8.726 -23.160  1.00  0.00     0.026 A 
HETATM   45  C20 UNL     1      -9.958   8.955 -24.514  1.00  0.00     0.027 A 
HETATM   46  C21 UNL     1      -9.575  10.210 -24.936  1.00  0.00     0.003 A 
HETATM   47  C22 UNL     1      -9.314  11.205 -24.016  1.00  0.00     0.017 A 
HETATM   48  C23 UNL     1      -9.438  10.943 -22.666  1.00  0.00     0.088 A 
HETATM   49  N4  UNL     1      -9.813   9.712 -22.288  1.00  0.00    -0.368 N 
ATOM     50  H4  UNL     1      -9.905   9.516 -21.291  1.00  0.00     0.165 HD
ENDBRANCH  43  44
ENDBRANCH  41  43
ENDBRANCH  38  41
ENDBRANCH  13  38
TORSDOF 9
ENDMDL
MODEL 4
REMARK VINA RESULT: -10.810329586      1.151      1.405
REMARK  9 active torsions:
REMARK  status: ('A' for Active; 'I' for Inactive)
REMARK       I    between atoms: C1_2  and  N1_3 
REMARK    1  A    between atoms: C1_2  and  C25_39 
REMARK    2  A    between atoms: N1_3  and  C2_5 
REMARK    3  A    between atoms: C4_7  and  C5_8 
REMARK    4  A    between atoms: N2_20  and  C17_21 
REMARK    5  A    between atoms: C17_21  and  O2_22 
REMARK    6  A    between atoms: C17_21  and  N3_24 
REMARK    7  A    between atoms: N3_24  and  C18_26 
REMARK    8  A    between atoms: C18_26  and  C19_27 
REMARK    9  A    between atoms: C29_43  and  C30_44 
ROOT
HETATM    1  C5  UNL     1      -7.038   3.403 -20.907  1.00  0.00     0.004 A 
HETATM    2  C6  UNL     1      -7.893   2.436 -21.473  1.00  0.00     0.015 A 
HETATM    3  C7  UNL     1      -8.967   2.784 -22.223  1.00  0.00     0.003 A 
HETATM    4  C8  UNL     1      -9.196   4.140 -22.413  1.00  0.00     0.031 A 
HETATM    5  C9  UNL     1      -8.394   5.118 -21.882  1.00  0.00     0.055 A 
HETATM    6  C10 UNL     1      -7.287   4.741 -21.110  1.00  0.00     0.016 A 
HETATM    7  C11 UNL     1      -6.640   5.893 -20.685  1.00  0.00     0.005 A 
HETATM    8  C12 UNL     1      -5.524   6.054 -19.906  1.00  0.00     0.014 A 
HETATM    9  C13 UNL     1      -5.107   7.370 -19.635  1.00  0.00     0.001 A 
HETATM   10  C14 UNL     1      -5.779   8.444 -20.124  1.00  0.00     0.002 A 
HETATM   11  C15 UNL     1      -6.903   8.205 -20.906  1.00  0.00     0.031 A 
HETATM   12  C16 UNL     1      -7.373   6.946 -21.215  1.00  0.00     0.054 A 
HETATM   13  N2  UNL     1      -8.414   6.494 -21.926  1.00  0.00    -0.276 N 
ENDROOT
BRANCH   1  14
HETATM   14  C4  UNL     1      -5.918   2.905 -20.125  1.00  0.00     0.047 A 
HETATM   15  C3  UNL     1      -4.622   3.131 -20.532  1.00  0.00     0.079 A 
HETATM   16  C2  UNL     1      -3.513   2.702 -19.805  1.00  0.00     0.110 A 
HETATM   17  N6  UNL     1      -3.796   2.044 -18.662  1.00  0.00    -0.338 N 
HETATM   18  C24 UNL     1      -5.066   1.831 -18.276  1.00  0.00     0.182 A 
ATOM     19  H6  UNL     1      -3.032   1.701 -18.080  1.00  0.00     0.168 HD
HETATM   20  N5  UNL     1      -6.137   2.244 -18.977  1.00  0.00    -0.352 N 
ATOM     21  H5  UNL     1      -7.084   2.061 -18.647  1.00  0.00     0.166 HD
BRANCH  16  22
HETATM   22  N1  UNL     1      -2.315   2.936 -20.220  1.00  0.00    -0.309 N 
HETATM   23  C1  UNL     1      -1.210   2.099 -20.113  1.00  0.00     0.257 C 
HETATM   24  O1  UNL     1      -0.673   1.915 -18.992  1.00  0.00    -0.267 OA
ATOM     25  H1  UNL     1      -2.161   3.834 -20.679  1.00  0.00     0.170 HD
BRANCH  23  26
HETATM   26  C25 UNL     1      -0.656   1.426 -21.265  1.00  0.00     0.033 A 
HETATM   27  C26 UNL     1      -1.384   1.437 -22.444  1.00  0.00     0.017 A 
HETATM   28  C27 UNL     1      -0.870   0.809 -23.533  1.00  0.00     0.002 A 
HETATM   29  C28 UNL     1       0.348   0.169 -23.494  1.00  0.00     0.012 A 
HETATM   30  C29 UNL     1       1.094   0.149 -22.316  1.00  0.00    -0.025 A 
HETATM   31  C36 UNL     1       0.571   0.781 -21.228  1.00  0.00     0.029 A 
BRANCH  30  32
HETATM   32  C30 UNL     1       2.374  -0.539 -22.330  1.00  0.00    -0.026 A 
HETATM   33  C31 UNL     1       2.413  -1.834 -22.790  1.00  0.00     0.012 A 
HETATM   34  C32 UNL     1       3.614  -2.550 -22.831  1.00  0.00     0.001 A 
HETATM   35  C33 UNL     1       4.773  -1.974 -22.412  1.00  0.00     0.000 A 
HETATM   36  C34 UNL     1       4.752  -0.673 -21.947  1.00  0.00     0.001 A 
HETATM   37  C35 UNL     1       3.556   0.033 -21.909  1.00  0.00     0.012 A 
ENDBRANCH  30  32
ENDBRANCH  23  26
ENDBRANCH  16  22
ENDBRANCH   1  14
BRANCH  13  38
HETATM   38  C17 UNL     1      -9.408   7.214 -22.616  1.00  0.00     0.225 C 
BRANCH  38  39
HETATM   39  O2  UNL     1     -10.623   7.204 -22.141  1.00  0.00    -0.332 OA
ATOM     40  H2  UNL     1     -10.937   6.412 -21.721  1.00  0.00     0.221 HD
ENDBRANCH  38  39
BRANCH  38  41
HETATM   41  N3  UNL     1      -9.308   7.974 -23.783  1.00  0.00    -0.350 N 
ATOM     42  H3  UNL     1      -9.768   8.881 -23.860  1.00  0.00     0.163 HD
BRANCH  41  43
HETATM   43  C18 UNL     1      -8.510   7.423 -24.912  1.00  0.00     0.180 C 
BRANCH  43  44
HETATM   44  C19 UNL     1      -7.164   8.030 -24.957  1.00  0.00     0.026 A 
HETATM   45  C20 UNL     1      -6.120   7.246 -24.515  1.00  0.00     0.027 A 
HETATM   46  C21 UNL     1      -4.847   7.775 -24.538  1.00  0.00     0.003 A 
HETATM   47  C22 UNL     1      -4.636   9.061 -24.994  1.00  0.00     0.017 A 
HETATM   48  C23 UNL     1      -5.704   9.820 -25.430  1.00  0.00     0.088 A 
HETATM   49  N4  UNL     1      -6.929   9.276 -25.395  1.00  0.00    -0.368 N 
ATOM     50  H4  UNL     1      -7.719   9.835 -25.717  1.00  0.00     0.165 HD
ENDBRANCH  43  44
ENDBRANCH  41  43
ENDBRANCH  38  41
ENDBRANCH  13  38
TORSDOF 9
ENDMDL
MODEL 5
REMARK VINA RESULT: -10.804439291      2.733      8.987
REMARK  9 active torsions:
REMARK  status: ('A' for Active; 'I' for Inactive)
REMARK       I    between atoms: C1_2  and  N1_3 
REMARK    1  A    between atoms: C1_2  and  C25_39 
REMARK    2  A    between atoms: N1_3  and  C2_5 
REMARK    3  A    between atoms: C4_7  and  C5_8 
REMARK    4  A    between atoms: N2_20  and  C17_21 
REMARK    5  A    between atoms: C17_21  and  O2_22 
REMARK    6  A    between atoms: C17_21  and  N3_24 
REMARK    7  A    between atoms: N3_24  and  C18_26 
REMARK    8  A    between atoms: C18_26  and  C19_27 
REMARK    9  A    between atoms: C29_43  and  C30_44 
ROOT
HETATM    1  C5  UNL     1      -8.573   5.256 -22.172  1.00  0.00     0.004 A 
HETATM    2  C6  UNL     1      -9.062   3.971 -22.480  1.00  0.00     0.015 A 
HETATM    3  C7  UNL     1      -8.633   2.867 -21.822  1.00  0.00     0.003 A 
HETATM    4  C8  UNL     1      -7.684   3.051 -20.825  1.00  0.00     0.031 A 
HETATM    5  C9  UNL     1      -7.177   4.281 -20.490  1.00  0.00     0.055 A 
HETATM    6  C10 UNL     1      -7.633   5.412 -21.180  1.00  0.00     0.016 A 
HETATM    7  C11 UNL     1      -6.978   6.524 -20.671  1.00  0.00     0.005 A 
HETATM    8  C12 UNL     1      -7.069   7.848 -21.015  1.00  0.00     0.014 A 
HETATM    9  C13 UNL     1      -6.258   8.758 -20.312  1.00  0.00     0.001 A 
HETATM   10  C14 UNL     1      -5.417   8.348 -19.328  1.00  0.00     0.002 A 
HETATM   11  C15 UNL     1      -5.377   6.990 -19.033  1.00  0.00     0.031 A 
HETATM   12  C16 UNL     1      -6.140   6.039 -19.677  1.00  0.00     0.054 A 
HETATM   13  N2  UNL     1      -6.252   4.709 -19.564  1.00  0.00    -0.276 N 
ENDROOT
BRANCH   1  14
HETATM   14  C4  UNL     1      -9.113   6.362 -22.946  1.00  0.00     0.047 A 
HETATM   15  C3  UNL     1      -8.567   6.698 -24.165  1.00  0.00     0.079 A 
HETATM   16  C2  UNL     1      -9.065   7.728 -24.961  1.00  0.00     0.110 A 
HETATM   17  N6  UNL     1     -10.129   8.382 -24.453  1.00  0.00    -0.338 N 
HETATM   18  C24 UNL     1     -10.653   8.044 -23.262  1.00  0.00     0.182 A 
ATOM     19  H6  UNL     1     -10.545   9.149 -24.982  1.00  0.00     0.168 HD
HETATM   20  N5  UNL     1     -10.173   7.050 -22.493  1.00  0.00    -0.352 N 
ATOM     21  H5  UNL     1     -10.601   6.826 -21.595  1.00  0.00     0.166 HD
BRANCH  16  22
HETATM   22  N1  UNL     1      -8.525   8.009 -26.097  1.00  0.00    -0.309 N 
HETATM   23  C1  UNL     1      -7.741   9.116 -26.405  1.00  0.00     0.257 C 
HETATM   24  O1  UNL     1      -8.272  10.251 -26.494  1.00  0.00    -0.267 OA
ATOM     25  H1  UNL     1      -8.692   7.347 -26.855  1.00  0.00     0.170 HD
BRANCH  23  26
HETATM   26  C25 UNL     1      -6.318   8.997 -26.626  1.00  0.00     0.033 A 
HETATM   27  C26 UNL     1      -5.462   9.651 -25.753  1.00  0.00     0.017 A 
HETATM   28  C27 UNL     1      -4.124   9.543 -25.951  1.00  0.00     0.002 A 
HETATM   29  C28 UNL     1      -3.601   8.804 -26.989  1.00  0.00     0.012 A 
HETATM   30  C29 UNL     1      -4.448   8.140 -27.876  1.00  0.00    -0.025 A 
HETATM   31  C36 UNL     1      -5.790   8.254 -27.670  1.00  0.00     0.029 A 
BRANCH  30  32
HETATM   32  C30 UNL     1      -3.844   7.372 -28.952  1.00  0.00    -0.026 A 
HETATM   33  C31 UNL     1      -2.572   6.885 -28.770  1.00  0.00     0.012 A 
HETATM   34  C32 UNL     1      -1.936   6.138 -29.767  1.00  0.00     0.001 A 
HETATM   35  C33 UNL     1      -2.569   5.878 -30.943  1.00  0.00     0.000 A 
HETATM   36  C34 UNL     1      -3.849   6.359 -31.141  1.00  0.00     0.001 A 
HETATM   37  C35 UNL     1      -4.476   7.102 -30.147  1.00  0.00     0.012 A 
ENDBRANCH  30  32
ENDBRANCH  23  26
ENDBRANCH  16  22
ENDBRANCH   1  14
BRANCH  13  38
HETATM   38  C17 UNL     1      -5.582   3.823 -18.699  1.00  0.00     0.225 C 
BRANCH  38  39
HETATM   39  O2  UNL     1      -5.689   4.014 -17.413  1.00  0.00    -0.332 OA
ATOM     40  H2  UNL     1      -4.896   4.165 -16.911  1.00  0.00     0.221 HD
ENDBRANCH  38  39
BRANCH  38  41
HETATM   41  N3  UNL     1      -4.780   2.721 -19.001  1.00  0.00    -0.350 N 
ATOM     42  H3  UNL     1      -4.746   1.911 -18.382  1.00  0.00     0.163 HD
BRANCH  41  43
HETATM   43  C18 UNL     1      -3.975   2.761 -20.252  1.00  0.00     0.180 C 
BRANCH  43  44
HETATM   44  C19 UNL     1      -2.541   2.551 -19.968  1.00  0.00     0.026 A 
HETATM   45  C20 UNL     1      -1.652   2.995 -20.923  1.00  0.00     0.027 A 
HETATM   46  C21 UNL     1      -0.304   2.816 -20.698  1.00  0.00     0.003 A 
HETATM   47  C22 UNL     1       0.134   2.205 -19.541  1.00  0.00     0.017 A 
HETATM   48  C23 UNL     1      -0.783   1.771 -18.604  1.00  0.00     0.088 A 
HETATM   49  N4  UNL     1      -2.087   1.960 -18.852  1.00  0.00    -0.368 N 
ATOM     50  H4  UNL     1      -2.765   1.640 -18.161  1.00  0.00     0.165 HD
ENDBRANCH  43  44
ENDBRANCH  41  43
ENDBRANCH  38  41
ENDBRANCH  13  38
TORSDOF 9
ENDMDL
