MODEL 1
REMARK VINA RESULT: -10.354378454      0.000      0.000
REMARK  5 active torsions:
REMARK  status: ('A' for Active; 'I' for Inactive)
REMARK    1  A    between atoms: N1_14  and  C12_15 
REMARK    2  A    between atoms: C12_15  and  C13_16 
REMARK    3  A    between atoms: C21_24  and  C22_25 
REMARK    4  A    between atoms: N4_32  and  C24_33 
REMARK    5  A    between atoms: C29_38  and  C30_39 
ROOT
HETATM    1  C1  UNL     1       0.939   3.086 -21.528  1.00  0.00     0.025 C 
HETATM    2  C2  UNL     1       0.302   2.049 -21.163  1.00  0.00    -0.020 A 
HETATM    3  C3  UNL     1       0.948   0.748 -20.825  1.00  0.00    -0.013 A 
HETATM    4  C4  UNL     1       2.301   0.444 -20.858  1.00  0.00     0.013 A 
HETATM    5  C5  UNL     1       2.714  -0.812 -20.509  1.00  0.00     0.001 A 
HETATM    6  C6  UNL     1       1.835  -1.818 -20.105  1.00  0.00     0.001 A 
HETATM    7  C7  UNL     1       0.496  -1.471 -20.088  1.00  0.00     0.015 A 
HETATM    8  C8  UNL     1       0.061  -0.207 -20.441  1.00  0.00     0.010 A 
HETATM    9  C9  UNL     1      -1.243   0.426 -20.518  1.00  0.00     0.099 A 
HETATM   10  O1  UNL     1      -2.485   0.130 -20.282  1.00  0.00    -0.302 OA
HETATM   11  C10 UNL     1      -3.248   1.169 -20.522  1.00  0.00     0.156 A 
HETATM   12  C11 UNL     1      -4.599   1.336 -20.404  1.00  0.00     0.287 A 
HETATM   13  O2  UNL     1      -5.366   0.440 -20.016  1.00  0.00    -0.264 OA
HETATM   14  N1  UNL     1      -5.178   2.536 -20.726  1.00  0.00    -0.286 N 
HETATM   15  C19 UNL     1      -4.419   3.579 -21.179  1.00  0.00     0.054 A 
HETATM   16  C20 UNL     1      -5.017   4.772 -21.545  1.00  0.00     0.042 A 
HETATM   17  C21 UNL     1      -4.274   5.835 -22.052  1.00  0.00    -0.012 A 
HETATM   18  C32 UNL     1      -2.940   5.618 -22.161  1.00  0.00     0.012 A 
HETATM   19  C33 UNL     1      -2.290   4.418 -21.792  1.00  0.00     0.015 A 
HETATM   20  C34 UNL     1      -3.026   3.404 -21.297  1.00  0.00     0.005 A 
HETATM   21  C35 UNL     1      -2.437   2.213 -20.960  1.00  0.00     0.030 A 
HETATM   22  C36 UNL     1      -1.134   1.751 -20.951  1.00  0.00     0.023 A 
ENDROOT
BRANCH  17  23
HETATM   23  C22 UNL     1      -4.967   7.082 -22.337  1.00  0.00     0.242 C 
HETATM   24  N2  UNL     1      -3.928   7.933 -22.993  1.00  0.00    -0.339 N 
HETATM   25  C23 UNL     1      -4.201   7.895 -24.375  1.00  0.00     0.188 C 
ATOM     26  H2  UNL     1      -3.173   8.441 -22.532  1.00  0.00     0.164 HD
HETATM   27  S1  UNL     1      -3.166   8.398 -25.548  1.00  0.00    -0.039 SA
HETATM   28  N3  UNL     1      -5.506   7.374 -24.549  1.00  0.00    -0.271 N 
HETATM   29  N4  UNL     1      -6.051   7.103 -23.237  1.00  0.00    -0.261 N 
ATOM     30  H3  UNL     1      -5.978   7.218 -25.440  1.00  0.00     0.189 HD
BRANCH  29  31
HETATM   31  C24 UNL     1      -7.459   6.986 -23.140  1.00  0.00     0.060 A 
HETATM   32  C25 UNL     1      -8.135   5.855 -23.505  1.00  0.00     0.032 A 
HETATM   33  C26 UNL     1      -9.509   5.710 -23.449  1.00  0.00     0.002 A 
HETATM   34  C27 UNL     1     -10.263   6.760 -22.987  1.00  0.00     0.001 A 
HETATM   35  C28 UNL     1      -9.640   7.915 -22.598  1.00  0.00     0.009 A 
HETATM   36  C29 UNL     1      -8.245   8.047 -22.674  1.00  0.00    -0.030 A 
BRANCH  36  37
HETATM   37  C30 UNL     1      -7.590   9.296 -22.267  1.00  0.00     0.036 C 
HETATM   38  C31 UNL     1      -8.400  10.492 -22.717  1.00  0.00     0.010 C 
ENDBRANCH  36  37
ENDBRANCH  29  31
ENDBRANCH  17  23
BRANCH  14  39
HETATM   39  C12 UNL     1      -6.539   2.734 -20.353  1.00  0.00     0.112 C 
BRANCH  39  40
HETATM   40  C13 UNL     1      -6.886   3.884 -19.552  1.00  0.00    -0.020 A 
HETATM   41  C14 UNL     1      -7.727   4.818 -20.219  1.00  0.00     0.013 A 
HETATM   42  C15 UNL     1      -8.081   5.990 -19.625  1.00  0.00     0.001 A 
HETATM   43  C16 UNL     1      -7.638   6.289 -18.380  1.00  0.00     0.000 A 
HETATM   44  C17 UNL     1      -6.825   5.429 -17.678  1.00  0.00     0.001 A 
HETATM   45  C18 UNL     1      -6.469   4.226 -18.300  1.00  0.00     0.013 A 
ENDBRANCH  39  40
ENDBRANCH  14  39
TORSDOF 5
ENDMDL
MODEL 2
REMARK VINA RESULT: -10.212488367      2.220      4.236
REMARK  5 active torsions:
REMARK  status: ('A' for Active; 'I' for Inactive)
REMARK    1  A    between atoms: N1_14  and  C12_15 
REMARK    2  A    between atoms: C12_15  and  C13_16 
REMARK    3  A    between atoms: C21_24  and  C22_25 
REMARK    4  A    between atoms: N4_32  and  C24_33 
REMARK    5  A    between atoms: C29_38  and  C30_39 
ROOT
HETATM    1  C1  UNL     1      -1.452   3.105 -21.980  1.00  0.00     0.025 C 
HETATM    2  C2  UNL     1      -2.393   2.896 -21.153  1.00  0.00    -0.020 A 
HETATM    3  C3  UNL     1      -2.435   1.740 -20.211  1.00  0.00    -0.013 A 
HETATM    4  C4  UNL     1      -1.501   0.722 -20.083  1.00  0.00     0.013 A 
HETATM    5  C5  UNL     1      -1.705  -0.262 -19.156  1.00  0.00     0.001 A 
HETATM    6  C6  UNL     1      -2.815  -0.292 -18.310  1.00  0.00     0.001 A 
HETATM    7  C7  UNL     1      -3.721   0.740 -18.474  1.00  0.00     0.015 A 
HETATM    8  C8  UNL     1      -3.531   1.741 -19.408  1.00  0.00     0.010 A 
HETATM    9  C9  UNL     1      -4.289   2.917 -19.795  1.00  0.00     0.099 A 
HETATM   10  O1  UNL     1      -5.380   3.531 -19.450  1.00  0.00    -0.302 OA
HETATM   11  C10 UNL     1      -5.539   4.610 -20.177  1.00  0.00     0.156 A 
HETATM   12  C11 UNL     1      -6.517   5.564 -20.164  1.00  0.00     0.287 A 
HETATM   13  O2  UNL     1      -7.484   5.539 -19.386  1.00  0.00    -0.264 OA
HETATM   14  N1  UNL     1      -6.467   6.617 -21.040  1.00  0.00    -0.286 N 
HETATM   15  C19 UNL     1      -5.450   6.724 -21.947  1.00  0.00     0.054 A 
HETATM   16  C20 UNL     1      -5.432   7.764 -22.859  1.00  0.00     0.042 A 
HETATM   17  C21 UNL     1      -4.432   7.873 -23.823  1.00  0.00    -0.012 A 
HETATM   18  C32 UNL     1      -3.492   6.897 -23.804  1.00  0.00     0.012 A 
HETATM   19  C33 UNL     1      -3.470   5.822 -22.886  1.00  0.00     0.015 A 
HETATM   20  C34 UNL     1      -4.442   5.739 -21.956  1.00  0.00     0.005 A 
HETATM   21  C35 UNL     1      -4.474   4.693 -21.071  1.00  0.00     0.030 A 
HETATM   22  C36 UNL     1      -3.650   3.611 -20.828  1.00  0.00     0.023 A 
ENDROOT
BRANCH  17  23
HETATM   23  C22 UNL     1      -4.442   9.040 -24.691  1.00  0.00     0.242 C 
HETATM   24  N2  UNL     1      -3.141   8.957 -25.423  1.00  0.00    -0.339 N 
HETATM   25  C23 UNL     1      -3.441   8.458 -26.707  1.00  0.00     0.188 C 
ATOM     26  H2  UNL     1      -2.220   9.212 -25.066  1.00  0.00     0.164 HD
HETATM   27  S1  UNL     1      -2.329   7.884 -27.772  1.00  0.00    -0.039 SA
HETATM   28  N3  UNL     1      -4.839   8.564 -26.902  1.00  0.00    -0.271 N 
HETATM   29  N4  UNL     1      -5.406   9.159 -25.711  1.00  0.00    -0.261 N 
ATOM     30  H3  UNL     1      -5.355   8.272 -27.733  1.00  0.00     0.189 HD
BRANCH  29  31
HETATM   31  C24 UNL     1      -6.690   9.744 -25.837  1.00  0.00     0.060 A 
HETATM   32  C25 UNL     1      -6.877  11.085 -26.028  1.00  0.00     0.032 A 
HETATM   33  C26 UNL     1      -8.112  11.698 -26.130  1.00  0.00     0.002 A 
HETATM   34  C27 UNL     1      -9.242  10.920 -26.048  1.00  0.00     0.001 A 
HETATM   35  C28 UNL     1      -9.115   9.570 -25.866  1.00  0.00     0.009 A 
HETATM   36  C29 UNL     1      -7.852   8.968 -25.753  1.00  0.00    -0.030 A 
BRANCH  36  37
HETATM   37  C30 UNL     1      -7.731   7.520 -25.544  1.00  0.00     0.036 C 
HETATM   38  C31 UNL     1      -8.870   6.789 -26.220  1.00  0.00     0.010 C 
ENDBRANCH  36  37
ENDBRANCH  29  31
ENDBRANCH  17  23
BRANCH  14  39
HETATM   39  C12 UNL     1      -7.364   7.702 -20.821  1.00  0.00     0.112 C 
BRANCH  39  40
HETATM   40  C13 UNL     1      -8.507   7.852 -21.691  1.00  0.00    -0.020 A 
HETATM   41  C14 UNL     1      -8.791   9.201 -22.041  1.00  0.00     0.013 A 
HETATM   42  C15 UNL     1      -9.881   9.514 -22.793  1.00  0.00     0.001 A 
HETATM   43  C16 UNL     1     -10.720   8.541 -23.225  1.00  0.00     0.000 A 
HETATM   44  C17 UNL     1     -10.501   7.216 -22.925  1.00  0.00     0.001 A 
HETATM   45  C18 UNL     1      -9.375   6.907 -22.152  1.00  0.00     0.013 A 
ENDBRANCH  39  40
ENDBRANCH  14  39
TORSDOF 5
ENDMDL
MODEL 3
REMARK VINA RESULT: -9.878868602      5.795     11.485
REMARK  5 active torsions:
REMARK  status: ('A' for Active; 'I' for Inactive)
REMARK    1  A    between atoms: N1_14  and  C12_15 
REMARK    2  A    between atoms: C12_15  and  C13_16 
REMARK    3  A    between atoms: C21_24  and  C22_25 
REMARK    4  A    between atoms: N4_32  and  C24_33 
REMARK    5  A    between atoms: C29_38  and  C30_39 
ROOT
HETATM    1  C1  UNL     1      -2.299   2.307 -22.418  1.00  0.00     0.025 C 
HETATM    2  C2  UNL     1      -1.934   1.501 -21.507  1.00  0.00    -0.020 A 
HETATM    3  C3  UNL     1      -2.667   1.305 -20.223  1.00  0.00    -0.013 A 
HETATM    4  C4  UNL     1      -3.823   1.948 -19.805  1.00  0.00     0.013 A 
HETATM    5  C5  UNL     1      -4.361   1.636 -18.587  1.00  0.00     0.001 A 
HETATM    6  C6  UNL     1      -3.806   0.682 -17.732  1.00  0.00     0.001 A 
HETATM    7  C7  UNL     1      -2.654   0.067 -18.188  1.00  0.00     0.015 A 
HETATM    8  C8  UNL     1      -2.096   0.373 -19.415  1.00  0.00     0.010 A 
HETATM    9  C9  UNL     1      -0.926  -0.095 -20.136  1.00  0.00     0.099 A 
HETATM   10  O1  UNL     1       0.030  -0.960 -19.986  1.00  0.00    -0.302 OA
HETATM   11  C10 UNL     1       0.815  -0.951 -21.036  1.00  0.00     0.156 A 
HETATM   12  C11 UNL     1       1.926  -1.689 -21.331  1.00  0.00     0.287 A 
HETATM   13  O2  UNL     1       2.392  -2.555 -20.573  1.00  0.00    -0.264 OA
HETATM   14  N1  UNL     1       2.593  -1.492 -22.513  1.00  0.00    -0.286 N 
HETATM   15  C19 UNL     1       2.167  -0.549 -23.407  1.00  0.00     0.054 A 
HETATM   16  C20 UNL     1       2.872  -0.325 -24.575  1.00  0.00     0.042 A 
HETATM   17  C21 UNL     1       2.487   0.660 -25.483  1.00  0.00    -0.012 A 
HETATM   18  C32 UNL     1       1.386   1.373 -25.140  1.00  0.00     0.012 A 
HETATM   19  C33 UNL     1       0.634   1.171 -23.961  1.00  0.00     0.015 A 
HETATM   20  C34 UNL     1       1.019   0.209 -23.100  1.00  0.00     0.005 A 
HETATM   21  C35 UNL     1       0.336   0.005 -21.929  1.00  0.00     0.030 A 
HETATM   22  C36 UNL     1      -0.798   0.559 -21.366  1.00  0.00     0.023 A 
ENDROOT
BRANCH  17  23
HETATM   23  C22 UNL     1       3.235   0.777 -26.725  1.00  0.00     0.242 C 
HETATM   24  N2  UNL     1       2.889   2.142 -27.228  1.00  0.00    -0.339 N 
HETATM   25  C23 UNL     1       3.989   2.968 -26.918  1.00  0.00     0.188 C 
ATOM     26  H2  UNL     1       2.029   2.420 -27.701  1.00  0.00     0.164 HD
HETATM   27  S1  UNL     1       3.971   4.610 -26.970  1.00  0.00    -0.039 SA
HETATM   28  N3  UNL     1       5.083   2.133 -26.585  1.00  0.00    -0.271 N 
HETATM   29  N4  UNL     1       4.643   0.760 -26.711  1.00  0.00    -0.261 N 
ATOM     30  H3  UNL     1       6.014   2.443 -26.306  1.00  0.00     0.189 HD
BRANCH  29  31
HETATM   31  C24 UNL     1       5.651  -0.225 -26.844  1.00  0.00     0.060 A 
HETATM   32  C25 UNL     1       6.575  -0.476 -25.867  1.00  0.00     0.032 A 
HETATM   33  C26 UNL     1       7.589  -1.411 -25.968  1.00  0.00     0.002 A 
HETATM   34  C27 UNL     1       7.685  -2.157 -27.117  1.00  0.00     0.001 A 
HETATM   35  C28 UNL     1       6.782  -1.955 -28.126  1.00  0.00     0.009 A 
HETATM   36  C29 UNL     1       5.767  -0.993 -28.009  1.00  0.00    -0.030 A 
BRANCH  36  37
HETATM   37  C30 UNL     1       4.814  -0.777 -29.104  1.00  0.00     0.036 C 
HETATM   38  C31 UNL     1       3.848  -1.938 -29.204  1.00  0.00     0.010 C 
ENDBRANCH  36  37
ENDBRANCH  29  31
ENDBRANCH  17  23
BRANCH  14  39
HETATM   39  C12 UNL     1       3.585  -2.446 -22.879  1.00  0.00     0.112 C 
BRANCH  39  40
HETATM   40  C13 UNL     1       3.291  -3.395 -23.927  1.00  0.00    -0.020 A 
HETATM   41  C14 UNL     1       4.221  -3.370 -25.004  1.00  0.00     0.013 A 
HETATM   42  C15 UNL     1       4.040  -4.152 -26.103  1.00  0.00     0.001 A 
HETATM   43  C16 UNL     1       2.967  -4.974 -26.191  1.00  0.00     0.000 A 
HETATM   44  C17 UNL     1       2.032  -5.050 -25.184  1.00  0.00     0.001 A 
HETATM   45  C18 UNL     1       2.230  -4.241 -24.058  1.00  0.00     0.013 A 
ENDBRANCH  39  40
ENDBRANCH  14  39
TORSDOF 5
ENDMDL
MODEL 4
REMARK VINA RESULT: -9.866369149      5.817     11.527
REMARK  5 active torsions:
REMARK  status: ('A' for Active; 'I' for Inactive)
REMARK    1  A    between atoms: N1_14  and  C12_15 
REMARK    2  A    between atoms: C12_15  and  C13_16 
REMARK    3  A    between atoms: C21_24  and  C22_25 
REMARK    4  A    between atoms: N4_32  and  C24_33 
REMARK    5  A    between atoms: C29_38  and  C30_39 
ROOT
HETATM    1  C1  UNL     1      -2.196   2.276 -22.416  1.00  0.00     0.025 C 
HETATM    2  C2  UNL     1      -1.787   1.459 -21.533  1.00  0.00    -0.020 A 
HETATM    3  C3  UNL     1      -2.464   1.239 -20.222  1.00  0.00    -0.013 A 
HETATM    4  C4  UNL     1      -3.605   1.869 -19.746  1.00  0.00     0.013 A 
HETATM    5  C5  UNL     1      -4.088   1.535 -18.511  1.00  0.00     0.001 A 
HETATM    6  C6  UNL     1      -3.490   0.573 -17.695  1.00  0.00     0.001 A 
HETATM    7  C7  UNL     1      -2.355  -0.027 -18.208  1.00  0.00     0.015 A 
HETATM    8  C8  UNL     1      -1.852   0.300 -19.454  1.00  0.00     0.010 A 
HETATM    9  C9  UNL     1      -0.711  -0.149 -20.231  1.00  0.00     0.099 A 
HETATM   10  O1  UNL     1       0.256  -1.009 -20.134  1.00  0.00    -0.302 OA
HETATM   11  C10 UNL     1       0.995  -0.980 -21.217  1.00  0.00     0.156 A 
HETATM   12  C11 UNL     1       2.098  -1.705 -21.570  1.00  0.00     0.287 A 
HETATM   13  O2  UNL     1       2.601  -2.579 -20.846  1.00  0.00    -0.264 OA
HETATM   14  N1  UNL     1       2.712  -1.486 -22.776  1.00  0.00    -0.286 N 
HETATM   15  C19 UNL     1       2.242  -0.534 -23.637  1.00  0.00     0.054 A 
HETATM   16  C20 UNL     1       2.895  -0.288 -24.831  1.00  0.00     0.042 A 
HETATM   17  C21 UNL     1       2.465   0.707 -25.707  1.00  0.00    -0.012 A 
HETATM   18  C32 UNL     1       1.375   1.408 -25.307  1.00  0.00     0.012 A 
HETATM   19  C33 UNL     1       0.675   1.183 -24.099  1.00  0.00     0.015 A 
HETATM   20  C34 UNL     1       1.103   0.211 -23.270  1.00  0.00     0.005 A 
HETATM   21  C35 UNL     1       0.473  -0.014 -22.074  1.00  0.00     0.030 A 
HETATM   22  C36 UNL     1      -0.640   0.524 -21.456  1.00  0.00     0.023 A 
ENDROOT
BRANCH  17  23
HETATM   23  C22 UNL     1       3.158   0.848 -26.978  1.00  0.00     0.242 C 
HETATM   24  N2  UNL     1       2.924   2.274 -27.362  1.00  0.00    -0.339 N 
HETATM   25  C23 UNL     1       4.114   2.966 -27.057  1.00  0.00     0.188 C 
ATOM     26  H2  UNL     1       2.073   2.667 -27.765  1.00  0.00     0.164 HD
HETATM   27  S1  UNL     1       4.255   4.601 -26.991  1.00  0.00    -0.039 SA
HETATM   28  N3  UNL     1       5.135   2.008 -26.847  1.00  0.00    -0.271 N 
HETATM   29  N4  UNL     1       4.557   0.696 -27.046  1.00  0.00    -0.261 N 
ATOM     30  H3  UNL     1       6.105   2.206 -26.600  1.00  0.00     0.189 HD
BRANCH  29  31
HETATM   31  C24 UNL     1       5.455  -0.367 -27.306  1.00  0.00     0.060 A 
HETATM   32  C25 UNL     1       5.416  -1.105 -28.457  1.00  0.00     0.032 A 
HETATM   33  C26 UNL     1       6.258  -2.165 -28.738  1.00  0.00     0.002 A 
HETATM   34  C27 UNL     1       7.213  -2.510 -27.813  1.00  0.00     0.001 A 
HETATM   35  C28 UNL     1       7.305  -1.801 -26.646  1.00  0.00     0.009 A 
HETATM   36  C29 UNL     1       6.433  -0.735 -26.375  1.00  0.00    -0.030 A 
BRANCH  36  37
HETATM   37  C30 UNL     1       6.534   0.008 -25.113  1.00  0.00     0.036 C 
HETATM   38  C31 UNL     1       7.965   0.426 -24.854  1.00  0.00     0.010 C 
ENDBRANCH  36  37
ENDBRANCH  29  31
ENDBRANCH  17  23
BRANCH  14  39
HETATM   39  C12 UNL     1       3.693  -2.428 -23.198  1.00  0.00     0.112 C 
BRANCH  39  40
HETATM   40  C13 UNL     1       3.326  -3.439 -24.161  1.00  0.00    -0.020 A 
HETATM   41  C14 UNL     1       4.235  -3.557 -25.249  1.00  0.00     0.013 A 
HETATM   42  C15 UNL     1       3.989  -4.412 -26.278  1.00  0.00     0.001 A 
HETATM   43  C16 UNL     1       2.868  -5.173 -26.284  1.00  0.00     0.000 A 
HETATM   44  C17 UNL     1       1.949  -5.112 -25.261  1.00  0.00     0.001 A 
HETATM   45  C18 UNL     1       2.215  -4.229 -24.208  1.00  0.00     0.013 A 
ENDBRANCH  39  40
ENDBRANCH  14  39
TORSDOF 5
ENDMDL
MODEL 5
REMARK VINA RESULT: -9.375399510      5.803     10.439
REMARK  5 active torsions:
REMARK  status: ('A' for Active; 'I' for Inactive)
REMARK    1  A    between atoms: N1_14  and  C12_15 
REMARK    2  A    between atoms: C12_15  and  C13_16 
REMARK    3  A    between atoms: C21_24  and  C22_25 
REMARK    4  A    between atoms: N4_32  and  C24_33 
REMARK    5  A    between atoms: C29_38  and  C30_39 
ROOT
HETATM    1  C1  UNL     1      -1.681   2.858 -22.293  1.00  0.00     0.025 C 
HETATM    2  C2  UNL     1      -1.538   1.884 -21.490  1.00  0.00    -0.020 A 
HETATM    3  C3  UNL     1      -2.471   1.584 -20.365  1.00  0.00    -0.013 A 
HETATM    4  C4  UNL     1      -3.607   2.292 -20.002  1.00  0.00     0.013 A 
HETATM    5  C5  UNL     1      -4.349   1.866 -18.935  1.00  0.00     0.001 A 
HETATM    6  C6  UNL     1      -4.025   0.732 -18.187  1.00  0.00     0.001 A 
HETATM    7  C7  UNL     1      -2.884   0.059 -18.584  1.00  0.00     0.015 A 
HETATM    8  C8  UNL     1      -2.121   0.478 -19.658  1.00  0.00     0.010 A 
HETATM    9  C9  UNL     1      -0.908  -0.013 -20.287  1.00  0.00     0.099 A 
HETATM   10  O1  UNL     1      -0.076  -1.001 -20.160  1.00  0.00    -0.302 OA
HETATM   11  C10 UNL     1       0.855  -0.927 -21.081  1.00  0.00     0.156 A 
HETATM   12  C11 UNL     1       1.919  -1.741 -21.347  1.00  0.00     0.287 A 
HETATM   13  O2  UNL     1       2.179  -2.762 -20.691  1.00  0.00    -0.264 OA
HETATM   14  N1  UNL     1       2.772  -1.448 -22.380  1.00  0.00    -0.286 N 
HETATM   15  C19 UNL     1       2.579  -0.335 -23.151  1.00  0.00     0.054 A 
HETATM   16  C20 UNL     1       3.470  -0.023 -24.162  1.00  0.00     0.042 A 
HETATM   17  C21 UNL     1       3.324   1.128 -24.933  1.00  0.00    -0.012 A 
HETATM   18  C32 UNL     1       2.260   1.910 -24.624  1.00  0.00     0.012 A 
HETATM   19  C33 UNL     1       1.324   1.623 -23.604  1.00  0.00     0.015 A 
HETATM   20  C34 UNL     1       1.479   0.501 -22.875  1.00  0.00     0.005 A 
HETATM   21  C35 UNL     1       0.612   0.205 -21.855  1.00  0.00     0.030 A 
HETATM   22  C36 UNL     1      -0.534   0.801 -21.362  1.00  0.00     0.023 A 
ENDROOT
BRANCH  17  23
HETATM   23  C22 UNL     1       4.257   1.342 -26.028  1.00  0.00     0.242 C 
HETATM   24  N2  UNL     1       4.605  -0.039 -26.484  1.00  0.00    -0.339 N 
HETATM   25  C23 UNL     1       3.856  -0.269 -27.656  1.00  0.00     0.188 C 
ATOM     26  H2  UNL     1       5.254  -0.686 -26.036  1.00  0.00     0.164 HD
HETATM   27  S1  UNL     1       3.637  -1.740 -28.353  1.00  0.00    -0.039 SA
HETATM   28  N3  UNL     1       3.363   0.978 -28.111  1.00  0.00    -0.271 N 
HETATM   29  N4  UNL     1       3.838   1.999 -27.202  1.00  0.00    -0.261 N 
ATOM     30  H3  UNL     1       2.778   1.130 -28.933  1.00  0.00     0.189 HD
BRANCH  29  31
HETATM   31  C24 UNL     1       3.835   3.332 -27.678  1.00  0.00     0.060 A 
HETATM   32  C25 UNL     1       4.981   4.014 -27.978  1.00  0.00     0.032 A 
HETATM   33  C26 UNL     1       5.022   5.324 -28.421  1.00  0.00     0.002 A 
HETATM   34  C27 UNL     1       3.838   5.999 -28.588  1.00  0.00     0.001 A 
HETATM   35  C28 UNL     1       2.658   5.364 -28.311  1.00  0.00     0.009 A 
HETATM   36  C29 UNL     1       2.638   4.038 -27.852  1.00  0.00    -0.030 A 
BRANCH  36  37
HETATM   37  C30 UNL     1       1.366   3.373 -27.545  1.00  0.00     0.036 C 
HETATM   38  C31 UNL     1       0.537   3.208 -28.801  1.00  0.00     0.010 C 
ENDBRANCH  36  37
ENDBRANCH  29  31
ENDBRANCH  17  23
BRANCH  14  39
HETATM   39  C12 UNL     1       3.708  -2.449 -22.767  1.00  0.00     0.112 C 
BRANCH  39  40
HETATM   40  C13 UNL     1       3.321  -3.424 -23.759  1.00  0.00    -0.020 A 
HETATM   41  C14 UNL     1       4.247  -3.554 -24.832  1.00  0.00     0.013 A 
HETATM   42  C15 UNL     1       3.989  -4.377 -25.884  1.00  0.00     0.001 A 
HETATM   43  C16 UNL     1       2.840  -5.093 -25.929  1.00  0.00     0.000 A 
HETATM   44  C17 UNL     1       1.904  -5.018 -24.922  1.00  0.00     0.001 A 
HETATM   45  C18 UNL     1       2.182  -4.168 -23.845  1.00  0.00     0.013 A 
ENDBRANCH  39  40
ENDBRANCH  14  39
TORSDOF 5
ENDMDL
