MODEL 1
REMARK VINA RESULT: -9.505320488      0.000      0.000
REMARK  6 active torsions:
REMARK  status: ('A' for Active; 'I' for Inactive)
REMARK       I    between atoms: C2_2  and  N1_4 
REMARK    1  A    between atoms: N1_4  and  C3_6 
REMARK    2  A    between atoms: C6_9  and  C7_10 
REMARK    3  A    between atoms: C10_13  and  N2_14 
REMARK    4  A    between atoms: C22_28  and  C23_29 
REMARK    5  A    between atoms: C26_34  and  N5_35 
REMARK       I    between atoms: N5_35  and  C27_37 
REMARK    6  A    between atoms: C27_37  and  C28_39 
ROOT
HETATM    1  C7  UNL     1      -3.084   2.418 -21.160  1.00  0.00    -0.025 A 
HETATM    2  C8  UNL     1      -4.262   1.731 -20.995  1.00  0.00     0.014 A 
HETATM    3  C9  UNL     1      -5.442   2.395 -20.951  1.00  0.00     0.032 A 
HETATM    4  C10 UNL     1      -5.492   3.809 -21.074  1.00  0.00     0.053 A 
HETATM    5  C22 UNL     1      -4.346   4.518 -21.238  1.00  0.00     0.019 A 
HETATM    6  C34 UNL     1      -3.157   3.807 -21.278  1.00  0.00     0.028 A 
ENDROOT
BRANCH   5   7
HETATM    7  C23 UNL     1      -4.339   5.960 -21.366  1.00  0.00     0.063 A 
HETATM    8  C24 UNL     1      -4.479   6.732 -20.214  1.00  0.00     0.048 A 
HETATM    9  C25 UNL     1      -4.477   8.128 -20.313  1.00  0.00     0.108 A 
HETATM   10  N4  UNL     1      -4.344   8.732 -21.490  1.00  0.00    -0.202 N 
HETATM   11  C26 UNL     1      -4.210   7.976 -22.593  1.00  0.00     0.685 A 
ATOM     12  H4  UNL     1      -4.343   9.750 -21.554  1.00  0.00     0.183 HD
HETATM   13  N6  UNL     1      -4.212   6.643 -22.500  1.00  0.00    -0.191 N 
ATOM     14  H6  UNL     1      -4.110   6.110 -23.363  1.00  0.00     0.184 HD
BRANCH  11  15
HETATM   15  N5  UNL     1      -4.080   8.582 -23.748  1.00  0.00    -0.155 N 
HETATM   16  C27 UNL     1      -5.040   8.424 -24.761  1.00  0.00     0.269 C 
HETATM   17  O2  UNL     1      -4.843   7.565 -25.675  1.00  0.00    -0.267 OA
ATOM     18  H5  UNL     1      -3.269   9.177 -23.914  1.00  0.00     0.187 HD
BRANCH  16  19
HETATM   19  C28 UNL     1      -6.269   9.186 -24.844  1.00  0.00     0.032 A 
HETATM   20  C29 UNL     1      -6.615   9.744 -26.055  1.00  0.00     0.017 A 
HETATM   21  C30 UNL     1      -7.775  10.485 -26.206  1.00  0.00     0.001 A 
HETATM   22  C31 UNL     1      -8.597  10.669 -25.136  1.00  0.00     0.000 A 
HETATM   23  C32 UNL     1      -8.289  10.128 -23.908  1.00  0.00     0.001 A 
HETATM   24  C33 UNL     1      -7.125   9.394 -23.787  1.00  0.00     0.017 A 
ENDBRANCH  16  19
ENDBRANCH  11  15
ENDBRANCH   5   7
BRANCH   4  25
HETATM   25  N2  UNL     1      -6.773   4.413 -21.015  1.00  0.00    -0.307 N 
HETATM   26  C11 UNL     1      -7.514   4.524 -19.874  1.00  0.00     0.100 A 
HETATM   27  C12 UNL     1      -8.682   5.205 -20.122  1.00  0.00     0.033 A 
HETATM   28  C13 UNL     1      -8.684   5.535 -21.448  1.00  0.00     0.011 A 
HETATM   29  C14 UNL     1      -9.610   6.216 -22.209  1.00  0.00     0.029 A 
HETATM   30  C21 UNL     1      -7.505   5.036 -21.960  1.00  0.00     0.123 A 
HETATM   31  C15 UNL     1      -9.308   6.390 -23.559  1.00  0.00    -0.009 A 
HETATM   32  C16 UNL     1     -10.193   7.064 -24.379  1.00  0.00     0.014 A 
HETATM   33  C20 UNL     1      -8.110   5.873 -24.042  1.00  0.00     0.044 A 
HETATM   34  C17 UNL     1      -9.874   7.225 -25.709  1.00  0.00     0.001 A 
HETATM   35  C18 UNL     1      -8.696   6.727 -26.230  1.00  0.00     0.002 A 
HETATM   36  C19 UNL     1      -7.829   6.060 -25.394  1.00  0.00     0.030 A 
HETATM   37  N3  UNL     1      -7.240   5.215 -23.248  1.00  0.00    -0.341 N 
ATOM     38  H3  UNL     1      -6.372   4.852 -23.641  1.00  0.00     0.167 HD
ENDBRANCH   4  25
BRANCH   1  39
HETATM   39  C6  UNL     1      -1.799   1.732 -21.212  1.00  0.00    -0.026 A 
HETATM   40  C5  UNL     1      -1.248   1.265 -22.379  1.00  0.00     0.014 A 
HETATM   41  C4  UNL     1      -0.043   0.622 -22.432  1.00  0.00     0.030 A 
HETATM   42  C3  UNL     1       0.684   0.416 -21.254  1.00  0.00     0.034 A 
HETATM   43  C36 UNL     1       0.161   0.866 -20.085  1.00  0.00     0.030 A 
HETATM   44  C35 UNL     1      -1.076   1.522 -20.068  1.00  0.00     0.014 A 
BRANCH  42  45
HETATM   45  N1  UNL     1       1.905  -0.269 -21.334  1.00  0.00    -0.328 N 
HETATM   46  C2  UNL     1       3.142   0.302 -21.589  1.00  0.00     0.218 C 
HETATM   47  C1  UNL     1       4.368  -0.585 -21.632  1.00  0.00     0.117 C 
HETATM   48  O1  UNL     1       3.297   1.528 -21.786  1.00  0.00    -0.274 OA
ATOM     49  H1  UNL     1       1.880  -1.279 -21.191  1.00  0.00     0.169 HD
ENDBRANCH  42  45
ENDBRANCH   1  39
TORSDOF 6
ENDMDL
MODEL 2
REMARK VINA RESULT: -9.452014117      3.485     11.629
REMARK  6 active torsions:
REMARK  status: ('A' for Active; 'I' for Inactive)
REMARK       I    between atoms: C2_2  and  N1_4 
REMARK    1  A    between atoms: N1_4  and  C3_6 
REMARK    2  A    between atoms: C6_9  and  C7_10 
REMARK    3  A    between atoms: C10_13  and  N2_14 
REMARK    4  A    between atoms: C22_28  and  C23_29 
REMARK    5  A    between atoms: C26_34  and  N5_35 
REMARK       I    between atoms: N5_35  and  C27_37 
REMARK    6  A    between atoms: C27_37  and  C28_39 
ROOT
HETATM    1  C7  UNL     1      -1.790   2.562 -21.135  1.00  0.00    -0.025 A 
HETATM    2  C8  UNL     1      -1.321   1.674 -20.199  1.00  0.00     0.014 A 
HETATM    3  C9  UNL     1      -0.150   1.021 -20.401  1.00  0.00     0.032 A 
HETATM    4  C10 UNL     1       0.616   1.237 -21.577  1.00  0.00     0.053 A 
HETATM    5  C22 UNL     1       0.179   2.108 -22.522  1.00  0.00     0.019 A 
HETATM    6  C34 UNL     1      -1.022   2.758 -22.284  1.00  0.00     0.028 A 
ENDROOT
BRANCH   5   7
HETATM    7  C23 UNL     1       0.919   2.364 -23.740  1.00  0.00     0.063 A 
HETATM    8  C24 UNL     1       1.480   3.626 -23.928  1.00  0.00     0.048 A 
HETATM    9  C25 UNL     1       2.197   3.897 -25.098  1.00  0.00     0.108 A 
HETATM   10  N4  UNL     1       2.354   2.968 -26.036  1.00  0.00    -0.202 N 
HETATM   11  C26 UNL     1       1.809   1.755 -25.843  1.00  0.00     0.685 A 
ATOM     12  H4  UNL     1       2.879   3.172 -26.887  1.00  0.00     0.183 HD
HETATM   13  N6  UNL     1       1.123   1.495 -24.726  1.00  0.00    -0.191 N 
ATOM     14  H6  UNL     1       0.725   0.562 -24.623  1.00  0.00     0.184 HD
BRANCH  11  15
HETATM   15  N5  UNL     1       1.970   0.847 -26.775  1.00  0.00    -0.155 N 
HETATM   16  C27 UNL     1       3.234   0.602 -27.337  1.00  0.00     0.269 C 
HETATM   17  O2  UNL     1       3.547   1.163 -28.431  1.00  0.00    -0.267 OA
ATOM     18  H5  UNL     1       1.165   0.310 -27.097  1.00  0.00     0.187 HD
BRANCH  16  19
HETATM   19  C28 UNL     1       4.233  -0.265 -26.747  1.00  0.00     0.032 A 
HETATM   20  C29 UNL     1       5.075   0.258 -25.790  1.00  0.00     0.017 A 
HETATM   21  C30 UNL     1       6.053  -0.514 -25.185  1.00  0.00     0.001 A 
HETATM   22  C31 UNL     1       6.190  -1.821 -25.541  1.00  0.00     0.000 A 
HETATM   23  C32 UNL     1       5.369  -2.384 -26.493  1.00  0.00     0.001 A 
HETATM   24  C33 UNL     1       4.403  -1.590 -27.079  1.00  0.00     0.017 A 
ENDBRANCH  16  19
ENDBRANCH  11  15
ENDBRANCH   5   7
BRANCH   4  25
HETATM   25  N2  UNL     1       1.825   0.507 -21.697  1.00  0.00    -0.307 N 
HETATM   26  C11 UNL     1       3.005   0.883 -21.123  1.00  0.00     0.100 A 
HETATM   27  C12 UNL     1       3.981  -0.053 -21.370  1.00  0.00     0.033 A 
HETATM   28  C13 UNL     1       3.410  -1.045 -22.116  1.00  0.00     0.011 A 
HETATM   29  C14 UNL     1       3.941  -2.210 -22.629  1.00  0.00     0.029 A 
HETATM   30  C21 UNL     1       2.096  -0.669 -22.296  1.00  0.00     0.123 A 
HETATM   31  C15 UNL     1       3.078  -3.024 -23.361  1.00  0.00    -0.009 A 
HETATM   32  C16 UNL     1       3.544  -4.207 -23.903  1.00  0.00     0.014 A 
HETATM   33  C20 UNL     1       1.758  -2.614 -23.523  1.00  0.00     0.044 A 
HETATM   34  C17 UNL     1       2.675  -4.995 -24.622  1.00  0.00     0.001 A 
HETATM   35  C18 UNL     1       1.356  -4.626 -24.808  1.00  0.00     0.002 A 
HETATM   36  C19 UNL     1       0.913  -3.444 -24.258  1.00  0.00     0.030 A 
HETATM   37  N3  UNL     1       1.294  -1.462 -22.997  1.00  0.00    -0.341 N 
ATOM     38  H3  UNL     1       0.319  -1.198 -23.138  1.00  0.00     0.167 HD
ENDBRANCH   4  25
BRANCH   1  39
HETATM   39  C6  UNL     1      -3.044   3.280 -20.947  1.00  0.00    -0.026 A 
HETATM   40  C5  UNL     1      -4.164   2.701 -20.402  1.00  0.00     0.014 A 
HETATM   41  C4  UNL     1      -5.341   3.371 -20.223  1.00  0.00     0.030 A 
HETATM   42  C3  UNL     1      -5.438   4.713 -20.607  1.00  0.00     0.034 A 
HETATM   43  C36 UNL     1      -4.347   5.311 -21.151  1.00  0.00     0.030 A 
HETATM   44  C35 UNL     1      -3.157   4.594 -21.318  1.00  0.00     0.014 A 
BRANCH  42  45
HETATM   45  N1  UNL     1      -6.666   5.369 -20.437  1.00  0.00    -0.328 N 
HETATM   46  C2  UNL     1      -7.617   5.582 -21.424  1.00  0.00     0.218 C 
HETATM   47  C1  UNL     1      -8.900   6.303 -21.067  1.00  0.00     0.117 C 
HETATM   48  O1  UNL     1      -7.466   5.203 -22.607  1.00  0.00    -0.274 OA
ATOM     49  H1  UNL     1      -6.879   5.720 -19.504  1.00  0.00     0.169 HD
ENDBRANCH  42  45
ENDBRANCH   1  39
TORSDOF 6
ENDMDL
MODEL 3
REMARK VINA RESULT: -9.437608818      4.960     11.705
REMARK  6 active torsions:
REMARK  status: ('A' for Active; 'I' for Inactive)
REMARK       I    between atoms: C2_2  and  N1_4 
REMARK    1  A    between atoms: N1_4  and  C3_6 
REMARK    2  A    between atoms: C6_9  and  C7_10 
REMARK    3  A    between atoms: C10_13  and  N2_14 
REMARK    4  A    between atoms: C22_28  and  C23_29 
REMARK    5  A    between atoms: C26_34  and  N5_35 
REMARK       I    between atoms: N5_35  and  C27_37 
REMARK    6  A    between atoms: C27_37  and  C28_39 
ROOT
HETATM    1  C7  UNL     1      -1.590   1.385 -20.617  1.00  0.00    -0.025 A 
HETATM    2  C8  UNL     1      -0.992   0.391 -19.882  1.00  0.00     0.014 A 
HETATM    3  C9  UNL     1       0.196  -0.130 -20.274  1.00  0.00     0.032 A 
HETATM    4  C10 UNL     1       0.849   0.335 -21.446  1.00  0.00     0.053 A 
HETATM    5  C22 UNL     1       0.285   1.317 -22.195  1.00  0.00     0.019 A 
HETATM    6  C34 UNL     1      -0.931   1.827 -21.766  1.00  0.00     0.028 A 
ENDROOT
BRANCH   5   7
HETATM    7  C23 UNL     1       0.906   1.826 -23.400  1.00  0.00     0.063 A 
HETATM    8  C24 UNL     1       1.252   3.175 -23.453  1.00  0.00     0.048 A 
HETATM    9  C25 UNL     1       1.851   3.690 -24.608  1.00  0.00     0.108 A 
HETATM   10  N4  UNL     1       2.097   2.913 -25.657  1.00  0.00    -0.202 N 
HETATM   11  C26 UNL     1       1.759   1.614 -25.594  1.00  0.00     0.685 A 
ATOM     12  H4  UNL     1       2.534   3.295 -26.496  1.00  0.00     0.183 HD
HETATM   13  N6  UNL     1       1.185   1.121 -24.492  1.00  0.00    -0.191 N 
ATOM     14  H6  UNL     1       0.944   0.130 -24.488  1.00  0.00     0.184 HD
BRANCH  11  15
HETATM   15  N5  UNL     1       2.006   0.856 -26.635  1.00  0.00    -0.155 N 
HETATM   16  C27 UNL     1       3.282   0.825 -27.221  1.00  0.00     0.269 C 
HETATM   17  O2  UNL     1       3.518   1.553 -28.233  1.00  0.00    -0.267 OA
ATOM     18  H5  UNL     1       1.260   0.281 -27.025  1.00  0.00     0.187 HD
BRANCH  16  19
HETATM   19  C28 UNL     1       4.376   0.003 -26.746  1.00  0.00     0.032 A 
HETATM   20  C29 UNL     1       5.181   0.496 -25.744  1.00  0.00     0.017 A 
HETATM   21  C30 UNL     1       6.245  -0.236 -25.243  1.00  0.00     0.001 A 
HETATM   22  C31 UNL     1       6.506  -1.472 -25.750  1.00  0.00     0.000 A 
HETATM   23  C32 UNL     1       5.725  -2.003 -26.753  1.00  0.00     0.001 A 
HETATM   24  C33 UNL     1       4.672  -1.250 -27.232  1.00  0.00     0.017 A 
ENDBRANCH  16  19
ENDBRANCH  11  15
ENDBRANCH   5   7
BRANCH   4  25
HETATM   25  N2  UNL     1       2.087  -0.272 -21.774  1.00  0.00    -0.307 N 
HETATM   26  C11 UNL     1       3.288   0.109 -21.249  1.00  0.00     0.100 A 
HETATM   27  C12 UNL     1       4.297  -0.701 -21.713  1.00  0.00     0.033 A 
HETATM   28  C13 UNL     1       3.726  -1.617 -22.551  1.00  0.00     0.011 A 
HETATM   29  C14 UNL     1       4.281  -2.650 -23.276  1.00  0.00     0.029 A 
HETATM   30  C21 UNL     1       2.378  -1.324 -22.564  1.00  0.00     0.123 A 
HETATM   31  C15 UNL     1       3.410  -3.415 -24.049  1.00  0.00    -0.009 A 
HETATM   32  C16 UNL     1       3.900  -4.467 -24.800  1.00  0.00     0.014 A 
HETATM   33  C20 UNL     1       2.056  -3.092 -24.039  1.00  0.00     0.044 A 
HETATM   34  C17 UNL     1       3.021  -5.210 -25.556  1.00  0.00     0.001 A 
HETATM   35  C18 UNL     1       1.670  -4.923 -25.575  1.00  0.00     0.002 A 
HETATM   36  C19 UNL     1       1.203  -3.871 -24.818  1.00  0.00     0.030 A 
HETATM   37  N3  UNL     1       1.569  -2.068 -23.308  1.00  0.00    -0.341 N 
ATOM     38  H3  UNL     1       0.570  -1.864 -23.327  1.00  0.00     0.167 HD
ENDBRANCH   4  25
BRANCH   1  39
HETATM   39  C6  UNL     1      -2.866   1.966 -20.221  1.00  0.00    -0.026 A 
HETATM   40  C5  UNL     1      -3.453   3.011 -20.892  1.00  0.00     0.014 A 
HETATM   41  C4  UNL     1      -4.650   3.558 -20.525  1.00  0.00     0.030 A 
HETATM   42  C3  UNL     1      -5.332   3.048 -19.413  1.00  0.00     0.034 A 
HETATM   43  C36 UNL     1      -4.774   2.016 -18.730  1.00  0.00     0.030 A 
HETATM   44  C35 UNL     1      -3.546   1.480 -19.136  1.00  0.00     0.014 A 
BRANCH  42  45
HETATM   45  N1  UNL     1      -6.545   3.646 -19.043  1.00  0.00    -0.328 N 
HETATM   46  C2  UNL     1      -6.687   4.872 -18.412  1.00  0.00     0.218 C 
HETATM   47  C1  UNL     1      -8.077   5.378 -18.090  1.00  0.00     0.117 C 
HETATM   48  O1  UNL     1      -5.713   5.590 -18.093  1.00  0.00    -0.274 OA
ATOM     49  H1  UNL     1      -7.399   3.132 -19.258  1.00  0.00     0.169 HD
ENDBRANCH  42  45
ENDBRANCH   1  39
TORSDOF 6
ENDMDL
MODEL 4
REMARK VINA RESULT: -8.843293224      3.269     11.512
REMARK  6 active torsions:
REMARK  status: ('A' for Active; 'I' for Inactive)
REMARK       I    between atoms: C2_2  and  N1_4 
REMARK    1  A    between atoms: N1_4  and  C3_6 
REMARK    2  A    between atoms: C6_9  and  C7_10 
REMARK    3  A    between atoms: C10_13  and  N2_14 
REMARK    4  A    between atoms: C22_28  and  C23_29 
REMARK    5  A    between atoms: C26_34  and  N5_35 
REMARK       I    between atoms: N5_35  and  C27_37 
REMARK    6  A    between atoms: C27_37  and  C28_39 
ROOT
HETATM    1  C7  UNL     1      -2.800   2.128 -21.429  1.00  0.00    -0.025 A 
HETATM    2  C8  UNL     1      -2.494   1.235 -20.431  1.00  0.00     0.014 A 
HETATM    3  C9  UNL     1      -1.285   0.622 -20.408  1.00  0.00     0.032 A 
HETATM    4  C10 UNL     1      -0.311   0.885 -21.406  1.00  0.00     0.053 A 
HETATM    5  C22 UNL     1      -0.581   1.762 -22.406  1.00  0.00     0.019 A 
HETATM    6  C34 UNL     1      -1.827   2.371 -22.401  1.00  0.00     0.028 A 
ENDROOT
BRANCH   5   7
HETATM    7  C23 UNL     1       0.375   2.065 -23.451  1.00  0.00     0.063 A 
HETATM    8  C24 UNL     1       1.068   3.272 -23.391  1.00  0.00     0.048 A 
HETATM    9  C25 UNL     1       1.996   3.588 -24.389  1.00  0.00     0.108 A 
HETATM   10  N4  UNL     1       2.228   2.753 -25.397  1.00  0.00    -0.202 N 
HETATM   11  C26 UNL     1       1.553   1.591 -25.444  1.00  0.00     0.685 A 
ATOM     12  H4  UNL     1       2.906   2.989 -26.122  1.00  0.00     0.183 HD
HETATM   13  N6  UNL     1       0.666   1.290 -24.491  1.00  0.00    -0.191 N 
ATOM     14  H6  UNL     1       0.176   0.399 -24.567  1.00  0.00     0.184 HD
BRANCH  11  15
HETATM   15  N5  UNL     1       1.790   0.776 -26.442  1.00  0.00    -0.155 N 
HETATM   16  C27 UNL     1       3.097   0.567 -26.913  1.00  0.00     0.269 C 
HETATM   17  O2  UNL     1       3.508   1.227 -27.916  1.00  0.00    -0.267 OA
ATOM     18  H5  UNL     1       1.013   0.285 -26.885  1.00  0.00     0.187 HD
BRANCH  16  19
HETATM   19  C28 UNL     1       4.034  -0.368 -26.326  1.00  0.00     0.032 A 
HETATM   20  C29 UNL     1       4.658  -0.021 -25.148  1.00  0.00     0.017 A 
HETATM   21  C30 UNL     1       5.566  -0.866 -24.532  1.00  0.00     0.001 A 
HETATM   22  C31 UNL     1       5.852  -2.070 -25.100  1.00  0.00     0.000 A 
HETATM   23  C32 UNL     1       5.250  -2.457 -26.277  1.00  0.00     0.001 A 
HETATM   24  C33 UNL     1       4.350  -1.593 -26.868  1.00  0.00     0.017 A 
ENDBRANCH  16  19
ENDBRANCH  11  15
ENDBRANCH   5   7
BRANCH   4  25
HETATM   25  N2  UNL     1       0.922   0.195 -21.296  1.00  0.00    -0.307 N 
HETATM   26  C11 UNL     1       1.883   0.488 -20.372  1.00  0.00     0.100 A 
HETATM   27  C12 UNL     1       2.937  -0.388 -20.475  1.00  0.00     0.033 A 
HETATM   28  C13 UNL     1       2.640  -1.258 -21.486  1.00  0.00     0.011 A 
HETATM   29  C14 UNL     1       3.349  -2.324 -21.999  1.00  0.00     0.029 A 
HETATM   30  C21 UNL     1       1.405  -0.872 -21.963  1.00  0.00     0.123 A 
HETATM   31  C15 UNL     1       2.759  -3.023 -23.051  1.00  0.00    -0.009 A 
HETATM   32  C16 UNL     1       3.414  -4.103 -23.611  1.00  0.00     0.014 A 
HETATM   33  C20 UNL     1       1.512  -2.606 -23.507  1.00  0.00     0.044 A 
HETATM   34  C17 UNL     1       2.813  -4.779 -24.649  1.00  0.00     0.001 A 
HETATM   35  C18 UNL     1       1.576  -4.399 -25.132  1.00  0.00     0.002 A 
HETATM   36  C19 UNL     1       0.940  -3.321 -24.558  1.00  0.00     0.030 A 
HETATM   37  N3  UNL     1       0.864  -1.554 -22.965  1.00  0.00    -0.341 N 
ATOM     38  H3  UNL     1      -0.049  -1.281 -23.328  1.00  0.00     0.167 HD
ENDBRANCH   4  25
BRANCH   1  39
HETATM   39  C6  UNL     1      -4.090   2.804 -21.482  1.00  0.00    -0.026 A 
HETATM   40  C5  UNL     1      -4.223   4.138 -21.775  1.00  0.00     0.014 A 
HETATM   41  C4  UNL     1      -5.430   4.776 -21.826  1.00  0.00     0.030 A 
HETATM   42  C3  UNL     1      -6.604   4.056 -21.571  1.00  0.00     0.034 A 
HETATM   43  C36 UNL     1      -6.501   2.735 -21.278  1.00  0.00     0.030 A 
HETATM   44  C35 UNL     1      -5.248   2.114 -21.235  1.00  0.00     0.014 A 
BRANCH  42  45
HETATM   45  N1  UNL     1      -7.827   4.741 -21.605  1.00  0.00    -0.328 N 
HETATM   46  C2  UNL     1      -8.400   5.326 -22.724  1.00  0.00     0.218 C 
HETATM   47  C1  UNL     1      -9.738   6.022 -22.588  1.00  0.00     0.117 C 
HETATM   48  O1  UNL     1      -7.861   5.305 -23.853  1.00  0.00    -0.274 OA
ATOM     49  H1  UNL     1      -8.342   4.816 -20.727  1.00  0.00     0.169 HD
ENDBRANCH  42  45
ENDBRANCH   1  39
TORSDOF 6
ENDMDL
MODEL 5
REMARK VINA RESULT: -8.725305847      4.402     12.239
REMARK  6 active torsions:
REMARK  status: ('A' for Active; 'I' for Inactive)
REMARK       I    between atoms: C2_2  and  N1_4 
REMARK    1  A    between atoms: N1_4  and  C3_6 
REMARK    2  A    between atoms: C6_9  and  C7_10 
REMARK    3  A    between atoms: C10_13  and  N2_14 
REMARK    4  A    between atoms: C22_28  and  C23_29 
REMARK    5  A    between atoms: C26_34  and  N5_35 
REMARK       I    between atoms: N5_35  and  C27_37 
REMARK    6  A    between atoms: C27_37  and  C28_39 
ROOT
HETATM    1  C7  UNL     1      -0.986   2.328 -21.771  1.00  0.00    -0.025 A 
HETATM    2  C8  UNL     1      -0.172   3.119 -22.543  1.00  0.00     0.014 A 
HETATM    3  C9  UNL     1       1.047   2.673 -22.932  1.00  0.00     0.032 A 
HETATM    4  C10 UNL     1       1.510   1.384 -22.557  1.00  0.00     0.053 A 
HETATM    5  C22 UNL     1       0.729   0.577 -21.795  1.00  0.00     0.019 A 
HETATM    6  C34 UNL     1      -0.511   1.065 -21.413  1.00  0.00     0.028 A 
ENDROOT
BRANCH   5   7
HETATM    7  C23 UNL     1       1.152  -0.745 -21.381  1.00  0.00     0.063 A 
HETATM    8  C24 UNL     1       1.781  -0.888 -20.146  1.00  0.00     0.048 A 
HETATM    9  C25 UNL     1       2.201  -2.155 -19.726  1.00  0.00     0.108 A 
HETATM   10  N4  UNL     1       2.009  -3.227 -20.487  1.00  0.00    -0.202 N 
HETATM   11  C26 UNL     1       1.401  -3.077 -21.676  1.00  0.00     0.685 A 
ATOM     12  H4  UNL     1       2.317  -4.148 -20.174  1.00  0.00     0.183 HD
HETATM   13  N6  UNL     1       1.001  -1.867 -22.079  1.00  0.00    -0.191 N 
ATOM     14  H6  UNL     1       0.545  -1.799 -22.989  1.00  0.00     0.184 HD
BRANCH  11  15
HETATM   15  N5  UNL     1       1.217  -4.141 -22.419  1.00  0.00    -0.155 N 
HETATM   16  C27 UNL     1       1.240  -4.059 -23.821  1.00  0.00     0.269 C 
HETATM   17  O2  UNL     1       0.145  -3.955 -24.455  1.00  0.00    -0.267 OA
ATOM     18  H5  UNL     1       1.055  -5.043 -21.972  1.00  0.00     0.187 HD
BRANCH  16  19
HETATM   19  C28 UNL     1       2.448  -4.085 -24.618  1.00  0.00     0.032 A 
HETATM   20  C29 UNL     1       2.549  -5.015 -25.629  1.00  0.00     0.017 A 
HETATM   21  C30 UNL     1       3.676  -5.096 -26.430  1.00  0.00     0.001 A 
HETATM   22  C31 UNL     1       4.711  -4.238 -26.219  1.00  0.00     0.000 A 
HETATM   23  C32 UNL     1       4.652  -3.292 -25.219  1.00  0.00     0.001 A 
HETATM   24  C33 UNL     1       3.516  -3.236 -24.436  1.00  0.00     0.017 A 
ENDBRANCH  16  19
ENDBRANCH  11  15
ENDBRANCH   5   7
BRANCH   4  25
HETATM   25  N2  UNL     1       2.798   1.007 -23.012  1.00  0.00    -0.307 N 
HETATM   26  C11 UNL     1       3.867   0.793 -22.191  1.00  0.00     0.100 A 
HETATM   27  C12 UNL     1       4.960   0.385 -22.918  1.00  0.00     0.033 A 
HETATM   28  C13 UNL     1       4.578   0.339 -24.229  1.00  0.00     0.011 A 
HETATM   29  C14 UNL     1       5.282  -0.005 -25.365  1.00  0.00     0.029 A 
HETATM   30  C21 UNL     1       3.255   0.725 -24.248  1.00  0.00     0.123 A 
HETATM   31  C15 UNL     1       4.591   0.053 -26.574  1.00  0.00    -0.009 A 
HETATM   32  C16 UNL     1       5.235  -0.279 -27.750  1.00  0.00     0.014 A 
HETATM   33  C20 UNL     1       3.256   0.446 -26.556  1.00  0.00     0.044 A 
HETATM   34  C17 UNL     1       4.533  -0.216 -28.932  1.00  0.00     0.001 A 
HETATM   35  C18 UNL     1       3.207   0.170 -28.960  1.00  0.00     0.002 A 
HETATM   36  C19 UNL     1       2.585   0.495 -27.776  1.00  0.00     0.030 A 
HETATM   37  N3  UNL     1       2.618   0.771 -25.413  1.00  0.00    -0.341 N 
ATOM     38  H3  UNL     1       1.639   1.054 -25.442  1.00  0.00     0.167 HD
ENDBRANCH   4  25
BRANCH   1  39
HETATM   39  C6  UNL     1      -2.302   2.779 -21.336  1.00  0.00    -0.026 A 
HETATM   40  C5  UNL     1      -2.955   3.842 -21.909  1.00  0.00     0.014 A 
HETATM   41  C4  UNL     1      -4.189   4.268 -21.505  1.00  0.00     0.030 A 
HETATM   42  C3  UNL     1      -4.841   3.606 -20.458  1.00  0.00     0.034 A 
HETATM   43  C36 UNL     1      -4.217   2.552 -19.872  1.00  0.00     0.030 A 
HETATM   44  C35 UNL     1      -2.954   2.143 -20.313  1.00  0.00     0.014 A 
BRANCH  42  45
HETATM   45  N1  UNL     1      -6.095   4.080 -20.046  1.00  0.00    -0.328 N 
HETATM   46  C2  UNL     1      -6.324   5.222 -19.293  1.00  0.00     0.218 C 
HETATM   47  C1  UNL     1      -7.748   5.599 -18.941  1.00  0.00     0.117 C 
HETATM   48  O1  UNL     1      -5.403   5.964 -18.886  1.00  0.00    -0.274 OA
ATOM     49  H1  UNL     1      -6.911   3.537 -20.326  1.00  0.00     0.169 HD
ENDBRANCH  42  45
ENDBRANCH   1  39
TORSDOF 6
ENDMDL
