MODEL 1
REMARK VINA RESULT: -5.923823525      0.000      0.000
REMARK  4 active torsions:
REMARK  status: ('A' for Active; 'I' for Inactive)
REMARK    1  A    between atoms: C2_2  and  C3_3 
REMARK    2  A    between atoms: C3_3  and  C4_4 
REMARK    3  A    between atoms: C4_4  and  C5_5 
REMARK    4  A    between atoms: C5_5  and  C6_6 
ROOT
HETATM    1  C6  UNL     1      -3.885  32.656  -6.303  1.00  0.00     0.253 C 
HETATM    2  N1  UNL     1      -3.579  32.072  -7.588  1.00  0.00    -0.056 N 
ATOM      3  H11 UNL     1      -3.586  32.789  -8.314  1.00  0.00     0.278 HD
ATOM      4  H12 UNL     1      -4.354  31.492  -7.908  1.00  0.00     0.278 HD
HETATM    5  C7  UNL     1      -2.362  31.338  -7.629  1.00  0.00     0.238 C 
HETATM    6  C8  UNL     1      -2.356  30.484  -8.890  1.00  0.00     0.064 C 
HETATM    7  C9  UNL     1      -2.477  29.072  -8.424  1.00  0.00     0.237 C 
HETATM    8  N2  UNL     1      -2.437  29.052  -6.994  1.00  0.00    -0.052 N 
ATOM      9  H21 UNL     1      -1.803  28.341  -6.629  1.00  0.00     0.279 HD
ATOM     10  H22 UNL     1      -3.298  28.694  -6.582  1.00  0.00     0.279 HD
HETATM   11  C10 UNL     1      -2.109  30.378  -6.532  1.00  0.00     0.318 C 
HETATM   12  N3  UNL     1      -2.778  30.688  -5.281  1.00  0.00    -0.344 N 
HETATM   13  C11 UNL     1      -2.368  30.060  -4.039  1.00  0.00     0.153 C 
HETATM   14  C12 UNL     1      -3.856  31.612  -5.234  1.00  0.00     0.105 C 
HETATM   15  N4  UNL     1      -4.778  31.591  -4.352  1.00  0.00    -0.387 N 
ATOM     16  H41 UNL     1      -4.758  30.878  -3.622  1.00  0.00     0.157 HD
ATOM     17  H42 UNL     1      -5.552  32.254  -4.319  1.00  0.00     0.157 HD
ENDROOT
BRANCH   1  18
HETATM   18  C5  UNL     1      -2.827  33.660  -5.939  1.00  0.00     0.041 C 
BRANCH  18  19
HETATM   19  C4  UNL     1      -3.439  34.888  -5.335  1.00  0.00     0.002 C 
BRANCH  19  20
HETATM   20  C3  UNL     1      -4.764  35.151  -5.988  1.00  0.00    -0.000 C 
BRANCH  20  21
HETATM   21  C2  UNL     1      -5.464  36.356  -5.389  1.00  0.00    -0.005 C 
HETATM   22  C1  UNL     1      -5.433  37.446  -6.467  1.00  0.00     0.005 C 
ENDBRANCH  20  21
ENDBRANCH  19  20
ENDBRANCH  18  19
ENDBRANCH   1  18
TORSDOF 4
ENDMDL
MODEL 2
REMARK VINA RESULT: -5.798789993      2.976      4.451
REMARK  4 active torsions:
REMARK  status: ('A' for Active; 'I' for Inactive)
REMARK    1  A    between atoms: C2_2  and  C3_3 
REMARK    2  A    between atoms: C3_3  and  C4_4 
REMARK    3  A    between atoms: C4_4  and  C5_5 
REMARK    4  A    between atoms: C5_5  and  C6_6 
ROOT
HETATM    1  C6  UNL     1      -2.252  30.573  -6.098  1.00  0.00     0.253 C 
HETATM    2  N1  UNL     1      -0.898  30.897  -5.711  1.00  0.00    -0.056 N 
ATOM      3  H11 UNL     1      -0.340  31.127  -6.534  1.00  0.00     0.278 HD
ATOM      4  H12 UNL     1      -0.409  30.060  -5.395  1.00  0.00     0.278 HD
HETATM    5  C7  UNL     1      -0.794  31.929  -4.738  1.00  0.00     0.238 C 
HETATM    6  C8  UNL     1       0.614  31.902  -4.157  1.00  0.00     0.064 C 
HETATM    7  C9  UNL     1       0.464  31.432  -2.749  1.00  0.00     0.237 C 
HETATM    8  N2  UNL     1      -0.929  31.299  -2.453  1.00  0.00    -0.052 N 
ATOM      9  H21 UNL     1      -1.183  31.722  -1.560  1.00  0.00     0.279 HD
ATOM     10  H22 UNL     1      -1.194  30.340  -2.232  1.00  0.00     0.279 HD
HETATM   11  C10 UNL     1      -1.681  31.843  -3.558  1.00  0.00     0.318 C 
HETATM   12  N3  UNL     1      -2.918  31.113  -3.772  1.00  0.00    -0.344 N 
HETATM   13  C11 UNL     1      -4.028  31.233  -2.846  1.00  0.00     0.153 C 
HETATM   14  C12 UNL     1      -3.078  30.256  -4.894  1.00  0.00     0.105 C 
HETATM   15  N4  UNL     1      -3.867  29.254  -4.921  1.00  0.00    -0.387 N 
ATOM     16  H41 UNL     1      -4.432  29.038  -4.099  1.00  0.00     0.157 HD
ATOM     17  H42 UNL     1      -3.983  28.639  -5.726  1.00  0.00     0.157 HD
ENDROOT
BRANCH   1  18
HETATM   18  C5  UNL     1      -2.893  31.770  -6.745  1.00  0.00     0.041 C 
BRANCH  18  19
HETATM   19  C4  UNL     1      -2.527  31.854  -8.197  1.00  0.00     0.002 C 
BRANCH  19  20
HETATM   20  C3  UNL     1      -1.533  32.961  -8.392  1.00  0.00    -0.000 C 
BRANCH  20  21
HETATM   21  C2  UNL     1      -1.191  33.167  -9.855  1.00  0.00    -0.005 C 
HETATM   22  C1  UNL     1      -1.906  32.048 -10.621  1.00  0.00     0.005 C 
ENDBRANCH  20  21
ENDBRANCH  19  20
ENDBRANCH  18  19
ENDBRANCH   1  18
TORSDOF 4
ENDMDL
MODEL 3
REMARK VINA RESULT: -5.676658190      2.622      4.390
REMARK  4 active torsions:
REMARK  status: ('A' for Active; 'I' for Inactive)
REMARK    1  A    between atoms: C2_2  and  C3_3 
REMARK    2  A    between atoms: C3_3  and  C4_4 
REMARK    3  A    between atoms: C4_4  and  C5_5 
REMARK    4  A    between atoms: C5_5  and  C6_6 
ROOT
HETATM    1  C6  UNL     1      -2.344  31.057  -8.438  1.00  0.00     0.253 C 
HETATM    2  N1  UNL     1      -3.416  31.006  -9.405  1.00  0.00    -0.056 N 
ATOM      3  H11 UNL     1      -4.209  31.563  -9.086  1.00  0.00     0.278 HD
ATOM      4  H12 UNL     1      -3.843  30.080  -9.413  1.00  0.00     0.278 HD
HETATM    5  C7  UNL     1      -3.040  31.389 -10.723  1.00  0.00     0.238 C 
HETATM    6  C8  UNL     1      -4.129  30.933 -11.685  1.00  0.00     0.064 C 
HETATM    7  C9  UNL     1      -3.524  29.834 -12.492  1.00  0.00     0.237 C 
HETATM    8  N2  UNL     1      -2.144  29.708 -12.140  1.00  0.00    -0.052 N 
ATOM      9  H21 UNL     1      -1.534  29.645 -12.955  1.00  0.00     0.279 HD
ATOM     10  H22 UNL     1      -1.923  28.800 -11.732  1.00  0.00     0.279 HD
HETATM   11  C10 UNL     1      -1.796  30.807 -11.272  1.00  0.00     0.318 C 
HETATM   12  N3  UNL     1      -0.814  30.411 -10.278  1.00  0.00    -0.344 N 
HETATM   13  C11 UNL     1       0.565  30.157 -10.649  1.00  0.00     0.153 C 
HETATM   14  C12 UNL     1      -1.173  30.260  -8.912  1.00  0.00     0.105 C 
HETATM   15  N4  UNL     1      -0.565  29.491  -8.094  1.00  0.00    -0.387 N 
ATOM     16  H41 UNL     1       0.235  28.947  -8.417  1.00  0.00     0.157 HD
ATOM     17  H42 UNL     1      -0.822  29.382  -7.113  1.00  0.00     0.157 HD
ENDROOT
BRANCH   1  18
HETATM   18  C5  UNL     1      -1.858  32.473  -8.296  1.00  0.00     0.041 C 
BRANCH  18  19
HETATM   19  C4  UNL     1      -2.422  33.112  -7.062  1.00  0.00     0.002 C 
BRANCH  19  20
HETATM   20  C3  UNL     1      -2.744  32.045  -6.057  1.00  0.00    -0.000 C 
BRANCH  20  21
HETATM   21  C2  UNL     1      -4.014  32.354  -5.288  1.00  0.00    -0.005 C 
HETATM   22  C1  UNL     1      -4.886  33.198  -6.224  1.00  0.00     0.005 C 
ENDBRANCH  20  21
ENDBRANCH  19  20
ENDBRANCH  18  19
ENDBRANCH   1  18
TORSDOF 4
ENDMDL
MODEL 4
REMARK VINA RESULT: -5.669911004      2.184      4.278
REMARK  4 active torsions:
REMARK  status: ('A' for Active; 'I' for Inactive)
REMARK    1  A    between atoms: C2_2  and  C3_3 
REMARK    2  A    between atoms: C3_3  and  C4_4 
REMARK    3  A    between atoms: C4_4  and  C5_5 
REMARK    4  A    between atoms: C5_5  and  C6_6 
ROOT
HETATM    1  C6  UNL     1      -3.372  32.249  -7.034  1.00  0.00     0.253 C 
HETATM    2  N1  UNL     1      -2.883  31.015  -6.465  1.00  0.00    -0.056 N 
ATOM      3  H11 UNL     1      -2.247  30.552  -7.116  1.00  0.00     0.278 HD
ATOM      4  H12 UNL     1      -3.630  30.322  -6.426  1.00  0.00     0.278 HD
HETATM    5  C7  UNL     1      -2.270  31.155  -5.189  1.00  0.00     0.238 C 
HETATM    6  C8  UNL     1      -2.153  29.775  -4.557  1.00  0.00     0.064 C 
HETATM    7  C9  UNL     1      -3.112  29.768  -3.414  1.00  0.00     0.237 C 
HETATM    8  N2  UNL     1      -3.679  31.074  -3.280  1.00  0.00    -0.052 N 
ATOM      9  H21 UNL     1      -3.676  31.407  -2.316  1.00  0.00     0.279 HD
ATOM     10  H22 UNL     1      -4.689  31.080  -3.425  1.00  0.00     0.279 HD
HETATM   11  C10 UNL     1      -2.983  31.965  -4.177  1.00  0.00     0.318 C 
HETATM   12  N3  UNL     1      -3.872  32.978  -4.718  1.00  0.00    -0.344 N 
HETATM   13  C11 UNL     1      -4.364  34.061  -3.888  1.00  0.00     0.153 C 
HETATM   14  C12 UNL     1      -4.287  32.940  -6.076  1.00  0.00     0.105 C 
HETATM   15  N4  UNL     1      -5.378  33.448  -6.504  1.00  0.00    -0.387 N 
ATOM     16  H41 UNL     1      -6.002  33.920  -5.850  1.00  0.00     0.157 HD
ATOM     17  H42 UNL     1      -5.676  33.420  -7.479  1.00  0.00     0.157 HD
ENDROOT
BRANCH   1  18
HETATM   18  C5  UNL     1      -2.222  33.189  -7.269  1.00  0.00     0.041 C 
BRANCH  18  19
HETATM   19  C4  UNL     1      -1.209  32.577  -8.189  1.00  0.00     0.002 C 
BRANCH  19  20
HETATM   20  C3  UNL     1      -1.423  33.104  -9.578  1.00  0.00    -0.000 C 
BRANCH  20  21
HETATM   21  C2  UNL     1      -1.405  31.997 -10.615  1.00  0.00    -0.005 C 
HETATM   22  C1  UNL     1      -2.872  31.656 -10.901  1.00  0.00     0.005 C 
ENDBRANCH  20  21
ENDBRANCH  19  20
ENDBRANCH  18  19
ENDBRANCH   1  18
TORSDOF 4
ENDMDL
MODEL 5
REMARK VINA RESULT: -5.643883162      3.017      5.294
REMARK  4 active torsions:
REMARK  status: ('A' for Active; 'I' for Inactive)
REMARK    1  A    between atoms: C2_2  and  C3_3 
REMARK    2  A    between atoms: C3_3  and  C4_4 
REMARK    3  A    between atoms: C4_4  and  C5_5 
REMARK    4  A    between atoms: C5_5  and  C6_6 
ROOT
HETATM    1  C6  UNL     1      -0.423  32.050  -8.333  1.00  0.00     0.253 C 
HETATM    2  N1  UNL     1      -0.563  32.417  -6.943  1.00  0.00    -0.056 N 
ATOM      3  H11 UNL     1      -0.392  33.416  -6.821  1.00  0.00     0.278 HD
ATOM      4  H12 UNL     1       0.210  32.038  -6.396  1.00  0.00     0.278 HD
HETATM    5  C7  UNL     1      -1.808  32.052  -6.359  1.00  0.00     0.238 C 
HETATM    6  C8  UNL     1      -1.675  32.147  -4.845  1.00  0.00     0.064 C 
HETATM    7  C9  UNL     1      -1.727  30.743  -4.344  1.00  0.00     0.237 C 
HETATM    8  N2  UNL     1      -1.993  29.869  -5.445  1.00  0.00    -0.052 N 
ATOM      9  H21 UNL     1      -2.724  29.189  -5.239  1.00  0.00     0.279 HD
ATOM     10  H22 UNL     1      -1.234  29.209  -5.614  1.00  0.00     0.279 HD
HETATM   11  C10 UNL     1      -2.296  30.677  -6.601  1.00  0.00     0.318 C 
HETATM   12  N3  UNL     1      -1.812  30.062  -7.824  1.00  0.00    -0.344 N 
HETATM   13  C11 UNL     1      -2.455  28.883  -8.372  1.00  0.00     0.153 C 
HETATM   14  C12 UNL     1      -0.693  30.593  -8.519  1.00  0.00     0.105 C 
HETATM   15  N4  UNL     1       0.076  29.903  -9.269  1.00  0.00    -0.387 N 
ATOM     16  H41 UNL     1      -0.109  28.908  -9.397  1.00  0.00     0.157 HD
ATOM     17  H42 UNL     1       0.879  30.284  -9.769  1.00  0.00     0.157 HD
ENDROOT
BRANCH   1  18
HETATM   18  C5  UNL     1      -1.453  32.776  -9.154  1.00  0.00     0.041 C 
BRANCH  18  19
HETATM   19  C4  UNL     1      -1.367  32.376 -10.596  1.00  0.00     0.002 C 
BRANCH  19  20
HETATM   20  C3  UNL     1      -2.702  31.855 -11.044  1.00  0.00    -0.000 C 
BRANCH  20  21
HETATM   21  C2  UNL     1      -2.576  30.556 -11.816  1.00  0.00    -0.005 C 
HETATM   22  C1  UNL     1      -1.196  30.588 -12.482  1.00  0.00     0.005 C 
ENDBRANCH  20  21
ENDBRANCH  19  20
ENDBRANCH  18  19
ENDBRANCH   1  18
TORSDOF 4
ENDMDL
