MODEL 1
REMARK VINA RESULT: -6.027380891      0.000      0.000
REMARK  6 active torsions:
REMARK  status: ('A' for Active; 'I' for Inactive)
REMARK    1  A    between atoms: C3_5  and  N2_6 
REMARK    2  A    between atoms: C4_11  and  N4_12 
REMARK    3  A    between atoms: C5_15  and  C6_16 
REMARK    4  A    between atoms: C6_16  and  C7_17 
REMARK    5  A    between atoms: C7_17  and  C8_18 
REMARK    6  A    between atoms: C8_18  and  N5_19 
ROOT
HETATM    1  C1  UNL     1      -3.027  33.586  -6.396  1.00  0.00     0.069 C 
HETATM    2  C2  UNL     1      -2.702  32.133  -6.414  1.00  0.00     0.032 A 
HETATM    3  N1  UNL     1      -3.441  31.284  -5.632  1.00  0.00    -0.196 N 
ATOM      4  H1  UNL     1      -4.224  31.660  -5.098  1.00  0.00     0.184 HD
HETATM    5  C3  UNL     1      -3.166  29.967  -5.548  1.00  0.00     0.677 A 
HETATM    6  N3  UNL     1      -2.135  29.470  -6.253  1.00  0.00    -0.177 N 
ATOM      7  H3  UNL     1      -1.917  28.474  -6.196  1.00  0.00     0.185 HD
HETATM    8  C4  UNL     1      -1.394  30.263  -7.026  1.00  0.00     0.122 A 
HETATM    9  C5  UNL     1      -1.647  31.639  -7.141  1.00  0.00     0.009 A 
ENDROOT
BRANCH   9  10
HETATM   10  C6  UNL     1      -0.813  32.425  -8.078  1.00  0.00     0.046 C 
BRANCH  10  11
HETATM   11  C7  UNL     1      -1.407  32.741  -9.396  1.00  0.00     0.035 C 
BRANCH  11  12
HETATM   12  C8  UNL     1      -1.131  31.866 -10.545  1.00  0.00     0.272 C 
BRANCH  12  13
HETATM   13  N5  UNL     1      -2.091  30.770 -10.660  1.00  0.00     0.088 N 
HETATM   14  C9  UNL     1      -2.307  30.294 -11.997  1.00  0.00     0.274 C 
HETATM   15  C10 UNL     1      -3.787  30.549 -11.784  1.00  0.00     0.060 C 
HETATM   16  C11 UNL     1      -3.459  31.165 -10.435  1.00  0.00     0.274 C 
ENDBRANCH  12  13
ENDBRANCH  11  12
ENDBRANCH  10  11
ENDBRANCH   9  10
BRANCH   8  17
HETATM   17  N4  UNL     1      -0.420  29.733  -7.685  1.00  0.00    -0.385 N 
ATOM     18  H42 UNL     1      -0.610  29.001  -8.369  1.00  0.00     0.157 HD
ATOM     19  H41 UNL     1       0.526  30.066  -7.497  1.00  0.00     0.157 HD
ENDBRANCH   8  17
BRANCH   5  20
HETATM   20  N2  UNL     1      -3.883  29.177  -4.805  1.00  0.00    -0.234 N 
ATOM     21  H22 UNL     1      -4.900  29.255  -4.815  1.00  0.00     0.174 HD
ATOM     22  H21 UNL     1      -3.447  28.478  -4.204  1.00  0.00     0.174 HD
ENDBRANCH   5  20
TORSDOF 6
ENDMDL
MODEL 2
REMARK VINA RESULT: -5.881941957      2.368      6.050
REMARK  6 active torsions:
REMARK  status: ('A' for Active; 'I' for Inactive)
REMARK    1  A    between atoms: C3_5  and  N2_6 
REMARK    2  A    between atoms: C4_11  and  N4_12 
REMARK    3  A    between atoms: C5_15  and  C6_16 
REMARK    4  A    between atoms: C6_16  and  C7_17 
REMARK    5  A    between atoms: C7_17  and  C8_18 
REMARK    6  A    between atoms: C8_18  and  N5_19 
ROOT
HETATM    1  C1  UNL     1       0.428  30.198 -13.460  1.00  0.00     0.069 C 
HETATM    2  C2  UNL     1      -0.947  29.719 -13.145  1.00  0.00     0.032 A 
HETATM    3  N1  UNL     1      -1.440  28.640 -13.831  1.00  0.00    -0.196 N 
ATOM      4  H1  UNL     1      -0.839  28.164 -14.502  1.00  0.00     0.184 HD
HETATM    5  C3  UNL     1      -2.697  28.189 -13.645  1.00  0.00     0.677 A 
HETATM    6  N3  UNL     1      -3.491  28.815 -12.759  1.00  0.00    -0.177 N 
ATOM      7  H3  UNL     1      -4.444  28.483 -12.611  1.00  0.00     0.185 HD
HETATM    8  C4  UNL     1      -3.046  29.866 -12.071  1.00  0.00     0.122 A 
HETATM    9  C5  UNL     1      -1.744  30.367 -12.235  1.00  0.00     0.009 A 
ENDROOT
BRANCH   9  10
HETATM   10  C6  UNL     1      -1.319  31.494 -11.376  1.00  0.00     0.046 C 
BRANCH  10  11
HETATM   11  C7  UNL     1      -0.600  31.149 -10.129  1.00  0.00     0.035 C 
BRANCH  11  12
HETATM   12  C8  UNL     1      -1.064  31.700  -8.847  1.00  0.00     0.272 C 
BRANCH  12  13
HETATM   13  N5  UNL     1      -2.135  30.904  -8.250  1.00  0.00     0.088 N 
HETATM   14  C9  UNL     1      -2.241  31.009  -6.822  1.00  0.00     0.274 C 
HETATM   15  C10 UNL     1      -2.129  29.497  -6.763  1.00  0.00     0.060 C 
HETATM   16  C11 UNL     1      -1.887  29.485  -8.262  1.00  0.00     0.274 C 
ENDBRANCH  12  13
ENDBRANCH  11  12
ENDBRANCH  10  11
ENDBRANCH   9  10
BRANCH   8  17
HETATM   17  N4  UNL     1      -3.847  30.426 -11.229  1.00  0.00    -0.385 N 
ATOM     18  H42 UNL     1      -4.842  30.207 -11.254  1.00  0.00     0.157 HD
ATOM     19  H41 UNL     1      -3.454  31.084 -10.556  1.00  0.00     0.157 HD
ENDBRANCH   8  17
BRANCH   5  20
HETATM   20  N2  UNL     1      -3.145  27.160 -14.302  1.00  0.00    -0.234 N 
ATOM     21  H22 UNL     1      -2.915  26.218 -13.988  1.00  0.00     0.174 HD
ATOM     22  H21 UNL     1      -3.722  27.277 -15.135  1.00  0.00     0.174 HD
ENDBRANCH   5  20
TORSDOF 6
ENDMDL
MODEL 3
REMARK VINA RESULT: -5.856226793      2.333      5.694
REMARK  6 active torsions:
REMARK  status: ('A' for Active; 'I' for Inactive)
REMARK    1  A    between atoms: C3_5  and  N2_6 
REMARK    2  A    between atoms: C4_11  and  N4_12 
REMARK    3  A    between atoms: C5_15  and  C6_16 
REMARK    4  A    between atoms: C6_16  and  C7_17 
REMARK    5  A    between atoms: C7_17  and  C8_18 
REMARK    6  A    between atoms: C8_18  and  N5_19 
ROOT
HETATM    1  C1  UNL     1      -3.860  30.335 -10.767  1.00  0.00     0.069 C 
HETATM    2  C2  UNL     1      -3.014  29.826 -11.883  1.00  0.00     0.032 A 
HETATM    3  N1  UNL     1      -3.460  28.753 -12.610  1.00  0.00    -0.196 N 
ATOM      4  H1  UNL     1      -4.379  28.364 -12.402  1.00  0.00     0.184 HD
HETATM    5  C3  UNL     1      -2.722  28.198 -13.592  1.00  0.00     0.677 A 
HETATM    6  N3  UNL     1      -1.510  28.712 -13.868  1.00  0.00    -0.177 N 
ATOM      7  H3  UNL     1      -0.943  28.299 -14.608  1.00  0.00     0.185 HD
HETATM    8  C4  UNL     1      -1.043  29.756 -13.184  1.00  0.00     0.122 A 
HETATM    9  C5  UNL     1      -1.780  30.363 -12.155  1.00  0.00     0.009 A 
ENDROOT
BRANCH   9  10
HETATM   10  C6  UNL     1      -1.206  31.560 -11.500  1.00  0.00     0.046 C 
BRANCH  10  11
HETATM   11  C7  UNL     1      -0.422  31.333 -10.266  1.00  0.00     0.035 C 
BRANCH  11  12
HETATM   12  C8  UNL     1      -0.859  31.950  -9.004  1.00  0.00     0.272 C 
BRANCH  12  13
HETATM   13  N5  UNL     1      -0.919  30.990  -7.903  1.00  0.00     0.088 N 
HETATM   14  C9  UNL     1      -0.818  29.613  -8.296  1.00  0.00     0.274 C 
HETATM   15  C10 UNL     1      -2.124  29.371  -7.563  1.00  0.00     0.060 C 
HETATM   16  C11 UNL     1      -2.225  30.865  -7.306  1.00  0.00     0.274 C 
ENDBRANCH  12  13
ENDBRANCH  11  12
ENDBRANCH  10  11
ENDBRANCH   9  10
BRANCH   8  17
HETATM   17  N4  UNL     1       0.123  30.213 -13.493  1.00  0.00    -0.385 N 
ATOM     18  H42 UNL     1       0.271  30.651 -14.402  1.00  0.00     0.157 HD
ATOM     19  H41 UNL     1       0.874  30.119 -12.809  1.00  0.00     0.157 HD
ENDBRANCH   8  17
BRANCH   5  20
HETATM   20  N2  UNL     1      -3.166  27.184 -14.274  1.00  0.00    -0.234 N 
ATOM     21  H22 UNL     1      -3.998  27.288 -14.855  1.00  0.00     0.174 HD
ATOM     22  H21 UNL     1      -2.699  26.278 -14.236  1.00  0.00     0.174 HD
ENDBRANCH   5  20
TORSDOF 6
ENDMDL
MODEL 4
REMARK VINA RESULT: -5.794137527      0.584      1.025
REMARK  6 active torsions:
REMARK  status: ('A' for Active; 'I' for Inactive)
REMARK    1  A    between atoms: C3_5  and  N2_6 
REMARK    2  A    between atoms: C4_11  and  N4_12 
REMARK    3  A    between atoms: C5_15  and  C6_16 
REMARK    4  A    between atoms: C6_16  and  C7_17 
REMARK    5  A    between atoms: C7_17  and  C8_18 
REMARK    6  A    between atoms: C8_18  and  N5_19 
ROOT
HETATM    1  C1  UNL     1      -3.236  33.541  -6.467  1.00  0.00     0.069 C 
HETATM    2  C2  UNL     1      -2.823  32.111  -6.418  1.00  0.00     0.032 A 
HETATM    3  N1  UNL     1      -3.542  31.245  -5.637  1.00  0.00    -0.196 N 
ATOM      4  H1  UNL     1      -4.368  31.589  -5.149  1.00  0.00     0.184 HD
HETATM    5  C3  UNL     1      -3.191  29.951  -5.493  1.00  0.00     0.677 A 
HETATM    6  N3  UNL     1      -2.103  29.495  -6.138  1.00  0.00    -0.177 N 
ATOM      7  H3  UNL     1      -1.828  28.518  -6.036  1.00  0.00     0.185 HD
HETATM    8  C4  UNL     1      -1.379  30.306  -6.909  1.00  0.00     0.122 A 
HETATM    9  C5  UNL     1      -1.711  31.659  -7.084  1.00  0.00     0.009 A 
ENDROOT
BRANCH   9  10
HETATM   10  C6  UNL     1      -0.887  32.463  -8.015  1.00  0.00     0.046 C 
BRANCH  10  11
HETATM   11  C7  UNL     1      -1.369  32.570  -9.410  1.00  0.00     0.035 C 
BRANCH  11  12
HETATM   12  C8  UNL     1      -2.470  31.708  -9.866  1.00  0.00     0.272 C 
BRANCH  12  13
HETATM   13  N5  UNL     1      -1.997  30.532 -10.592  1.00  0.00     0.088 N 
HETATM   14  C9  UNL     1      -0.658  30.634 -11.099  1.00  0.00     0.274 C 
HETATM   15  C10 UNL     1      -1.216  30.306 -12.471  1.00  0.00     0.060 C 
HETATM   16  C11 UNL     1      -2.615  30.352 -11.882  1.00  0.00     0.274 C 
ENDBRANCH  12  13
ENDBRANCH  11  12
ENDBRANCH  10  11
ENDBRANCH   9  10
BRANCH   8  17
HETATM   17  N4  UNL     1      -0.348  29.816  -7.509  1.00  0.00    -0.385 N 
ATOM     18  H42 UNL     1      -0.235  29.949  -8.513  1.00  0.00     0.157 HD
ATOM     19  H41 UNL     1       0.332  29.298  -6.952  1.00  0.00     0.157 HD
ENDBRANCH   8  17
BRANCH   5  20
HETATM   20  N2  UNL     1      -3.890  29.144  -4.751  1.00  0.00    -0.234 N 
ATOM     21  H22 UNL     1      -4.463  28.422  -5.188  1.00  0.00     0.174 HD
ATOM     22  H21 UNL     1      -3.881  29.221  -3.735  1.00  0.00     0.174 HD
ENDBRANCH   5  20
TORSDOF 6
ENDMDL
MODEL 5
REMARK VINA RESULT: -5.769712383      0.724      2.074
REMARK  6 active torsions:
REMARK  status: ('A' for Active; 'I' for Inactive)
REMARK    1  A    between atoms: C3_5  and  N2_6 
REMARK    2  A    between atoms: C4_11  and  N4_12 
REMARK    3  A    between atoms: C5_15  and  C6_16 
REMARK    4  A    between atoms: C6_16  and  C7_17 
REMARK    5  A    between atoms: C7_17  and  C8_18 
REMARK    6  A    between atoms: C8_18  and  N5_19 
ROOT
HETATM    1  C1  UNL     1      -0.264  29.764  -7.677  1.00  0.00     0.069 C 
HETATM    2  C2  UNL     1      -1.420  30.344  -6.938  1.00  0.00     0.032 A 
HETATM    3  N1  UNL     1      -2.134  29.534  -6.094  1.00  0.00    -0.196 N 
ATOM      4  H1  UNL     1      -1.827  28.571  -5.956  1.00  0.00     0.184 HD
HETATM    5  C3  UNL     1      -3.229  29.970  -5.441  1.00  0.00     0.677 A 
HETATM    6  N3  UNL     1      -3.635  31.239  -5.621  1.00  0.00    -0.177 N 
ATOM      7  H3  UNL     1      -4.463  31.579  -5.132  1.00  0.00     0.185 HD
HETATM    8  C4  UNL     1      -2.965  32.058  -6.431  1.00  0.00     0.122 A 
HETATM    9  C5  UNL     1      -1.820  31.643  -7.130  1.00  0.00     0.009 A 
ENDROOT
BRANCH   9  10
HETATM   10  C6  UNL     1      -1.105  32.644  -7.952  1.00  0.00     0.046 C 
BRANCH  10  11
HETATM   11  C7  UNL     1      -1.576  32.823  -9.344  1.00  0.00     0.035 C 
BRANCH  11  12
HETATM   12  C8  UNL     1      -1.093  31.916 -10.396  1.00  0.00     0.272 C 
BRANCH  12  13
HETATM   13  N5  UNL     1      -2.022  30.818 -10.659  1.00  0.00     0.088 N 
HETATM   14  C9  UNL     1      -2.188  30.487 -12.046  1.00  0.00     0.274 C 
HETATM   15  C10 UNL     1      -3.680  30.684 -11.852  1.00  0.00     0.060 C 
HETATM   16  C11 UNL     1      -3.405  31.155 -10.434  1.00  0.00     0.274 C 
ENDBRANCH  12  13
ENDBRANCH  11  12
ENDBRANCH  10  11
ENDBRANCH   9  10
BRANCH   8  17
HETATM   17  N4  UNL     1      -3.394  33.267  -6.564  1.00  0.00    -0.385 N 
ATOM     18  H42 UNL     1      -4.284  33.538  -6.148  1.00  0.00     0.157 HD
ATOM     19  H41 UNL     1      -2.821  33.926  -7.092  1.00  0.00     0.157 HD
ENDBRANCH   8  17
BRANCH   5  20
HETATM   20  N2  UNL     1      -3.890  29.187  -4.639  1.00  0.00    -0.234 N 
ATOM     21  H22 UNL     1      -4.257  28.300  -4.985  1.00  0.00     0.174 HD
ATOM     22  H21 UNL     1      -4.056  29.446  -3.667  1.00  0.00     0.174 HD
ENDBRANCH   5  20
TORSDOF 6
ENDMDL
