MODEL 1
REMARK VINA RESULT: -8.677642967      0.000      0.000
REMARK  16 active torsions:
REMARK  status: ('A' for Active; 'I' for Inactive)
REMARK    1  A    between atoms: C2_2  and  N1_3 
REMARK    2  A    between atoms: C2_2  and  C3_7 
REMARK    3  A    between atoms: C3_7  and  O1_8 
REMARK    4  A    between atoms: O1_8  and  N2_9 
REMARK    5  A    between atoms: N2_9  and  C4_10 
REMARK    6  A    between atoms: C4_10  and  C5_11 
REMARK    7  A    between atoms: C6_14  and  N4_15 
REMARK       I    between atoms: N4_15  and  C7_17 
REMARK    8  A    between atoms: C7_17  and  C8_19 
REMARK    9  A    between atoms: C10_23  and  C11_24 
REMARK   10  A    between atoms: C12_25  and  N6_26 
REMARK       I    between atoms: N7_29  and  C15_30 
REMARK   11  A    between atoms: C15_30  and  C16_32 
REMARK   12  A    between atoms: C19_39  and  S1_40 
REMARK   13  A    between atoms: S1_40  and  C20_41 
REMARK   14  A    between atoms: C20_41  and  C21_42 
REMARK   15  A    between atoms: N10_45  and  N11_46 
REMARK   16  A    between atoms: C24_56  and  O10_57 
ROOT
HETATM    1  C8  UNL     1      31.950  47.325  33.585  1.00  0.00     0.177 A 
HETATM    2  N5  UNL     1      31.675  47.832  32.372  1.00  0.00    -0.354 N 
ATOM      3  H5  UNL     1      30.970  47.404  31.774  1.00  0.00     0.165 HD
HETATM    4  C9  UNL     1      32.363  48.931  31.965  1.00  0.00     0.128 A 
HETATM    5  C10 UNL     1      33.320  49.565  32.704  1.00  0.00     0.127 A 
HETATM    6  O7  UNL     1      33.557  49.019  33.903  1.00  0.00    -0.270 OA
HETATM    7  C22 UNL     1      32.924  47.980  34.318  1.00  0.00     0.321 A 
HETATM    8  O8  UNL     1      33.188  47.515  35.451  1.00  0.00    -0.257 OA
ENDROOT
BRANCH   1   9
HETATM    9  C7  UNL     1      31.239  46.149  34.082  1.00  0.00     0.280 C 
HETATM   10  N4  UNL     1      30.198  46.217  35.019  1.00  0.00    -0.303 N 
ATOM     11  H4  UNL     1      30.389  46.624  35.935  1.00  0.00     0.171 HD
HETATM   12  O2  UNL     1      31.592  45.032  33.639  1.00  0.00    -0.265 OA
BRANCH  10  13
HETATM   13  C6  UNL     1      29.021  45.789  34.771  1.00  0.00     0.178 A 
HETATM   14  N3  UNL     1      28.706  44.624  34.193  1.00  0.00    -0.332 N 
HETATM   15  C5  UNL     1      27.425  44.262  33.983  1.00  0.00     0.117 A 
ATOM     16  H3  UNL     1      29.454  43.994  33.905  1.00  0.00     0.168 HD
HETATM   17  C24 UNL     1      26.367  45.073  34.353  1.00  0.00     0.173 A 
HETATM   18  N12 UNL     1      26.661  46.238  34.931  1.00  0.00    -0.299 N 
HETATM   19  C23 UNL     1      27.942  46.601  35.141  1.00  0.00     0.291 A 
ATOM     20  H12 UNL     1      25.907  46.862  35.217  1.00  0.00     0.171 HD
HETATM   21  O9  UNL     1      28.196  47.713  35.692  1.00  0.00    -0.264 OA
BRANCH  15  22
HETATM   22  C4  UNL     1      27.113  42.965  33.345  1.00  0.00     0.252 C 
BRANCH  22  23
HETATM   23  N2  UNL     1      26.529  42.791  32.330  1.00  0.00    -0.292 NA
BRANCH  23  24
HETATM   24  O1  UNL     1      25.901  42.605  31.257  1.00  0.00    -0.207 OA
BRANCH  24  25
HETATM   25  C3  UNL     1      26.231  41.745  30.201  1.00  0.00     0.250 C 
BRANCH  25  26
HETATM   26  C2  UNL     1      25.021  40.906  29.914  1.00  0.00     0.206 C 
HETATM   27  C1  UNL     1      25.462  39.601  29.317  1.00  0.00     0.042 C 
BRANCH  26  28
HETATM   28  N1  UNL     1      24.163  40.766  31.065  1.00  0.00    -0.073 N 
ATOM     29  H13 UNL     1      23.201  41.005  30.826  1.00  0.00     0.274 HD
ATOM     30  H12 UNL     1      24.042  39.781  31.304  1.00  0.00     0.274 HD
ATOM     31  H11 UNL     1      24.471  41.296  31.881  1.00  0.00     0.274 HD
ENDBRANCH  26  28
ENDBRANCH  25  26
ENDBRANCH  24  25
ENDBRANCH  23  24
ENDBRANCH  22  23
ENDBRANCH  15  22
BRANCH  17  32
HETATM   32  O10 UNL     1      25.051  44.701  34.137  1.00  0.00    -0.344 OA
ATOM     33  H10 UNL     1      24.428  44.627  34.849  1.00  0.00     0.219 HD
ENDBRANCH  17  32
ENDBRANCH  10  13
ENDBRANCH   1   9
BRANCH   5  34
HETATM   34  C11 UNL     1      34.082  50.738  32.307  1.00  0.00     0.137 A 
HETATM   35  C12 UNL     1      33.640  51.951  31.884  1.00  0.00     0.137 A 
HETATM   36  N8  UNL     1      34.771  52.680  31.562  1.00  0.00    -0.320 N 
HETATM   37  C19 UNL     1      35.868  51.949  31.779  1.00  0.00     0.168 A 
ATOM     38  H8  UNL     1      34.767  53.637  31.210  1.00  0.00     0.169 HD
HETATM   39  N10 UNL     1      35.448  50.766  32.233  1.00  0.00    -0.234 N 
BRANCH  35  40
HETATM   40  N6  UNL     1      32.361  52.536  31.789  1.00  0.00    -0.362 N 
HETATM   41  C13 UNL     1      32.038  53.422  30.702  1.00  0.00     0.144 C 
HETATM   42  C14 UNL     1      30.700  53.163  30.060  1.00  0.00     0.146 C 
HETATM   43  N7  UNL     1      29.984  52.147  30.847  1.00  0.00    -0.340 N 
HETATM   44  C15 UNL     1      29.391  51.071  30.165  1.00  0.00     0.320 C 
HETATM   45  C17 UNL     1      29.976  52.395  32.264  1.00  0.00     0.146 C 
HETATM   46  O3  UNL     1      29.509  51.073  28.875  1.00  0.00    -0.261 OA
HETATM   47  C18 UNL     1      31.381  52.181  32.828  1.00  0.00     0.144 C 
BRANCH  44  48
HETATM   48  C16 UNL     1      28.670  49.971  30.745  1.00  0.00     0.270 C 
HETATM   49  O4  UNL     1      29.146  48.834  30.834  1.00  0.00    -0.640 OA
HETATM   50  O5  UNL     1      27.376  50.187  31.230  1.00  0.00    -0.640 OA
ENDBRANCH  44  48
ENDBRANCH  35  40
BRANCH  37  51
HETATM   51  S1  UNL     1      37.581  52.444  31.512  1.00  0.00    -0.083 SA
BRANCH  51  52
HETATM   52  C20 UNL     1      38.258  51.616  30.051  1.00  0.00     0.181 C 
BRANCH  52  53
HETATM   53  C21 UNL     1      39.269  50.630  30.500  1.00  0.00     0.240 C 
HETATM   54  N9  UNL     1      40.633  50.753  30.125  1.00  0.00    -0.061 NA
HETATM   55  O6  UNL     1      38.957  49.638  31.234  1.00  0.00    -0.276 OA
ENDBRANCH  52  53
ENDBRANCH  51  52
ENDBRANCH  37  51
BRANCH  39  56
HETATM   56  N11 UNL     1      36.307  49.715  32.580  1.00  0.00    -0.336 N 
ATOM     57 2H11 UNL     1      36.087  49.013  33.286  1.00  0.00     0.177 HD
ATOM     58 1H11 UNL     1      37.225  49.538  32.174  1.00  0.00     0.177 HD
ENDBRANCH  39  56
ENDBRANCH   5  34
TORSDOF 16
ENDMDL
MODEL 2
REMARK VINA RESULT: -8.653178136      2.595      3.671
REMARK  16 active torsions:
REMARK  status: ('A' for Active; 'I' for Inactive)
REMARK    1  A    between atoms: C2_2  and  N1_3 
REMARK    2  A    between atoms: C2_2  and  C3_7 
REMARK    3  A    between atoms: C3_7  and  O1_8 
REMARK    4  A    between atoms: O1_8  and  N2_9 
REMARK    5  A    between atoms: N2_9  and  C4_10 
REMARK    6  A    between atoms: C4_10  and  C5_11 
REMARK    7  A    between atoms: C6_14  and  N4_15 
REMARK       I    between atoms: N4_15  and  C7_17 
REMARK    8  A    between atoms: C7_17  and  C8_19 
REMARK    9  A    between atoms: C10_23  and  C11_24 
REMARK   10  A    between atoms: C12_25  and  N6_26 
REMARK       I    between atoms: N7_29  and  C15_30 
REMARK   11  A    between atoms: C15_30  and  C16_32 
REMARK   12  A    between atoms: C19_39  and  S1_40 
REMARK   13  A    between atoms: S1_40  and  C20_41 
REMARK   14  A    between atoms: C20_41  and  C21_42 
REMARK   15  A    between atoms: N10_45  and  N11_46 
REMARK   16  A    between atoms: C24_56  and  O10_57 
ROOT
HETATM    1  C8  UNL     1      29.880  46.511  34.166  1.00  0.00     0.177 A 
HETATM    2  N5  UNL     1      29.483  47.794  34.178  1.00  0.00    -0.354 N 
ATOM      3  H5  UNL     1      28.588  48.061  34.588  1.00  0.00     0.165 HD
HETATM    4  C9  UNL     1      30.306  48.726  33.630  1.00  0.00     0.128 A 
HETATM    5  C10 UNL     1      31.518  48.454  33.064  1.00  0.00     0.127 A 
HETATM    6  O7  UNL     1      31.865  47.161  33.076  1.00  0.00    -0.270 OA
HETATM    7  C22 UNL     1      31.110  46.255  33.586  1.00  0.00     0.321 A 
HETATM    8  O8  UNL     1      31.490  45.061  33.570  1.00  0.00    -0.257 OA
ENDROOT
BRANCH   1   9
HETATM    9  C7  UNL     1      29.042  45.464  34.746  1.00  0.00     0.280 C 
HETATM   10  N4  UNL     1      27.776  45.126  34.247  1.00  0.00    -0.303 N 
ATOM     11  H4  UNL     1      27.051  45.844  34.222  1.00  0.00     0.171 HD
HETATM   12  O2  UNL     1      29.492  44.848  35.739  1.00  0.00    -0.265 OA
BRANCH  10  13
HETATM   13  C6  UNL     1      27.493  43.955  33.823  1.00  0.00     0.178 A 
HETATM   14  N3  UNL     1      28.369  42.999  33.494  1.00  0.00    -0.332 N 
HETATM   15  C5  UNL     1      27.965  41.788  33.062  1.00  0.00     0.117 A 
ATOM     16  H3  UNL     1      29.367  43.190  33.573  1.00  0.00     0.168 HD
HETATM   17  C24 UNL     1      26.626  41.467  32.936  1.00  0.00     0.173 A 
HETATM   18  N12 UNL     1      25.738  42.408  33.259  1.00  0.00    -0.299 N 
HETATM   19  C23 UNL     1      26.140  43.620  33.691  1.00  0.00     0.291 A 
ATOM     20  H12 UNL     1      24.741  42.208  33.178  1.00  0.00     0.171 HD
HETATM   21  O9  UNL     1      25.278  44.497  33.992  1.00  0.00    -0.264 OA
BRANCH  15  22
HETATM   22  C4  UNL     1      28.961  40.752  32.712  1.00  0.00     0.252 C 
BRANCH  22  23
HETATM   23  N2  UNL     1      29.193  39.756  33.307  1.00  0.00    -0.292 NA
BRANCH  23  24
HETATM   24  O1  UNL     1      29.438  38.703  33.949  1.00  0.00    -0.207 OA
BRANCH  24  25
HETATM   25  C3  UNL     1      28.605  37.591  34.136  1.00  0.00     0.250 C 
BRANCH  25  26
HETATM   26  C2  UNL     1      27.807  37.837  35.381  1.00  0.00     0.206 C 
HETATM   27  C1  UNL     1      28.748  38.001  36.540  1.00  0.00     0.042 C 
BRANCH  26  28
HETATM   28  N1  UNL     1      26.867  38.922  35.228  1.00  0.00    -0.073 N 
ATOM     29  H13 UNL     1      27.283  39.801  35.533  1.00  0.00     0.274 HD
ATOM     30  H12 UNL     1      26.722  39.133  34.241  1.00  0.00     0.274 HD
ATOM     31  H11 UNL     1      25.974  38.767  35.697  1.00  0.00     0.274 HD
ENDBRANCH  26  28
ENDBRANCH  25  26
ENDBRANCH  24  25
ENDBRANCH  23  24
ENDBRANCH  22  23
ENDBRANCH  15  22
BRANCH  17  32
HETATM   32  O10 UNL     1      26.211  40.223  32.492  1.00  0.00    -0.344 OA
ATOM     33  H10 UNL     1      25.427  39.807  32.829  1.00  0.00     0.219 HD
ENDBRANCH  17  32
ENDBRANCH  10  13
ENDBRANCH   1   9
BRANCH   5  34
HETATM   34  C11 UNL     1      32.427  49.417  32.465  1.00  0.00     0.137 A 
HETATM   35  C12 UNL     1      32.181  50.368  31.526  1.00  0.00     0.137 A 
HETATM   36  N8  UNL     1      33.401  50.959  31.251  1.00  0.00    -0.320 N 
HETATM   37  C19 UNL     1      34.363  50.400  31.990  1.00  0.00     0.168 A 
ATOM     38  H8  UNL     1      33.545  51.714  30.580  1.00  0.00     0.169 HD
HETATM   39  N10 UNL     1      33.769  49.460  32.730  1.00  0.00    -0.234 N 
BRANCH  35  40
HETATM   40  N6  UNL     1      31.004  50.832  30.905  1.00  0.00    -0.362 N 
HETATM   41  C13 UNL     1      30.476  50.167  29.744  1.00  0.00     0.144 C 
HETATM   42  C14 UNL     1      28.988  49.934  29.779  1.00  0.00     0.146 C 
HETATM   43  N7  UNL     1      28.427  50.618  30.954  1.00  0.00    -0.340 N 
HETATM   44  C15 UNL     1      27.544  49.906  31.783  1.00  0.00     0.320 C 
HETATM   45  C17 UNL     1      28.865  51.980  31.110  1.00  0.00     0.146 C 
HETATM   46  O3  UNL     1      27.276  48.690  31.426  1.00  0.00    -0.261 OA
HETATM   47  C18 UNL     1      30.341  52.000  31.508  1.00  0.00     0.144 C 
BRANCH  44  48
HETATM   48  C16 UNL     1      26.908  50.382  32.982  1.00  0.00     0.270 C 
HETATM   49  O4  UNL     1      26.277  51.443  33.025  1.00  0.00    -0.640 OA
HETATM   50  O5  UNL     1      27.006  49.620  34.151  1.00  0.00    -0.640 OA
ENDBRANCH  44  48
ENDBRANCH  35  40
BRANCH  37  51
HETATM   51  S1  UNL     1      36.117  50.814  31.997  1.00  0.00    -0.083 SA
BRANCH  51  52
HETATM   52  C20 UNL     1      36.368  52.515  31.430  1.00  0.00     0.181 C 
BRANCH  52  53
HETATM   53  C21 UNL     1      36.254  52.537  29.953  1.00  0.00     0.240 C 
HETATM   54  N9  UNL     1      35.029  52.870  29.316  1.00  0.00    -0.061 NA
HETATM   55  O6  UNL     1      37.242  52.261  29.200  1.00  0.00    -0.276 OA
ENDBRANCH  52  53
ENDBRANCH  51  52
ENDBRANCH  37  51
BRANCH  39  56
HETATM   56  N11 UNL     1      34.448  48.644  33.645  1.00  0.00    -0.336 N 
ATOM     57 2H11 UNL     1      35.032  47.853  33.376  1.00  0.00     0.177 HD
ATOM     58 1H11 UNL     1      34.435  48.750  34.659  1.00  0.00     0.177 HD
ENDBRANCH  39  56
ENDBRANCH   5  34
TORSDOF 16
ENDMDL
MODEL 3
REMARK VINA RESULT: -8.644141605      2.033      2.907
REMARK  16 active torsions:
REMARK  status: ('A' for Active; 'I' for Inactive)
REMARK    1  A    between atoms: C2_2  and  N1_3 
REMARK    2  A    between atoms: C2_2  and  C3_7 
REMARK    3  A    between atoms: C3_7  and  O1_8 
REMARK    4  A    between atoms: O1_8  and  N2_9 
REMARK    5  A    between atoms: N2_9  and  C4_10 
REMARK    6  A    between atoms: C4_10  and  C5_11 
REMARK    7  A    between atoms: C6_14  and  N4_15 
REMARK       I    between atoms: N4_15  and  C7_17 
REMARK    8  A    between atoms: C7_17  and  C8_19 
REMARK    9  A    between atoms: C10_23  and  C11_24 
REMARK   10  A    between atoms: C12_25  and  N6_26 
REMARK       I    between atoms: N7_29  and  C15_30 
REMARK   11  A    between atoms: C15_30  and  C16_32 
REMARK   12  A    between atoms: C19_39  and  S1_40 
REMARK   13  A    between atoms: S1_40  and  C20_41 
REMARK   14  A    between atoms: C20_41  and  C21_42 
REMARK   15  A    between atoms: N10_45  and  N11_46 
REMARK   16  A    between atoms: C24_56  and  O10_57 
ROOT
HETATM    1  C8  UNL     1      30.022  46.282  34.205  1.00  0.00     0.177 A 
HETATM    2  N5  UNL     1      29.772  47.589  34.386  1.00  0.00    -0.354 N 
ATOM      3  H5  UNL     1      28.941  47.897  34.891  1.00  0.00     0.165 HD
HETATM    4  C9  UNL     1      30.656  48.488  33.880  1.00  0.00     0.128 A 
HETATM    5  C10 UNL     1      31.790  48.159  33.196  1.00  0.00     0.127 A 
HETATM    6  O7  UNL     1      31.992  46.845  33.041  1.00  0.00    -0.270 OA
HETATM    7  C22 UNL     1      31.174  45.969  33.507  1.00  0.00     0.321 A 
HETATM    8  O8  UNL     1      31.417  44.752  33.332  1.00  0.00    -0.257 OA
ENDROOT
BRANCH   1   9
HETATM    9  C7  UNL     1      29.112  45.266  34.732  1.00  0.00     0.280 C 
HETATM   10  N4  UNL     1      27.761  45.178  34.365  1.00  0.00    -0.303 N 
ATOM     11  H4  UNL     1      27.151  45.976  34.546  1.00  0.00     0.171 HD
HETATM   12  O2  UNL     1      29.578  44.444  35.551  1.00  0.00    -0.265 OA
BRANCH  10  13
HETATM   13  C6  UNL     1      27.265  44.138  33.814  1.00  0.00     0.178 A 
HETATM   14  N3  UNL     1      27.946  43.160  33.209  1.00  0.00    -0.332 N 
HETATM   15  C5  UNL     1      27.324  42.097  32.663  1.00  0.00     0.117 A 
ATOM     16  H3  UNL     1      28.963  43.220  33.159  1.00  0.00     0.168 HD
HETATM   17  C24 UNL     1      25.949  41.958  32.700  1.00  0.00     0.173 A 
HETATM   18  N12 UNL     1      25.251  42.924  33.299  1.00  0.00    -0.299 N 
HETATM   19  C23 UNL     1      25.873  43.988  33.845  1.00  0.00     0.291 A 
ATOM     20  H12 UNL     1      24.235  42.857  33.345  1.00  0.00     0.171 HD
HETATM   21  O9  UNL     1      25.189  44.892  34.409  1.00  0.00    -0.264 OA
BRANCH  15  22
HETATM   22  C4  UNL     1      28.110  41.030  32.005  1.00  0.00     0.252 C 
BRANCH  22  23
HETATM   23  N2  UNL     1      27.949  40.594  30.917  1.00  0.00    -0.292 NA
BRANCH  23  24
HETATM   24  O1  UNL     1      27.782  40.139  29.757  1.00  0.00    -0.207 OA
BRANCH  24  25
HETATM   25  C3  UNL     1      26.749  39.313  29.293  1.00  0.00     0.250 C 
BRANCH  25  26
HETATM   26  C2  UNL     1      25.721  40.201  28.656  1.00  0.00     0.206 C 
HETATM   27  C1  UNL     1      24.373  39.548  28.772  1.00  0.00     0.042 C 
BRANCH  26  28
HETATM   28  N1  UNL     1      25.767  41.550  29.165  1.00  0.00    -0.073 N 
ATOM     29  H13 UNL     1      25.589  42.221  28.418  1.00  0.00     0.274 HD
ATOM     30  H12 UNL     1      24.959  41.736  29.759  1.00  0.00     0.274 HD
ATOM     31  H11 UNL     1      26.632  41.780  29.654  1.00  0.00     0.274 HD
ENDBRANCH  26  28
ENDBRANCH  25  26
ENDBRANCH  24  25
ENDBRANCH  23  24
ENDBRANCH  22  23
ENDBRANCH  15  22
BRANCH  17  32
HETATM   32  O10 UNL     1      25.309  40.866  32.139  1.00  0.00    -0.344 OA
ATOM     33  H10 UNL     1      24.479  40.547  32.470  1.00  0.00     0.219 HD
ENDBRANCH  17  32
ENDBRANCH  10  13
ENDBRANCH   1   9
BRANCH   5  34
HETATM   34  C11 UNL     1      32.760  49.086  32.635  1.00  0.00     0.137 A 
HETATM   35  C12 UNL     1      32.568  50.122  31.777  1.00  0.00     0.137 A 
HETATM   36  N8  UNL     1      33.825  50.629  31.502  1.00  0.00    -0.320 N 
HETATM   37  C19 UNL     1      34.757  49.938  32.164  1.00  0.00     0.168 A 
ATOM     38  H8  UNL     1      34.012  51.417  30.882  1.00  0.00     0.169 HD
HETATM   39  N10 UNL     1      34.108  48.998  32.854  1.00  0.00    -0.234 N 
BRANCH  35  40
HETATM   40  N6  UNL     1      31.417  50.727  31.233  1.00  0.00    -0.362 N 
HETATM   41  C13 UNL     1      30.883  50.287  29.972  1.00  0.00     0.144 C 
HETATM   42  C14 UNL     1      29.388  50.105  29.954  1.00  0.00     0.146 C 
HETATM   43  N7  UNL     1      28.834  50.601  31.223  1.00  0.00    -0.340 N 
HETATM   44  C15 UNL     1      27.915  49.791  31.912  1.00  0.00     0.320 C 
HETATM   45  C17 UNL     1      29.316  51.900  31.611  1.00  0.00     0.146 C 
HETATM   46  O3  UNL     1      27.610  48.664  31.352  1.00  0.00    -0.261 OA
HETATM   47  C18 UNL     1      30.786  51.799  32.020  1.00  0.00     0.144 C 
BRANCH  44  48
HETATM   48  C16 UNL     1      27.278  50.081  33.169  1.00  0.00     0.270 C 
HETATM   49  O4  UNL     1      27.355  49.326  34.144  1.00  0.00    -0.640 OA
HETATM   50  O5  UNL     1      26.539  51.260  33.299  1.00  0.00    -0.640 OA
ENDBRANCH  44  48
ENDBRANCH  35  40
BRANCH  37  51
HETATM   51  S1  UNL     1      36.540  50.205  32.137  1.00  0.00    -0.083 SA
BRANCH  51  52
HETATM   52  C20 UNL     1      37.032  51.039  30.607  1.00  0.00     0.181 C 
BRANCH  52  53
HETATM   53  C21 UNL     1      36.486  52.416  30.630  1.00  0.00     0.240 C 
HETATM   54  N9  UNL     1      37.054  53.418  31.460  1.00  0.00    -0.061 NA
HETATM   55  O6  UNL     1      35.491  52.754  29.912  1.00  0.00    -0.276 OA
ENDBRANCH  52  53
ENDBRANCH  51  52
ENDBRANCH  37  51
BRANCH  39  56
HETATM   56  N11 UNL     1      34.742  48.063  33.684  1.00  0.00    -0.336 N 
ATOM     57 2H11 UNL     1      34.632  47.054  33.588  1.00  0.00     0.177 HD
ATOM     58 1H11 UNL     1      35.371  48.283  34.456  1.00  0.00     0.177 HD
ENDBRANCH  39  56
ENDBRANCH   5  34
TORSDOF 16
ENDMDL
MODEL 4
REMARK VINA RESULT: -8.609734295      1.849      2.673
REMARK  16 active torsions:
REMARK  status: ('A' for Active; 'I' for Inactive)
REMARK    1  A    between atoms: C2_2  and  N1_3 
REMARK    2  A    between atoms: C2_2  and  C3_7 
REMARK    3  A    between atoms: C3_7  and  O1_8 
REMARK    4  A    between atoms: O1_8  and  N2_9 
REMARK    5  A    between atoms: N2_9  and  C4_10 
REMARK    6  A    between atoms: C4_10  and  C5_11 
REMARK    7  A    between atoms: C6_14  and  N4_15 
REMARK       I    between atoms: N4_15  and  C7_17 
REMARK    8  A    between atoms: C7_17  and  C8_19 
REMARK    9  A    between atoms: C10_23  and  C11_24 
REMARK   10  A    between atoms: C12_25  and  N6_26 
REMARK       I    between atoms: N7_29  and  C15_30 
REMARK   11  A    between atoms: C15_30  and  C16_32 
REMARK   12  A    between atoms: C19_39  and  S1_40 
REMARK   13  A    between atoms: S1_40  and  C20_41 
REMARK   14  A    between atoms: C20_41  and  C21_42 
REMARK   15  A    between atoms: N10_45  and  N11_46 
REMARK   16  A    between atoms: C24_56  and  O10_57 
ROOT
HETATM    1  C8  UNL     1      30.134  46.888  34.064  1.00  0.00     0.177 A 
HETATM    2  N5  UNL     1      31.285  46.589  33.441  1.00  0.00    -0.354 N 
ATOM      3  H5  UNL     1      31.639  45.633  33.426  1.00  0.00     0.165 HD
HETATM    4  C9  UNL     1      31.965  47.595  32.829  1.00  0.00     0.128 A 
HETATM    5  C10 UNL     1      31.560  48.898  32.800  1.00  0.00     0.127 A 
HETATM    6  O7  UNL     1      30.408  49.143  33.438  1.00  0.00    -0.270 OA
HETATM    7  C22 UNL     1      29.742  48.214  34.026  1.00  0.00     0.321 A 
HETATM    8  O8  UNL     1      28.669  48.505  34.605  1.00  0.00    -0.257 OA
ENDROOT
BRANCH   1   9
HETATM    9  C7  UNL     1      29.354  45.849  34.734  1.00  0.00     0.280 C 
HETATM   10  N4  UNL     1      27.966  45.714  34.588  1.00  0.00    -0.303 N 
ATOM     11  H4  UNL     1      27.366  46.493  34.860  1.00  0.00     0.171 HD
HETATM   12  O2  UNL     1      29.973  45.050  35.472  1.00  0.00    -0.265 OA
BRANCH  10  13
HETATM   13  C6  UNL     1      27.423  44.652  34.128  1.00  0.00     0.178 A 
HETATM   14  N3  UNL     1      28.056  43.625  33.551  1.00  0.00    -0.332 N 
HETATM   15  C5  UNL     1      27.387  42.544  33.104  1.00  0.00     0.117 A 
ATOM     16  H3  UNL     1      29.069  43.660  33.446  1.00  0.00     0.168 HD
HETATM   17  C24 UNL     1      26.013  42.437  33.219  1.00  0.00     0.173 A 
HETATM   18  N12 UNL     1      25.365  43.451  33.791  1.00  0.00    -0.299 N 
HETATM   19  C23 UNL     1      26.033  44.534  34.239  1.00  0.00     0.291 A 
ATOM     20  H12 UNL     1      24.351  43.408  33.893  1.00  0.00     0.171 HD
HETATM   21  O9  UNL     1      25.395  45.484  34.779  1.00  0.00    -0.264 OA
BRANCH  15  22
HETATM   22  C4  UNL     1      28.119  41.423  32.474  1.00  0.00     0.252 C 
BRANCH  22  23
HETATM   23  N2  UNL     1      27.933  40.965  31.399  1.00  0.00    -0.292 NA
BRANCH  23  24
HETATM   24  O1  UNL     1      27.731  40.470  30.261  1.00  0.00    -0.207 OA
BRANCH  24  25
HETATM   25  C3  UNL     1      26.642  39.697  29.835  1.00  0.00     0.250 C 
BRANCH  25  26
HETATM   26  C2  UNL     1      25.639  40.635  29.231  1.00  0.00     0.206 C 
HETATM   27  C1  UNL     1      24.257  40.138  29.543  1.00  0.00     0.042 C 
BRANCH  26  28
HETATM   28  N1  UNL     1      25.871  42.008  29.610  1.00  0.00    -0.073 N 
ATOM     29  H13 UNL     1      25.530  42.641  28.887  1.00  0.00     0.274 HD
ATOM     30  H12 UNL     1      25.255  42.276  30.378  1.00  0.00     0.274 HD
ATOM     31  H11 UNL     1      26.842  42.217  29.840  1.00  0.00     0.274 HD
ENDBRANCH  26  28
ENDBRANCH  25  26
ENDBRANCH  24  25
ENDBRANCH  23  24
ENDBRANCH  22  23
ENDBRANCH  15  22
BRANCH  17  32
HETATM   32  O10 UNL     1      25.326  41.326  32.759  1.00  0.00    -0.344 OA
ATOM     33  H10 UNL     1      24.753  41.368  32.003  1.00  0.00     0.219 HD
ENDBRANCH  17  32
ENDBRANCH  10  13
ENDBRANCH   1   9
BRANCH   5  34
HETATM   34  C11 UNL     1      32.256  50.004  32.163  1.00  0.00     0.137 A 
HETATM   35  C12 UNL     1      31.847  50.814  31.152  1.00  0.00     0.137 A 
HETATM   36  N8  UNL     1      32.913  51.649  30.874  1.00  0.00    -0.320 N 
HETATM   37  C19 UNL     1      33.941  51.371  31.682  1.00  0.00     0.168 A 
ATOM     38  H8  UNL     1      32.914  52.374  30.156  1.00  0.00     0.169 HD
HETATM   39  N10 UNL     1      33.540  50.368  32.467  1.00  0.00    -0.234 N 
BRANCH  35  40
HETATM   40  N6  UNL     1      30.626  50.958  30.462  1.00  0.00    -0.362 N 
HETATM   41  C13 UNL     1      30.158  49.926  29.576  1.00  0.00     0.144 C 
HETATM   42  C14 UNL     1      28.700  49.580  29.733  1.00  0.00     0.146 C 
HETATM   43  N7  UNL     1      28.082  50.535  30.666  1.00  0.00    -0.340 N 
HETATM   44  C15 UNL     1      27.279  50.030  31.703  1.00  0.00     0.320 C 
HETATM   45  C17 UNL     1      28.386  51.913  30.388  1.00  0.00     0.146 C 
HETATM   46  O3  UNL     1      27.129  48.744  31.739  1.00  0.00    -0.261 OA
HETATM   47  C18 UNL     1      29.856  52.188  30.709  1.00  0.00     0.144 C 
BRANCH  44  48
HETATM   48  C16 UNL     1      26.607  50.788  32.724  1.00  0.00     0.270 C 
HETATM   49  O4  UNL     1      27.202  51.570  33.473  1.00  0.00    -0.640 OA
HETATM   50  O5  UNL     1      25.226  50.637  32.884  1.00  0.00    -0.640 OA
ENDBRANCH  44  48
ENDBRANCH  35  40
BRANCH  37  51
HETATM   51  S1  UNL     1      35.554  52.174  31.714  1.00  0.00    -0.083 SA
BRANCH  51  52
HETATM   52  C20 UNL     1      36.642  51.459  30.456  1.00  0.00     0.181 C 
BRANCH  52  53
HETATM   53  C21 UNL     1      37.498  50.438  31.105  1.00  0.00     0.240 C 
HETATM   54  N9  UNL     1      38.863  50.288  30.745  1.00  0.00    -0.061 NA
HETATM   55  O6  UNL     1      37.048  49.660  32.006  1.00  0.00    -0.276 OA
ENDBRANCH  52  53
ENDBRANCH  51  52
ENDBRANCH  37  51
BRANCH  39  56
HETATM   56  N11 UNL     1      34.341  49.787  33.459  1.00  0.00    -0.336 N 
ATOM     57 2H11 UNL     1      35.249  49.359  33.277  1.00  0.00     0.177 HD
ATOM     58 1H11 UNL     1      34.112  49.731  34.451  1.00  0.00     0.177 HD
ENDBRANCH  39  56
ENDBRANCH   5  34
TORSDOF 16
ENDMDL
MODEL 5
REMARK VINA RESULT: -8.470257069      2.238      2.951
REMARK  16 active torsions:
REMARK  status: ('A' for Active; 'I' for Inactive)
REMARK    1  A    between atoms: C2_2  and  N1_3 
REMARK    2  A    between atoms: C2_2  and  C3_7 
REMARK    3  A    between atoms: C3_7  and  O1_8 
REMARK    4  A    between atoms: O1_8  and  N2_9 
REMARK    5  A    between atoms: N2_9  and  C4_10 
REMARK    6  A    between atoms: C4_10  and  C5_11 
REMARK    7  A    between atoms: C6_14  and  N4_15 
REMARK       I    between atoms: N4_15  and  C7_17 
REMARK    8  A    between atoms: C7_17  and  C8_19 
REMARK    9  A    between atoms: C10_23  and  C11_24 
REMARK   10  A    between atoms: C12_25  and  N6_26 
REMARK       I    between atoms: N7_29  and  C15_30 
REMARK   11  A    between atoms: C15_30  and  C16_32 
REMARK   12  A    between atoms: C19_39  and  S1_40 
REMARK   13  A    between atoms: S1_40  and  C20_41 
REMARK   14  A    between atoms: C20_41  and  C21_42 
REMARK   15  A    between atoms: N10_45  and  N11_46 
REMARK   16  A    between atoms: C24_56  and  O10_57 
ROOT
HETATM    1  C8  UNL     1      30.584  46.040  34.478  1.00  0.00     0.177 A 
HETATM    2  N5  UNL     1      30.681  47.329  34.841  1.00  0.00    -0.354 N 
ATOM      3  H5  UNL     1      30.009  47.743  35.486  1.00  0.00     0.165 HD
HETATM    4  C9  UNL     1      31.700  48.067  34.324  1.00  0.00     0.128 A 
HETATM    5  C10 UNL     1      32.640  47.589  33.458  1.00  0.00     0.127 A 
HETATM    6  O7  UNL     1      32.497  46.300  33.127  1.00  0.00    -0.270 OA
HETATM    7  C22 UNL     1      31.545  45.576  33.598  1.00  0.00     0.321 A 
HETATM    8  O8  UNL     1      31.463  44.374  33.253  1.00  0.00    -0.257 OA
ENDROOT
BRANCH   1   9
HETATM    9  C7  UNL     1      29.514  45.194  35.005  1.00  0.00     0.280 C 
HETATM   10  N4  UNL     1      28.174  45.315  34.613  1.00  0.00    -0.303 N 
ATOM     11  H4  UNL     1      27.696  46.203  34.768  1.00  0.00     0.171 HD
HETATM   12  O2  UNL     1      29.830  44.324  35.848  1.00  0.00    -0.265 OA
BRANCH  10  13
HETATM   13  C6  UNL     1      27.526  44.357  34.071  1.00  0.00     0.178 A 
HETATM   14  N3  UNL     1      28.053  43.298  33.446  1.00  0.00    -0.332 N 
HETATM   15  C5  UNL     1      27.278  42.334  32.911  1.00  0.00     0.117 A 
ATOM     16  H3  UNL     1      29.067  43.219  33.371  1.00  0.00     0.168 HD
HETATM   17  C24 UNL     1      25.897  42.385  32.982  1.00  0.00     0.173 A 
HETATM   18  N12 UNL     1      25.354  43.433  33.601  1.00  0.00    -0.299 N 
HETATM   19  C23 UNL     1      26.128  44.398  34.136  1.00  0.00     0.291 A 
ATOM     20  H12 UNL     1      24.339  43.505  33.672  1.00  0.00     0.171 HD
HETATM   21  O9  UNL     1      25.588  45.383  34.719  1.00  0.00    -0.264 OA
BRANCH  15  22
HETATM   22  C4  UNL     1      27.894  41.175  32.231  1.00  0.00     0.252 C 
BRANCH  22  23
HETATM   23  N2  UNL     1      27.751  40.852  31.101  1.00  0.00    -0.292 NA
BRANCH  23  24
HETATM   24  O1  UNL     1      27.596  40.519  29.898  1.00  0.00    -0.207 OA
BRANCH  24  25
HETATM   25  C3  UNL     1      26.590  39.715  29.347  1.00  0.00     0.250 C 
BRANCH  25  26
HETATM   26  C2  UNL     1      25.487  40.627  28.897  1.00  0.00     0.206 C 
HETATM   27  C1  UNL     1      24.168  40.037  29.306  1.00  0.00     0.042 C 
BRANCH  26  28
HETATM   28  N1  UNL     1      25.684  41.987  29.335  1.00  0.00    -0.073 N 
ATOM     29  H13 UNL     1      26.419  42.034  30.040  1.00  0.00     0.274 HD
ATOM     30  H12 UNL     1      26.117  42.542  28.597  1.00  0.00     0.274 HD
ATOM     31  H11 UNL     1      24.835  42.442  29.672  1.00  0.00     0.274 HD
ENDBRANCH  26  28
ENDBRANCH  25  26
ENDBRANCH  24  25
ENDBRANCH  23  24
ENDBRANCH  22  23
ENDBRANCH  15  22
BRANCH  17  32
HETATM   32  O10 UNL     1      25.101  41.394  32.433  1.00  0.00    -0.344 OA
ATOM     33  H10 UNL     1      25.332  40.475  32.493  1.00  0.00     0.219 HD
ENDBRANCH  17  32
ENDBRANCH  10  13
ENDBRANCH   1   9
BRANCH   5  34
HETATM   34  C11 UNL     1      33.742  48.342  32.880  1.00  0.00     0.137 A 
HETATM   35  C12 UNL     1      33.712  49.439  32.080  1.00  0.00     0.137 A 
HETATM   36  N8  UNL     1      35.028  49.710  31.751  1.00  0.00    -0.320 N 
HETATM   37  C19 UNL     1      35.840  48.818  32.325  1.00  0.00     0.168 A 
ATOM     38  H8  UNL     1      35.334  50.479  31.156  1.00  0.00     0.169 HD
HETATM   39  N10 UNL     1      35.057  47.984  33.013  1.00  0.00    -0.234 N 
BRANCH  35  40
HETATM   40  N6  UNL     1      32.675  50.283  31.634  1.00  0.00    -0.362 N 
HETATM   41  C13 UNL     1      32.280  50.290  30.250  1.00  0.00     0.144 C 
HETATM   42  C14 UNL     1      30.790  50.262  30.025  1.00  0.00     0.146 C 
HETATM   43  N7  UNL     1      30.110  50.405  31.322  1.00  0.00    -0.340 N 
HETATM   44  C15 UNL     1      29.067  49.515  31.631  1.00  0.00     0.320 C 
HETATM   45  C17 UNL     1      30.613  51.479  32.137  1.00  0.00     0.146 C 
HETATM   46  O3  UNL     1      28.772  48.640  30.724  1.00  0.00    -0.261 OA
HETATM   47  C18 UNL     1      32.012  51.125  32.643  1.00  0.00     0.144 C 
BRANCH  44  48
HETATM   48  C16 UNL     1      28.296  49.475  32.844  1.00  0.00     0.270 C 
HETATM   49  O4  UNL     1      27.626  50.435  33.239  1.00  0.00    -0.640 OA
HETATM   50  O5  UNL     1      28.300  48.306  33.612  1.00  0.00    -0.640 OA
ENDBRANCH  44  48
ENDBRANCH  35  40
BRANCH  37  51
HETATM   51  S1  UNL     1      37.637  48.737  32.201  1.00  0.00    -0.083 SA
BRANCH  51  52
HETATM   52  C20 UNL     1      38.167  47.064  31.756  1.00  0.00     0.181 C 
BRANCH  52  53
HETATM   53  C21 UNL     1      38.966  46.514  32.876  1.00  0.00     0.240 C 
HETATM   54  N9  UNL     1      40.290  46.045  32.673  1.00  0.00    -0.061 NA
HETATM   55  O6  UNL     1      38.500  46.440  34.059  1.00  0.00    -0.276 OA
ENDBRANCH  52  53
ENDBRANCH  51  52
ENDBRANCH  37  51
BRANCH  39  56
HETATM   56  N11 UNL     1      35.538  46.901  33.761  1.00  0.00    -0.336 N 
ATOM     57 2H11 UNL     1      36.141  46.172  33.381  1.00  0.00     0.177 HD
ATOM     58 1H11 UNL     1      35.344  46.727  34.747  1.00  0.00     0.177 HD
ENDBRANCH  39  56
ENDBRANCH   5  34
TORSDOF 16
ENDMDL
