MODEL 1
REMARK VINA RESULT: -8.558461730      0.000      0.000
REMARK  16 active torsions:
REMARK  status: ('A' for Active; 'I' for Inactive)
REMARK    1  A    between atoms: N1_1  and  C1_4 
REMARK    2  A    between atoms: C2_9  and  S1_10 
REMARK    3  A    between atoms: S1_10  and  C3_11 
REMARK    4  A    between atoms: C3_11  and  C4_12 
REMARK       I    between atoms: C4_12  and  N4_14 
REMARK    5  A    between atoms: N4_14  and  N5_16 
REMARK    6  A    between atoms: C8_21  and  C9_22 
REMARK    7  A    between atoms: C9_22  and  S2_23 
REMARK    8  A    between atoms: S2_23  and  C10_24 
REMARK    9  A    between atoms: C11_30  and  S4_31 
REMARK   10  A    between atoms: S4_31  and  N8_34 
REMARK   11  A    between atoms: C13_36  and  O4_37 
REMARK   12  A    between atoms: C13_36  and  C14_39 
REMARK   13  A    between atoms: C15_42  and  C16_43 
REMARK   14  A    between atoms: C16_43  and  N9_44 
REMARK   15  A    between atoms: C16_43  and  C17_48 
REMARK       I    between atoms: C17_48  and  N10_50 
REMARK   16  A    between atoms: N10_50  and  N11_52 
ROOT
HETATM    1  N5  UNL     1      34.827  49.887  33.303  1.00  0.00    -0.306 N 
ATOM      2  H5  UNL     1      35.097  50.663  33.907  1.00  0.00     0.186 HD
HETATM    3  C5  UNL     1      33.661  49.393  33.494  1.00  0.00     0.004 C 
HETATM    4  C6  UNL     1      32.802  49.964  34.550  1.00  0.00     0.054 C 
HETATM    5  C7  UNL     1      31.377  49.575  34.126  1.00  0.00     0.011 C 
HETATM    6  C8  UNL     1      31.334  48.040  34.359  1.00  0.00     0.002 C 
HETATM    7  C15 UNL     1      32.207  47.368  33.341  1.00  0.00     0.035 C 
HETATM    8  C18 UNL     1      33.200  48.283  32.672  1.00  0.00     0.061 C 
ENDROOT
BRANCH   6   9
HETATM    9  C9  UNL     1      29.856  47.705  34.141  1.00  0.00     0.086 C 
BRANCH   9  10
HETATM   10  S2  UNL     1      29.256  48.055  32.504  1.00  0.00    -0.108 SA
BRANCH  10  11
HETATM   11  C10 UNL     1      28.166  49.514  32.455  1.00  0.00     0.117 A 
HETATM   12  N6  UNL     1      27.027  49.500  33.152  1.00  0.00    -0.304 N 
HETATM   13  S3  UNL     1      26.339  50.994  32.832  1.00  0.00     0.069 SA
ATOM     14  H6  UNL     1      26.661  48.754  33.742  1.00  0.00     0.176 HD
HETATM   15  N7  UNL     1      27.516  51.611  31.812  1.00  0.00    -0.300 N 
HETATM   16  C11 UNL     1      28.424  50.629  31.745  1.00  0.00     0.185 A 
ATOM     17  H7  UNL     1      27.537  52.520  31.350  1.00  0.00     0.176 HD
BRANCH  16  18
HETATM   18  S4  UNL     1      29.864  50.853  30.691  1.00  0.00     0.265 S 
HETATM   19  O2  UNL     1      29.355  50.744  29.250  1.00  0.00    -0.204 OA
HETATM   20  O3  UNL     1      30.766  49.693  30.874  1.00  0.00    -0.204 OA
BRANCH  18  21
HETATM   21  N8  UNL     1      30.551  52.346  30.912  1.00  0.00    -0.156 NA
HETATM   22  C12 UNL     1      31.121  52.844  32.120  1.00  0.00     0.179 A 
HETATM   23  C13 UNL     1      31.880  52.790  30.793  1.00  0.00     0.231 A 
BRANCH  23  24
HETATM   24  O4  UNL     1      32.077  54.045  30.122  1.00  0.00    -0.364 OA
ATOM     25  H4  UNL     1      32.768  54.601  30.461  1.00  0.00     0.212 HD
ENDBRANCH  23  24
BRANCH  23  26
HETATM   26  C14 UNL     1      33.095  52.000  30.833  1.00  0.00     0.228 C 
HETATM   27  O5  UNL     1      33.364  51.125  29.998  1.00  0.00    -0.645 OA
HETATM   28  O6  UNL     1      34.049  52.199  31.854  1.00  0.00    -0.645 OA
ENDBRANCH  23  26
ENDBRANCH  18  21
ENDBRANCH  16  18
ENDBRANCH  10  11
ENDBRANCH   9  10
ENDBRANCH   6   9
BRANCH   7  29
HETATM   29  C16 UNL     1      32.841  46.079  33.796  1.00  0.00     0.281 C 
BRANCH  29  30
HETATM   30  N9  UNL     1      31.946  45.248  34.550  1.00  0.00    -0.066 N 
ATOM     31  H93 UNL     1      31.048  45.711  34.688  1.00  0.00     0.275 HD
ATOM     32  H92 UNL     1      31.637  44.449  33.995  1.00  0.00     0.275 HD
ATOM     33  H91 UNL     1      32.338  44.942  35.440  1.00  0.00     0.275 HD
ENDBRANCH  29  30
BRANCH  29  34
HETATM   34  C17 UNL     1      34.056  46.327  34.615  1.00  0.00     0.266 C 
HETATM   35  O7  UNL     1      33.942  46.796  35.768  1.00  0.00    -0.269 OA
HETATM   36  N10 UNL     1      35.358  46.051  34.135  1.00  0.00    -0.275 N 
ATOM     37  H10 UNL     1      35.455  45.669  33.195  1.00  0.00     0.189 HD
BRANCH  36  38
HETATM   38  N11 UNL     1      36.514  46.274  34.878  1.00  0.00    -0.343 N 
ATOM     39 2H11 UNL     1      36.534  45.907  35.830  1.00  0.00     0.176 HD
ATOM     40 1H11 UNL     1      37.326  46.777  34.520  1.00  0.00     0.176 HD
ENDBRANCH  36  38
ENDBRANCH  29  34
ENDBRANCH   7  29
BRANCH   1  41
HETATM   41  N4  UNL     1      35.754  49.481  32.368  1.00  0.00    -0.270 N 
HETATM   42  C4  UNL     1      36.971  50.155  32.208  1.00  0.00     0.245 C 
HETATM   43  O1  UNL     1      37.244  51.153  32.924  1.00  0.00    -0.271 OA
ATOM     44  H4  UNL     1      35.550  48.673  31.780  1.00  0.00     0.190 HD
BRANCH  42  45
HETATM   45  C3  UNL     1      37.983  49.752  31.218  1.00  0.00     0.186 C 
BRANCH  45  46
HETATM   46  S1  UNL     1      38.848  51.171  30.488  1.00  0.00    -0.094 SA
BRANCH  46  47
HETATM   47  C2  UNL     1      37.642  52.261  29.691  1.00  0.00     0.130 A 
HETATM   48  N3  UNL     1      36.353  52.402  29.944  1.00  0.00    -0.286 N 
HETATM   49  N2  UNL     1      35.658  53.224  29.276  1.00  0.00    -0.279 N 
ATOM     50  H3  UNL     1      35.915  51.847  30.679  1.00  0.00     0.188 HD
HETATM   51  C1  UNL     1      36.251  53.942  28.317  1.00  0.00     0.159 A 
ATOM     52  H2  UNL     1      34.663  53.337  29.468  1.00  0.00     0.189 HD
HETATM   53  S5  UNL     1      37.863  53.383  28.412  1.00  0.00    -0.027 SA
BRANCH  51  54
HETATM   54  N1  UNL     1      35.713  54.837  27.522  1.00  0.00    -0.379 N 
ATOM     55  H12 UNL     1      35.015  55.554  27.719  1.00  0.00     0.158 HD
ATOM     56  H11 UNL     1      35.894  54.991  26.529  1.00  0.00     0.158 HD
ENDBRANCH  51  54
ENDBRANCH  46  47
ENDBRANCH  45  46
ENDBRANCH  42  45
ENDBRANCH   1  41
TORSDOF 16
ENDMDL
MODEL 2
REMARK VINA RESULT: -8.461613059      3.748      7.106
REMARK  16 active torsions:
REMARK  status: ('A' for Active; 'I' for Inactive)
REMARK    1  A    between atoms: N1_1  and  C1_4 
REMARK    2  A    between atoms: C2_9  and  S1_10 
REMARK    3  A    between atoms: S1_10  and  C3_11 
REMARK    4  A    between atoms: C3_11  and  C4_12 
REMARK       I    between atoms: C4_12  and  N4_14 
REMARK    5  A    between atoms: N4_14  and  N5_16 
REMARK    6  A    between atoms: C8_21  and  C9_22 
REMARK    7  A    between atoms: C9_22  and  S2_23 
REMARK    8  A    between atoms: S2_23  and  C10_24 
REMARK    9  A    between atoms: C11_30  and  S4_31 
REMARK   10  A    between atoms: S4_31  and  N8_34 
REMARK   11  A    between atoms: C13_36  and  O4_37 
REMARK   12  A    between atoms: C13_36  and  C14_39 
REMARK   13  A    between atoms: C15_42  and  C16_43 
REMARK   14  A    between atoms: C16_43  and  N9_44 
REMARK   15  A    between atoms: C16_43  and  C17_48 
REMARK       I    between atoms: C17_48  and  N10_50 
REMARK   16  A    between atoms: N10_50  and  N11_52 
ROOT
HETATM    1  N5  UNL     1      33.609  48.538  34.348  1.00  0.00    -0.306 N 
ATOM      2  H5  UNL     1      33.757  49.009  35.240  1.00  0.00     0.186 HD
HETATM    3  C5  UNL     1      33.813  47.273  34.327  1.00  0.00     0.004 C 
HETATM    4  C6  UNL     1      34.238  46.593  35.566  1.00  0.00     0.054 C 
HETATM    5  C7  UNL     1      33.826  45.128  35.350  1.00  0.00     0.011 C 
HETATM    6  C8  UNL     1      34.814  44.630  34.260  1.00  0.00     0.002 C 
HETATM    7  C15 UNL     1      34.475  45.293  32.957  1.00  0.00     0.035 C 
HETATM    8  C18 UNL     1      33.623  46.529  33.091  1.00  0.00     0.061 C 
ENDROOT
BRANCH   6   9
HETATM    9  C9  UNL     1      34.537  43.125  34.212  1.00  0.00     0.086 C 
BRANCH   9  10
HETATM   10  S2  UNL     1      32.933  42.653  34.819  1.00  0.00    -0.108 SA
BRANCH  10  11
HETATM   11  C10 UNL     1      31.808  42.125  33.488  1.00  0.00     0.117 A 
HETATM   12  N6  UNL     1      32.207  41.182  32.631  1.00  0.00    -0.304 N 
HETATM   13  S3  UNL     1      30.908  41.006  31.588  1.00  0.00     0.069 SA
ATOM     14  H6  UNL     1      33.097  40.685  32.616  1.00  0.00     0.176 HD
HETATM   15  N7  UNL     1      29.876  42.141  32.262  1.00  0.00    -0.300 N 
HETATM   16  C11 UNL     1      30.575  42.634  33.292  1.00  0.00     0.185 A 
ATOM     17  H7  UNL     1      28.937  42.397  31.959  1.00  0.00     0.176 HD
BRANCH  16  18
HETATM   18  S4  UNL     1      29.848  43.949  34.281  1.00  0.00     0.265 S 
HETATM   19  O2  UNL     1      30.937  45.017  34.430  1.00  0.00    -0.204 OA
HETATM   20  O3  UNL     1      29.616  43.434  35.650  1.00  0.00    -0.204 OA
BRANCH  18  21
HETATM   21  N8  UNL     1      28.531  44.617  33.526  1.00  0.00    -0.156 NA
HETATM   22  C12 UNL     1      27.169  44.240  33.711  1.00  0.00     0.179 A 
HETATM   23  C13 UNL     1      27.678  45.672  33.897  1.00  0.00     0.231 A 
BRANCH  23  24
HETATM   24  O4  UNL     1      27.332  46.607  32.862  1.00  0.00    -0.364 OA
ATOM     25  H4  UNL     1      27.422  47.528  33.079  1.00  0.00     0.212 HD
ENDBRANCH  23  24
BRANCH  23  26
HETATM   26  C14 UNL     1      27.451  46.217  35.220  1.00  0.00     0.228 C 
HETATM   27  O5  UNL     1      28.357  46.682  35.927  1.00  0.00    -0.645 OA
HETATM   28  O6  UNL     1      26.155  46.243  35.776  1.00  0.00    -0.645 OA
ENDBRANCH  23  26
ENDBRANCH  18  21
ENDBRANCH  16  18
ENDBRANCH  10  11
ENDBRANCH   9  10
ENDBRANCH   6   9
BRANCH   7  29
HETATM   29  C16 UNL     1      35.644  45.508  32.029  1.00  0.00     0.281 C 
BRANCH  29  30
HETATM   30  N9  UNL     1      35.812  44.444  31.081  1.00  0.00    -0.066 N 
ATOM     31  H93 UNL     1      34.917  44.013  30.855  1.00  0.00     0.275 HD
ATOM     32  H92 UNL     1      36.057  44.812  30.162  1.00  0.00     0.275 HD
ATOM     33  H91 UNL     1      36.488  43.743  31.383  1.00  0.00     0.275 HD
ENDBRANCH  29  30
BRANCH  29  34
HETATM   34  C17 UNL     1      36.915  45.676  32.781  1.00  0.00     0.266 C 
HETATM   35  O7  UNL     1      37.727  44.728  32.845  1.00  0.00    -0.269 OA
HETATM   36  N10 UNL     1      37.248  46.883  33.439  1.00  0.00    -0.275 N 
ATOM     37  H10 UNL     1      36.588  47.658  33.390  1.00  0.00     0.189 HD
BRANCH  36  38
HETATM   38  N11 UNL     1      38.430  47.069  34.152  1.00  0.00    -0.343 N 
ATOM     39 2H11 UNL     1      39.160  46.365  34.035  1.00  0.00     0.176 HD
ATOM     40 1H11 UNL     1      38.595  47.862  34.772  1.00  0.00     0.176 HD
ENDBRANCH  36  38
ENDBRANCH  29  34
ENDBRANCH   7  29
BRANCH   1  41
HETATM   41  N4  UNL     1      33.212  49.328  33.291  1.00  0.00    -0.270 N 
HETATM   42  C4  UNL     1      33.183  50.725  33.397  1.00  0.00     0.245 C 
HETATM   43  O1  UNL     1      33.523  51.288  34.469  1.00  0.00    -0.271 OA
ATOM     44  H4  UNL     1      32.934  48.888  32.414  1.00  0.00     0.190 HD
BRANCH  42  45
HETATM   45  C3  UNL     1      32.761  51.600  32.292  1.00  0.00     0.186 C 
BRANCH  45  46
HETATM   46  S1  UNL     1      32.618  50.713  30.714  1.00  0.00    -0.094 SA
BRANCH  46  47
HETATM   47  C2  UNL     1      30.927  50.092  30.529  1.00  0.00     0.130 A 
HETATM   48  N3  UNL     1      30.306  49.680  29.437  1.00  0.00    -0.286 N 
HETATM   49  N2  UNL     1      29.109  49.274  29.500  1.00  0.00    -0.279 N 
ATOM     50  H3  UNL     1      30.794  49.690  28.541  1.00  0.00     0.188 HD
HETATM   51  C1  UNL     1      28.489  49.268  30.683  1.00  0.00     0.159 A 
ATOM     52  H2  UNL     1      28.625  48.955  28.660  1.00  0.00     0.189 HD
HETATM   53  S5  UNL     1      29.707  49.878  31.715  1.00  0.00    -0.027 SA
BRANCH  51  54
HETATM   54  N1  UNL     1      27.262  48.889  30.957  1.00  0.00    -0.379 N 
ATOM     55  H12 UNL     1      26.911  48.303  31.714  1.00  0.00     0.158 HD
ATOM     56  H11 UNL     1      26.403  49.114  30.453  1.00  0.00     0.158 HD
ENDBRANCH  51  54
ENDBRANCH  46  47
ENDBRANCH  45  46
ENDBRANCH  42  45
ENDBRANCH   1  41
TORSDOF 16
ENDMDL
MODEL 3
REMARK VINA RESULT: -8.309067641      4.288      9.669
REMARK  16 active torsions:
REMARK  status: ('A' for Active; 'I' for Inactive)
REMARK    1  A    between atoms: N1_1  and  C1_4 
REMARK    2  A    between atoms: C2_9  and  S1_10 
REMARK    3  A    between atoms: S1_10  and  C3_11 
REMARK    4  A    between atoms: C3_11  and  C4_12 
REMARK       I    between atoms: C4_12  and  N4_14 
REMARK    5  A    between atoms: N4_14  and  N5_16 
REMARK    6  A    between atoms: C8_21  and  C9_22 
REMARK    7  A    between atoms: C9_22  and  S2_23 
REMARK    8  A    between atoms: S2_23  and  C10_24 
REMARK    9  A    between atoms: C11_30  and  S4_31 
REMARK   10  A    between atoms: S4_31  and  N8_34 
REMARK   11  A    between atoms: C13_36  and  O4_37 
REMARK   12  A    between atoms: C13_36  and  C14_39 
REMARK   13  A    between atoms: C15_42  and  C16_43 
REMARK   14  A    between atoms: C16_43  and  N9_44 
REMARK   15  A    between atoms: C16_43  and  C17_48 
REMARK       I    between atoms: C17_48  and  N10_50 
REMARK   16  A    between atoms: N10_50  and  N11_52 
ROOT
HETATM    1  N5  UNL     1      27.231  46.090  34.699  1.00  0.00    -0.306 N 
ATOM      2  H5  UNL     1      27.003  46.026  35.691  1.00  0.00     0.186 HD
HETATM    3  C5  UNL     1      28.189  46.879  34.381  1.00  0.00     0.004 C 
HETATM    4  C6  UNL     1      28.886  47.627  35.446  1.00  0.00     0.054 C 
HETATM    5  C7  UNL     1      30.253  47.968  34.831  1.00  0.00     0.011 C 
HETATM    6  C8  UNL     1      29.911  49.030  33.750  1.00  0.00     0.002 C 
HETATM    7  C15 UNL     1      29.170  48.363  32.629  1.00  0.00     0.035 C 
HETATM    8  C18 UNL     1      28.575  47.025  32.986  1.00  0.00     0.061 C 
ENDROOT
BRANCH   6   9
HETATM    9  C9  UNL     1      31.292  49.515  33.300  1.00  0.00     0.086 C 
BRANCH   9  10
HETATM   10  S2  UNL     1      32.631  49.000  34.352  1.00  0.00    -0.108 SA
BRANCH  10  11
HETATM   11  C10 UNL     1      33.982  48.202  33.427  1.00  0.00     0.117 A 
HETATM   12  N6  UNL     1      34.093  46.872  33.452  1.00  0.00    -0.304 N 
HETATM   13  S3  UNL     1      35.438  46.560  32.503  1.00  0.00     0.069 SA
ATOM     14  H6  UNL     1      33.498  46.202  33.937  1.00  0.00     0.176 HD
HETATM   15  N7  UNL     1      35.837  48.135  32.090  1.00  0.00    -0.300 N 
HETATM   16  C11 UNL     1      34.905  48.870  32.708  1.00  0.00     0.185 A 
ATOM     17  H7  UNL     1      36.609  48.457  31.506  1.00  0.00     0.176 HD
BRANCH  16  18
HETATM   18  S4  UNL     1      34.989  50.663  32.574  1.00  0.00     0.265 S 
HETATM   19  O2  UNL     1      36.472  51.026  32.692  1.00  0.00    -0.204 OA
HETATM   20  O3  UNL     1      34.346  51.254  33.770  1.00  0.00    -0.204 OA
BRANCH  18  21
HETATM   21  N8  UNL     1      34.415  51.188  31.109  1.00  0.00    -0.156 NA
HETATM   22  C12 UNL     1      33.347  50.610  30.363  1.00  0.00     0.179 A 
HETATM   23  C13 UNL     1      33.382  52.083  30.777  1.00  0.00     0.231 A 
BRANCH  23  24
HETATM   24  O4  UNL     1      33.668  53.029  29.734  1.00  0.00    -0.364 OA
ATOM     25  H4  UNL     1      34.240  53.751  29.965  1.00  0.00     0.212 HD
ENDBRANCH  23  24
BRANCH  23  26
HETATM   26  C14 UNL     1      32.260  52.498  31.595  1.00  0.00     0.228 C 
HETATM   27  O5  UNL     1      31.090  52.511  31.187  1.00  0.00    -0.645 OA
HETATM   28  O6  UNL     1      32.457  52.918  32.927  1.00  0.00    -0.645 OA
ENDBRANCH  23  26
ENDBRANCH  18  21
ENDBRANCH  16  18
ENDBRANCH  10  11
ENDBRANCH   9  10
ENDBRANCH   6   9
BRANCH   7  29
HETATM   29  C16 UNL     1      28.187  49.245  31.901  1.00  0.00     0.281 C 
BRANCH  29  30
HETATM   30  N9  UNL     1      26.994  48.552  31.508  1.00  0.00    -0.066 N 
ATOM     31  H93 UNL     1      26.450  49.108  30.849  1.00  0.00     0.275 HD
ATOM     32  H92 UNL     1      27.216  47.756  30.910  1.00  0.00     0.275 HD
ATOM     33  H91 UNL     1      26.420  48.262  32.300  1.00  0.00     0.275 HD
ENDBRANCH  29  30
BRANCH  29  34
HETATM   34  C17 UNL     1      28.795  49.860  30.692  1.00  0.00     0.266 C 
HETATM   35  O7  UNL     1      29.539  49.176  29.957  1.00  0.00    -0.269 OA
HETATM   36  N10 UNL     1      28.564  51.209  30.336  1.00  0.00    -0.275 N 
ATOM     37  H10 UNL     1      27.958  51.770  30.934  1.00  0.00     0.189 HD
BRANCH  36  38
HETATM   38  N11 UNL     1      29.120  51.813  29.211  1.00  0.00    -0.343 N 
ATOM     39 2H11 UNL     1      28.794  51.490  28.300  1.00  0.00     0.176 HD
ATOM     40 1H11 UNL     1      29.825  52.549  29.257  1.00  0.00     0.176 HD
ENDBRANCH  36  38
ENDBRANCH  29  34
ENDBRANCH   7  29
BRANCH   1  41
HETATM   41  N4  UNL     1      26.477  45.319  33.840  1.00  0.00    -0.270 N 
HETATM   42  C4  UNL     1      26.806  43.982  33.582  1.00  0.00     0.245 C 
HETATM   43  O1  UNL     1      27.806  43.455  34.135  1.00  0.00    -0.271 OA
ATOM     44  H4  UNL     1      25.662  45.730  33.385  1.00  0.00     0.190 HD
BRANCH  42  45
HETATM   45  C3  UNL     1      26.027  43.130  32.670  1.00  0.00     0.186 C 
BRANCH  45  46
HETATM   46  S1  UNL     1      27.021  41.798  31.939  1.00  0.00    -0.094 SA
BRANCH  46  47
HETATM   47  C2  UNL     1      27.195  40.454  33.141  1.00  0.00     0.130 A 
HETATM   48  N3  UNL     1      26.787  40.403  34.397  1.00  0.00    -0.286 N 
HETATM   49  N2  UNL     1      26.998  39.367  35.094  1.00  0.00    -0.279 N 
ATOM     50  H3  UNL     1      26.300  41.200  34.806  1.00  0.00     0.188 HD
HETATM   51  C1  UNL     1      27.637  38.334  34.538  1.00  0.00     0.159 A 
ATOM     52  H2  UNL     1      26.685  39.322  36.064  1.00  0.00     0.189 HD
HETATM   53  S5  UNL     1      27.927  38.914  32.957  1.00  0.00    -0.027 SA
BRANCH  51  54
HETATM   54  N1  UNL     1      27.951  37.182  35.085  1.00  0.00    -0.379 N 
ATOM     55  H12 UNL     1      27.946  36.244  34.685  1.00  0.00     0.158 HD
ATOM     56  H11 UNL     1      28.267  36.999  36.038  1.00  0.00     0.158 HD
ENDBRANCH  51  54
ENDBRANCH  46  47
ENDBRANCH  45  46
ENDBRANCH  42  45
ENDBRANCH   1  41
TORSDOF 16
ENDMDL
MODEL 4
REMARK VINA RESULT: -8.295380046      5.417     10.015
REMARK  16 active torsions:
REMARK  status: ('A' for Active; 'I' for Inactive)
REMARK    1  A    between atoms: N1_1  and  C1_4 
REMARK    2  A    between atoms: C2_9  and  S1_10 
REMARK    3  A    between atoms: S1_10  and  C3_11 
REMARK    4  A    between atoms: C3_11  and  C4_12 
REMARK       I    between atoms: C4_12  and  N4_14 
REMARK    5  A    between atoms: N4_14  and  N5_16 
REMARK    6  A    between atoms: C8_21  and  C9_22 
REMARK    7  A    between atoms: C9_22  and  S2_23 
REMARK    8  A    between atoms: S2_23  and  C10_24 
REMARK    9  A    between atoms: C11_30  and  S4_31 
REMARK   10  A    between atoms: S4_31  and  N8_34 
REMARK   11  A    between atoms: C13_36  and  O4_37 
REMARK   12  A    between atoms: C13_36  and  C14_39 
REMARK   13  A    between atoms: C15_42  and  C16_43 
REMARK   14  A    between atoms: C16_43  and  N9_44 
REMARK   15  A    between atoms: C16_43  and  C17_48 
REMARK       I    between atoms: C17_48  and  N10_50 
REMARK   16  A    between atoms: N10_50  and  N11_52 
ROOT
HETATM    1  N5  UNL     1      28.388  43.630  34.090  1.00  0.00    -0.306 N 
ATOM      2  H5  UNL     1      28.593  42.826  34.683  1.00  0.00     0.186 HD
HETATM    3  C5  UNL     1      29.114  44.670  34.264  1.00  0.00     0.004 C 
HETATM    4  C6  UNL     1      30.178  44.641  35.287  1.00  0.00     0.054 C 
HETATM    5  C7  UNL     1      31.160  45.735  34.839  1.00  0.00     0.011 C 
HETATM    6  C8  UNL     1      30.383  47.053  35.105  1.00  0.00     0.002 C 
HETATM    7  C15 UNL     1      29.254  47.159  34.122  1.00  0.00     0.035 C 
HETATM    8  C18 UNL     1      28.884  45.859  33.457  1.00  0.00     0.061 C 
ENDROOT
BRANCH   6   9
HETATM    9  C9  UNL     1      31.444  48.129  34.860  1.00  0.00     0.086 C 
BRANCH   9  10
HETATM   10  S2  UNL     1      31.908  48.329  33.154  1.00  0.00    -0.108 SA
BRANCH  10  11
HETATM   11  C10 UNL     1      33.634  47.841  32.836  1.00  0.00     0.117 A 
HETATM   12  N6  UNL     1      33.944  46.544  32.775  1.00  0.00    -0.304 N 
HETATM   13  S3  UNL     1      35.594  46.536  32.481  1.00  0.00     0.069 SA
ATOM     14  H6  UNL     1      33.322  45.744  32.882  1.00  0.00     0.176 HD
HETATM   15  N7  UNL     1      35.860  48.190  32.442  1.00  0.00    -0.300 N 
HETATM   16  C11 UNL     1      34.647  48.712  32.662  1.00  0.00     0.185 A 
ATOM     17  H7  UNL     1      36.740  48.683  32.289  1.00  0.00     0.176 HD
BRANCH  16  18
HETATM   18  S4  UNL     1      34.480  50.501  32.757  1.00  0.00     0.265 S 
HETATM   19  O2  UNL     1      35.876  51.039  33.083  1.00  0.00    -0.204 OA
HETATM   20  O3  UNL     1      33.648  50.833  33.937  1.00  0.00    -0.204 OA
BRANCH  18  21
HETATM   21  N8  UNL     1      33.974  51.139  31.312  1.00  0.00    -0.156 NA
HETATM   22  C12 UNL     1      32.962  50.609  30.461  1.00  0.00     0.179 A 
HETATM   23  C13 UNL     1      32.941  52.041  31.000  1.00  0.00     0.231 A 
BRANCH  23  24
HETATM   24  O4  UNL     1      33.261  53.078  30.059  1.00  0.00    -0.364 OA
ATOM     25  H4  UNL     1      33.286  52.825  29.144  1.00  0.00     0.212 HD
ENDBRANCH  23  24
BRANCH  23  26
HETATM   26  C14 UNL     1      31.768  52.365  31.786  1.00  0.00     0.228 C 
HETATM   27  O5  UNL     1      30.658  51.848  31.595  1.00  0.00    -0.645 OA
HETATM   28  O6  UNL     1      31.841  53.310  32.831  1.00  0.00    -0.645 OA
ENDBRANCH  23  26
ENDBRANCH  18  21
ENDBRANCH  16  18
ENDBRANCH  10  11
ENDBRANCH   9  10
ENDBRANCH   6   9
BRANCH   7  29
HETATM   29  C16 UNL     1      28.044  47.907  34.621  1.00  0.00     0.281 C 
BRANCH  29  30
HETATM   30  N9  UNL     1      26.901  47.061  34.815  1.00  0.00    -0.066 N 
ATOM     31  H93 UNL     1      26.044  47.611  34.859  1.00  0.00     0.275 HD
ATOM     32  H92 UNL     1      26.706  46.515  33.975  1.00  0.00     0.275 HD
ATOM     33  H91 UNL     1      26.986  46.454  35.630  1.00  0.00     0.275 HD
ENDBRANCH  29  30
BRANCH  29  34
HETATM   34  C17 UNL     1      27.663  49.009  33.698  1.00  0.00     0.266 C 
HETATM   35  O7  UNL     1      28.527  49.519  32.953  1.00  0.00    -0.269 OA
HETATM   36  N10 UNL     1      26.343  49.512  33.630  1.00  0.00    -0.275 N 
ATOM     37  H10 UNL     1      25.636  49.098  34.237  1.00  0.00     0.189 HD
BRANCH  36  38
HETATM   38  N11 UNL     1      25.957  50.543  32.777  1.00  0.00    -0.343 N 
ATOM     39 2H11 UNL     1      25.799  50.304  31.798  1.00  0.00     0.176 HD
ATOM     40 1H11 UNL     1      25.827  51.508  33.083  1.00  0.00     0.176 HD
ENDBRANCH  36  38
ENDBRANCH  29  34
ENDBRANCH   7  29
BRANCH   1  41
HETATM   41  N4  UNL     1      27.358  43.483  33.186  1.00  0.00    -0.270 N 
HETATM   42  C4  UNL     1      26.653  42.278  33.075  1.00  0.00     0.245 C 
HETATM   43  O1  UNL     1      26.949  41.298  33.807  1.00  0.00    -0.271 OA
ATOM     44  H4  UNL     1      27.104  44.267  32.586  1.00  0.00     0.190 HD
BRANCH  42  45
HETATM   45  C3  UNL     1      25.551  42.083  32.119  1.00  0.00     0.186 C 
BRANCH  45  46
HETATM   46  S1  UNL     1      26.137  41.831  30.420  1.00  0.00    -0.094 SA
BRANCH  46  47
HETATM   47  C2  UNL     1      25.046  40.654  29.580  1.00  0.00     0.130 A 
HETATM   48  N3  UNL     1      23.930  40.097  30.015  1.00  0.00    -0.286 N 
HETATM   49  N2  UNL     1      23.292  39.289  29.279  1.00  0.00    -0.279 N 
ATOM     50  H3  UNL     1      23.581  40.320  30.948  1.00  0.00     0.188 HD
HETATM   51  C1  UNL     1      23.765  39.011  28.061  1.00  0.00     0.159 A 
ATOM     52  H2  UNL     1      22.429  38.856  29.611  1.00  0.00     0.189 HD
HETATM   53  S5  UNL     1      25.181  39.968  28.013  1.00  0.00    -0.027 SA
BRANCH  51  54
HETATM   54  N1  UNL     1      23.258  38.208  27.154  1.00  0.00    -0.379 N 
ATOM     55  H12 UNL     1      23.175  38.329  26.145  1.00  0.00     0.158 HD
ATOM     56  H11 UNL     1      22.840  37.287  27.288  1.00  0.00     0.158 HD
ENDBRANCH  51  54
ENDBRANCH  46  47
ENDBRANCH  45  46
ENDBRANCH  42  45
ENDBRANCH   1  41
TORSDOF 16
ENDMDL
MODEL 5
REMARK VINA RESULT: -8.198521769      5.090      9.677
REMARK  16 active torsions:
REMARK  status: ('A' for Active; 'I' for Inactive)
REMARK    1  A    between atoms: N1_1  and  C1_4 
REMARK    2  A    between atoms: C2_9  and  S1_10 
REMARK    3  A    between atoms: S1_10  and  C3_11 
REMARK    4  A    between atoms: C3_11  and  C4_12 
REMARK       I    between atoms: C4_12  and  N4_14 
REMARK    5  A    between atoms: N4_14  and  N5_16 
REMARK    6  A    between atoms: C8_21  and  C9_22 
REMARK    7  A    between atoms: C9_22  and  S2_23 
REMARK    8  A    between atoms: S2_23  and  C10_24 
REMARK    9  A    between atoms: C11_30  and  S4_31 
REMARK   10  A    between atoms: S4_31  and  N8_34 
REMARK   11  A    between atoms: C13_36  and  O4_37 
REMARK   12  A    between atoms: C13_36  and  C14_39 
REMARK   13  A    between atoms: C15_42  and  C16_43 
REMARK   14  A    between atoms: C16_43  and  N9_44 
REMARK   15  A    between atoms: C16_43  and  C17_48 
REMARK       I    between atoms: C17_48  and  N10_50 
REMARK   16  A    between atoms: N10_50  and  N11_52 
ROOT
HETATM    1  N5  UNL     1      30.856  42.333  33.288  1.00  0.00    -0.306 N 
ATOM      2  H5  UNL     1      31.406  41.543  33.625  1.00  0.00     0.186 HD
HETATM    3  C5  UNL     1      31.115  43.475  33.808  1.00  0.00     0.004 C 
HETATM    4  C6  UNL     1      32.169  43.573  34.837  1.00  0.00     0.054 C 
HETATM    5  C7  UNL     1      32.598  45.048  34.795  1.00  0.00     0.011 C 
HETATM    6  C8  UNL     1      31.378  45.799  35.396  1.00  0.00     0.002 C 
HETATM    7  C15 UNL     1      30.237  45.730  34.424  1.00  0.00     0.035 C 
HETATM    8  C18 UNL     1      30.373  44.651  33.380  1.00  0.00     0.061 C 
ENDROOT
BRANCH   6   9
HETATM    9  C9  UNL     1      31.901  47.231  35.546  1.00  0.00     0.086 C 
BRANCH   9  10
HETATM   10  S2  UNL     1      31.639  48.263  34.122  1.00  0.00    -0.108 SA
BRANCH  10  11
HETATM   11  C10 UNL     1      33.184  48.630  33.229  1.00  0.00     0.117 A 
HETATM   12  N6  UNL     1      34.312  48.020  33.600  1.00  0.00    -0.304 N 
HETATM   13  S3  UNL     1      35.467  48.632  32.552  1.00  0.00     0.069 SA
ATOM     14  H6  UNL     1      34.441  47.339  34.348  1.00  0.00     0.176 HD
HETATM   15  N7  UNL     1      34.490  49.659  31.658  1.00  0.00    -0.300 N 
HETATM   16  C11 UNL     1      33.278  49.498  32.203  1.00  0.00     0.185 A 
ATOM     17  H7  UNL     1      34.756  50.265  30.882  1.00  0.00     0.176 HD
BRANCH  16  18
HETATM   18  S4  UNL     1      31.907  50.475  31.568  1.00  0.00     0.265 S 
HETATM   19  O2  UNL     1      32.505  51.399  30.502  1.00  0.00    -0.204 OA
HETATM   20  O3  UNL     1      31.434  51.375  32.644  1.00  0.00    -0.204 OA
BRANCH  18  21
HETATM   21  N8  UNL     1      30.751  49.513  30.867  1.00  0.00    -0.156 NA
HETATM   22  C12 UNL     1      29.469  49.205  31.406  1.00  0.00     0.179 A 
HETATM   23  C13 UNL     1      29.673  49.817  30.018  1.00  0.00     0.231 A 
BRANCH  23  24
HETATM   24  O4  UNL     1      29.472  48.938  28.900  1.00  0.00    -0.364 OA
ATOM     25  H4  UNL     1      28.699  49.096  28.372  1.00  0.00     0.212 HD
ENDBRANCH  23  24
BRANCH  23  26
HETATM   26  C14 UNL     1      29.015  51.095  29.829  1.00  0.00     0.228 C 
HETATM   27  O5  UNL     1      29.619  52.177  29.832  1.00  0.00    -0.645 OA
HETATM   28  O6  UNL     1      27.620  51.164  29.628  1.00  0.00    -0.645 OA
ENDBRANCH  23  26
ENDBRANCH  18  21
ENDBRANCH  16  18
ENDBRANCH  10  11
ENDBRANCH   9  10
ENDBRANCH   6   9
BRANCH   7  29
HETATM   29  C16 UNL     1      28.866  45.743  35.050  1.00  0.00     0.281 C 
BRANCH  29  30
HETATM   30  N9  UNL     1      27.935  44.880  34.383  1.00  0.00    -0.066 N 
ATOM     31  H93 UNL     1      27.969  45.018  33.373  1.00  0.00     0.275 HD
ATOM     32  H92 UNL     1      28.242  43.908  34.428  1.00  0.00     0.275 HD
ATOM     33  H91 UNL     1      26.980  44.975  34.730  1.00  0.00     0.275 HD
ENDBRANCH  29  30
BRANCH  29  34
HETATM   34  C17 UNL     1      28.294  47.115  35.086  1.00  0.00     0.266 C 
HETATM   35  O7  UNL     1      28.532  47.860  36.061  1.00  0.00    -0.269 OA
HETATM   36  N10 UNL     1      27.478  47.619  34.046  1.00  0.00    -0.275 N 
ATOM     37  H10 UNL     1      27.282  47.013  33.250  1.00  0.00     0.189 HD
BRANCH  36  38
HETATM   38  N11 UNL     1      26.928  48.898  34.052  1.00  0.00    -0.343 N 
ATOM     39 2H11 UNL     1      27.003  49.433  34.917  1.00  0.00     0.176 HD
ATOM     40 1H11 UNL     1      26.463  49.315  33.245  1.00  0.00     0.176 HD
ENDBRANCH  36  38
ENDBRANCH  29  34
ENDBRANCH   7  29
BRANCH   1  41
HETATM   41  N4  UNL     1      29.912  42.060  32.322  1.00  0.00    -0.270 N 
HETATM   42  C4  UNL     1      28.748  41.341  32.623  1.00  0.00     0.245 C 
HETATM   43  O1  UNL     1      28.542  40.927  33.794  1.00  0.00    -0.271 OA
ATOM     44  H4  UNL     1      30.063  42.389  31.369  1.00  0.00     0.190 HD
BRANCH  42  45
HETATM   45  C3  UNL     1      27.721  41.027  31.618  1.00  0.00     0.186 C 
BRANCH  45  46
HETATM   46  S1  UNL     1      26.210  42.011  31.834  1.00  0.00    -0.094 SA
BRANCH  46  47
HETATM   47  C2  UNL     1      24.809  41.122  31.110  1.00  0.00     0.130 A 
HETATM   48  N3  UNL     1      23.551  41.078  31.515  1.00  0.00    -0.286 N 
HETATM   49  N2  UNL     1      22.699  40.395  30.875  1.00  0.00    -0.279 N 
ATOM     50  H3  UNL     1      23.267  41.596  32.347  1.00  0.00     0.188 HD
HETATM   51  C1  UNL     1      23.092  39.725  29.788  1.00  0.00     0.159 A 
ATOM     52  H2  UNL     1      21.727  40.358  31.184  1.00  0.00     0.189 HD
HETATM   53  S5  UNL     1      24.754  40.117  29.721  1.00  0.00    -0.027 SA
BRANCH  51  54
HETATM   54  N1  UNL     1      22.370  38.967  28.995  1.00  0.00    -0.379 N 
ATOM     55  H12 UNL     1      22.503  37.995  28.717  1.00  0.00     0.158 HD
ATOM     56  H11 UNL     1      21.517  39.212  28.491  1.00  0.00     0.158 HD
ENDBRANCH  51  54
ENDBRANCH  46  47
ENDBRANCH  45  46
ENDBRANCH  42  45
ENDBRANCH   1  41
TORSDOF 16
ENDMDL
