MODEL 1
REMARK VINA RESULT: -9.884746650      0.000      0.000
REMARK  14 active torsions:
REMARK  status: ('A' for Active; 'I' for Inactive)
REMARK    1  A    between atoms: N1_2  and  S1_4 
REMARK    2  A    between atoms: S1_4  and  N2_7 
REMARK       I    between atoms: N2_7  and  C2_9 
REMARK       I    between atoms: C2_9  and  N3_11 
REMARK    3  A    between atoms: N3_11  and  N4_12 
REMARK    4  A    between atoms: C3_14  and  C4_15 
REMARK    5  A    between atoms: C3_14  and  C5_20 
REMARK    6  A    between atoms: C4_15  and  N5_16 
REMARK    7  A    between atoms: N6_22  and  C7_23 
REMARK    8  A    between atoms: C7_23  and  C8_24 
REMARK    9  A    between atoms: C9_27  and  N8_28 
REMARK   10  A    between atoms: C11_30  and  C12_31 
REMARK   11  A    between atoms: C12_31  and  N9_32 
REMARK   12  A    between atoms: N10_35  and  C15_36 
REMARK   13  A    between atoms: C16_39  and  O4_40 
REMARK   14  A    between atoms: C23_54  and  N15_55 
ROOT
HETATM    1  C8  UNL     1      27.656  48.560  34.124  1.00  0.00     0.133 A 
HETATM    2  N7  UNL     1      28.681  49.033  33.397  1.00  0.00    -0.177 N 
ATOM      3  H7  UNL     1      29.587  48.581  33.525  1.00  0.00     0.185 HD
HETATM    4  C9  UNL     1      28.622  50.046  32.519  1.00  0.00     0.705 A 
HETATM    5  N14 UNL     1      27.440  50.628  32.361  1.00  0.00    -0.022 N 
ATOM      6  H14 UNL     1      27.335  51.404  31.707  1.00  0.00     0.203 HD
HETATM    7  C23 UNL     1      26.355  50.181  33.082  1.00  0.00     0.691 A 
HETATM    8  N16 UNL     1      26.482  49.160  33.946  1.00  0.00    -0.178 N 
ATOM      9  H16 UNL     1      25.669  48.841  34.472  1.00  0.00     0.185 HD
ENDROOT
BRANCH   1  10
HETATM   10  C7  UNL     1      27.933  47.399  35.014  1.00  0.00     0.227 C 
BRANCH  10  11
HETATM   11  N6  UNL     1      27.058  46.315  34.707  1.00  0.00    -0.280 N 
HETATM   12  C6  UNL     1      27.452  45.204  34.036  1.00  0.00     0.145 A 
HETATM   13  C5  UNL     1      26.392  44.344  33.932  1.00  0.00     0.093 A 
HETATM   14  N18 UNL     1      25.352  44.965  34.560  1.00  0.00    -0.283 N 
HETATM   15  N17 UNL     1      25.783  46.130  35.004  1.00  0.00    -0.240 N 
ATOM     16  H18 UNL     1      24.408  44.593  34.667  1.00  0.00     0.188 HD
ATOM     17  H17 UNL     1      25.206  46.801  35.512  1.00  0.00     0.208 HD
BRANCH  13  18
HETATM   18  C3  UNL     1      26.330  43.097  33.188  1.00  0.00     0.093 C 
HETATM   19  N4  UNL     1      25.424  42.882  32.271  1.00  0.00    -0.231 N 
ATOM     20  H4  UNL     1      24.681  43.572  32.158  1.00  0.00     0.202 HD
BRANCH  19  21
HETATM   21  N3  UNL     1      25.414  41.802  31.464  1.00  0.00    -0.264 NA
HETATM   22  C2  UNL     1      25.406  40.723  30.661  1.00  0.00     0.427 C 
HETATM   23  N2  UNL     1      24.737  40.741  29.356  1.00  0.00    -0.205 N 
HETATM   24  O3  UNL     1      25.957  39.590  30.932  1.00  0.00    -0.227 OA
ATOM     25  H2  UNL     1      24.279  41.599  29.049  1.00  0.00     0.186 HD
BRANCH  23  26
HETATM   26  S1  UNL     1      24.700  39.394  28.345  1.00  0.00     0.323 S 
HETATM   27  O1  UNL     1      23.507  38.503  28.595  1.00  0.00    -0.182 OA
HETATM   28  O2  UNL     1      24.565  39.850  26.889  1.00  0.00    -0.182 OA
BRANCH  26  29
HETATM   29  N1  UNL     1      26.095  38.403  28.397  1.00  0.00    -0.307 N 
HETATM   30  C1  UNL     1      26.956  38.630  27.261  1.00  0.00     0.161 C 
ATOM     31  H1  UNL     1      26.293  37.733  29.141  1.00  0.00     0.173 HD
ENDBRANCH  26  29
ENDBRANCH  23  26
ENDBRANCH  19  21
BRANCH  18  32
HETATM   32  C4  UNL     1      27.407  42.111  33.366  1.00  0.00     0.291 C 
BRANCH  32  33
HETATM   33  N5  UNL     1      26.873  40.874  33.896  1.00  0.00    -0.074 N 
ATOM     34  H53 UNL     1      27.555  40.383  34.474  1.00  0.00     0.274 HD
ATOM     35  H52 UNL     1      26.163  41.041  34.608  1.00  0.00     0.274 HD
ATOM     36  H51 UNL     1      26.523  40.287  33.139  1.00  0.00     0.274 HD
ENDBRANCH  32  33
ENDBRANCH  18  32
ENDBRANCH  13  18
ENDBRANCH  10  11
ENDBRANCH   1  10
BRANCH   4  37
HETATM   37  N8  UNL     1      29.825  50.430  31.830  1.00  0.00    -0.145 N 
HETATM   38  C10 UNL     1      30.833  51.092  32.470  1.00  0.00     0.143 A 
HETATM   39  C11 UNL     1      31.864  51.377  31.585  1.00  0.00     0.055 A 
HETATM   40  N13 UNL     1      31.474  50.884  30.431  1.00  0.00    -0.346 N 
HETATM   41  C21 UNL     1      30.234  50.309  30.579  1.00  0.00     0.101 A 
ATOM     42  H13 UNL     1      32.007  50.922  29.562  1.00  0.00     0.167 HD
HETATM   43  C22 UNL     1      29.488  49.669  29.454  1.00  0.00     0.090 C 
BRANCH  39  44
HETATM   44  C12 UNL     1      33.084  52.113  32.012  1.00  0.00     0.332 C 
BRANCH  44  45
HETATM   45  N9  UNL     1      34.047  51.324  32.689  1.00  0.00     0.113 N 
HETATM   46  C13 UNL     1      35.037  50.672  31.891  1.00  0.00     0.294 C 
HETATM   47  C14 UNL     1      35.107  49.219  32.360  1.00  0.00     0.157 C 
HETATM   48  N10 UNL     1      34.067  49.096  33.329  1.00  0.00    -0.335 N 
HETATM   49  C20 UNL     1      33.538  50.417  33.662  1.00  0.00     0.399 C 
BRANCH  48  50
HETATM   50  C15 UNL     1      33.530  47.940  33.972  1.00  0.00     0.176 A 
HETATM   51  N11 UNL     1      34.100  47.482  35.083  1.00  0.00    -0.318 N 
HETATM   52  C16 UNL     1      33.638  46.386  35.751  1.00  0.00     0.157 A 
ATOM     53  H11 UNL     1      34.916  47.970  35.451  1.00  0.00     0.169 HD
HETATM   54  C17 UNL     1      32.526  45.758  35.207  1.00  0.00     0.149 A 
HETATM   55  N12 UNL     1      31.934  46.185  34.108  1.00  0.00    -0.322 N 
HETATM   56  C18 UNL     1      30.779  45.485  33.589  1.00  0.00     0.159 C 
HETATM   57  C19 UNL     1      32.422  47.284  33.464  1.00  0.00     0.291 A 
HETATM   58  O5  UNL     1      31.851  47.668  32.434  1.00  0.00    -0.264 OA
BRANCH  52  59
HETATM   59  O4  UNL     1      34.251  45.940  36.897  1.00  0.00    -0.345 OA
ATOM     60  H4  UNL     1      34.412  45.015  37.041  1.00  0.00     0.219 HD
ENDBRANCH  52  59
ENDBRANCH  48  50
ENDBRANCH  44  45
ENDBRANCH  39  44
ENDBRANCH   4  37
BRANCH   7  61
HETATM   61  N15 UNL     1      25.243  50.786  32.894  1.00  0.00    -0.234 N 
ATOM     62 2H15 UNL     1      24.972  51.610  33.430  1.00  0.00     0.174 HD
ATOM     63 1H15 UNL     1      24.629  50.413  32.170  1.00  0.00     0.174 HD
ENDBRANCH   7  61
TORSDOF 14
ENDMDL
MODEL 2
REMARK VINA RESULT: -9.880174070      3.832     12.686
REMARK  14 active torsions:
REMARK  status: ('A' for Active; 'I' for Inactive)
REMARK    1  A    between atoms: N1_2  and  S1_4 
REMARK    2  A    between atoms: S1_4  and  N2_7 
REMARK       I    between atoms: N2_7  and  C2_9 
REMARK       I    between atoms: C2_9  and  N3_11 
REMARK    3  A    between atoms: N3_11  and  N4_12 
REMARK    4  A    between atoms: C3_14  and  C4_15 
REMARK    5  A    between atoms: C3_14  and  C5_20 
REMARK    6  A    between atoms: C4_15  and  N5_16 
REMARK    7  A    between atoms: N6_22  and  C7_23 
REMARK    8  A    between atoms: C7_23  and  C8_24 
REMARK    9  A    between atoms: C9_27  and  N8_28 
REMARK   10  A    between atoms: C11_30  and  C12_31 
REMARK   11  A    between atoms: C12_31  and  N9_32 
REMARK   12  A    between atoms: N10_35  and  C15_36 
REMARK   13  A    between atoms: C16_39  and  O4_40 
REMARK   14  A    between atoms: C23_54  and  N15_55 
ROOT
HETATM    1  C8  UNL     1      26.474  41.906  33.411  1.00  0.00     0.133 A 
HETATM    2  N7  UNL     1      26.441  41.458  32.145  1.00  0.00    -0.177 N 
ATOM      3  H7  UNL     1      26.122  42.112  31.430  1.00  0.00     0.185 HD
HETATM    4  C9  UNL     1      26.791  40.229  31.736  1.00  0.00     0.705 A 
HETATM    5  N14 UNL     1      27.204  39.385  32.673  1.00  0.00    -0.022 N 
ATOM      6  H14 UNL     1      27.482  38.436  32.421  1.00  0.00     0.203 HD
HETATM    7  C23 UNL     1      27.257  39.794  33.988  1.00  0.00     0.691 A 
HETATM    8  N16 UNL     1      26.893  41.041  34.330  1.00  0.00    -0.178 N 
ATOM      9  H16 UNL     1      26.939  41.328  35.308  1.00  0.00     0.185 HD
ENDROOT
BRANCH   1  10
HETATM   10  C7  UNL     1      26.079  43.323  33.641  1.00  0.00     0.227 C 
BRANCH  10  11
HETATM   11  N6  UNL     1      27.221  44.175  33.581  1.00  0.00    -0.280 N 
HETATM   12  C6  UNL     1      27.144  45.529  33.601  1.00  0.00     0.145 A 
HETATM   13  C5  UNL     1      28.410  46.050  33.565  1.00  0.00     0.093 A 
HETATM   14  N18 UNL     1      29.249  44.975  33.526  1.00  0.00    -0.283 N 
HETATM   15  N17 UNL     1      28.510  43.883  33.535  1.00  0.00    -0.240 N 
ATOM     16  H18 UNL     1      30.268  45.010  33.495  1.00  0.00     0.188 HD
ATOM     17  H17 UNL     1      28.884  42.934  33.509  1.00  0.00     0.208 HD
BRANCH  13  18
HETATM   18  C3  UNL     1      28.792  47.447  33.444  1.00  0.00     0.093 C 
HETATM   19  N4  UNL     1      29.611  47.864  32.515  1.00  0.00    -0.231 N 
ATOM     20  H4  UNL     1      30.072  47.165  31.932  1.00  0.00     0.202 HD
BRANCH  19  21
HETATM   21  N3  UNL     1      29.883  49.163  32.282  1.00  0.00    -0.264 NA
HETATM   22  C2  UNL     1      30.153  50.461  32.050  1.00  0.00     0.427 C 
HETATM   23  N2  UNL     1      31.455  50.895  31.534  1.00  0.00    -0.205 N 
HETATM   24  O3  UNL     1      29.335  51.437  32.247  1.00  0.00    -0.227 OA
ATOM     25  H2  UNL     1      32.167  50.191  31.337  1.00  0.00     0.186 HD
BRANCH  23  26
HETATM   26  S1  UNL     1      31.817  52.517  31.255  1.00  0.00     0.323 S 
HETATM   27  O1  UNL     1      30.755  53.227  30.450  1.00  0.00    -0.182 OA
HETATM   28  O2  UNL     1      31.877  53.264  32.592  1.00  0.00    -0.182 OA
BRANCH  26  29
HETATM   29  N1  UNL     1      33.318  52.809  30.488  1.00  0.00    -0.307 N 
HETATM   30  C1  UNL     1      34.111  51.607  30.385  1.00  0.00     0.161 C 
ATOM     31  H1  UNL     1      33.617  53.723  30.146  1.00  0.00     0.173 HD
ENDBRANCH  26  29
ENDBRANCH  23  26
ENDBRANCH  19  21
BRANCH  18  32
HETATM   32  C4  UNL     1      28.122  48.442  34.297  1.00  0.00     0.291 C 
BRANCH  32  33
HETATM   33  N5  UNL     1      27.176  49.213  33.521  1.00  0.00    -0.074 N 
ATOM     34  H53 UNL     1      26.620  49.835  34.109  1.00  0.00     0.274 HD
ATOM     35  H52 UNL     1      27.639  49.920  32.949  1.00  0.00     0.274 HD
ATOM     36  H51 UNL     1      26.589  48.596  32.961  1.00  0.00     0.274 HD
ENDBRANCH  32  33
ENDBRANCH  18  32
ENDBRANCH  13  18
ENDBRANCH  10  11
ENDBRANCH   1  10
BRANCH   4  37
HETATM   37  N8  UNL     1      26.685  39.914  30.336  1.00  0.00    -0.145 N 
HETATM   38  C10 UNL     1      25.559  40.206  29.623  1.00  0.00     0.143 A 
HETATM   39  C11 UNL     1      25.692  39.776  28.309  1.00  0.00     0.055 A 
HETATM   40  N13 UNL     1      26.888  39.236  28.243  1.00  0.00    -0.346 N 
HETATM   41  C21 UNL     1      27.492  39.319  29.476  1.00  0.00     0.101 A 
ATOM     42  H13 UNL     1      27.303  38.821  27.409  1.00  0.00     0.167 HD
HETATM   43  C22 UNL     1      28.857  38.781  29.756  1.00  0.00     0.090 C 
BRANCH  39  44
HETATM   44  C12 UNL     1      24.602  39.950  27.312  1.00  0.00     0.332 C 
BRANCH  44  45
HETATM   45  N9  UNL     1      24.176  38.753  26.683  1.00  0.00     0.113 N 
HETATM   46  C13 UNL     1      23.651  37.724  27.523  1.00  0.00     0.294 C 
HETATM   47  C14 UNL     1      24.331  36.418  27.111  1.00  0.00     0.157 C 
HETATM   48  N10 UNL     1      25.293  36.799  26.129  1.00  0.00    -0.335 N 
HETATM   49  C20 UNL     1      25.079  38.190  25.737  1.00  0.00     0.399 C 
BRANCH  48  50
HETATM   50  C15 UNL     1      26.345  36.050  25.522  1.00  0.00     0.176 A 
HETATM   51  N11 UNL     1      26.055  34.959  24.818  1.00  0.00    -0.318 N 
HETATM   52  C16 UNL     1      27.008  34.198  24.209  1.00  0.00     0.157 A 
ATOM     53  H11 UNL     1      25.077  34.680  24.730  1.00  0.00     0.169 HD
HETATM   54  C17 UNL     1      28.322  34.622  24.359  1.00  0.00     0.149 A 
HETATM   55  N12 UNL     1      28.648  35.698  25.048  1.00  0.00    -0.322 N 
HETATM   56  C18 UNL     1      30.036  36.086  25.173  1.00  0.00     0.159 C 
HETATM   57  C19 UNL     1      27.669  36.437  25.647  1.00  0.00     0.291 A 
HETATM   58  O5  UNL     1      27.996  37.444  26.289  1.00  0.00    -0.264 OA
BRANCH  52  59
HETATM   59  O4  UNL     1      26.672  33.077  23.488  1.00  0.00    -0.345 OA
ATOM     60  H4  UNL     1      27.292  32.668  22.897  1.00  0.00     0.219 HD
ENDBRANCH  52  59
ENDBRANCH  48  50
ENDBRANCH  44  45
ENDBRANCH  39  44
ENDBRANCH   4  37
BRANCH   7  61
HETATM   61  N15 UNL     1      27.655  38.935  34.848  1.00  0.00    -0.234 N 
ATOM     62 2H15 UNL     1      27.234  38.010  34.933  1.00  0.00     0.174 HD
ATOM     63 1H15 UNL     1      28.430  39.209  35.453  1.00  0.00     0.174 HD
ENDBRANCH   7  61
TORSDOF 14
ENDMDL
MODEL 3
REMARK VINA RESULT: -9.829632913      2.741      4.669
REMARK  14 active torsions:
REMARK  status: ('A' for Active; 'I' for Inactive)
REMARK    1  A    between atoms: N1_2  and  S1_4 
REMARK    2  A    between atoms: S1_4  and  N2_7 
REMARK       I    between atoms: N2_7  and  C2_9 
REMARK       I    between atoms: C2_9  and  N3_11 
REMARK    3  A    between atoms: N3_11  and  N4_12 
REMARK    4  A    between atoms: C3_14  and  C4_15 
REMARK    5  A    between atoms: C3_14  and  C5_20 
REMARK    6  A    between atoms: C4_15  and  N5_16 
REMARK    7  A    between atoms: N6_22  and  C7_23 
REMARK    8  A    between atoms: C7_23  and  C8_24 
REMARK    9  A    between atoms: C9_27  and  N8_28 
REMARK   10  A    between atoms: C11_30  and  C12_31 
REMARK   11  A    between atoms: C12_31  and  N9_32 
REMARK   12  A    between atoms: N10_35  and  C15_36 
REMARK   13  A    between atoms: C16_39  and  O4_40 
REMARK   14  A    between atoms: C23_54  and  N15_55 
ROOT
HETATM    1  C8  UNL     1      27.837  47.827  34.241  1.00  0.00     0.133 A 
HETATM    2  N7  UNL     1      28.943  48.050  33.514  1.00  0.00    -0.177 N 
ATOM      3  H7  UNL     1      29.718  47.399  33.637  1.00  0.00     0.185 HD
HETATM    4  C9  UNL     1      29.121  49.053  32.639  1.00  0.00     0.705 A 
HETATM    5  N14 UNL     1      28.108  49.896  32.487  1.00  0.00    -0.022 N 
ATOM      6  H14 UNL     1      28.186  50.679  31.837  1.00  0.00     0.203 HD
HETATM    7  C23 UNL     1      26.949  49.713  33.209  1.00  0.00     0.691 A 
HETATM    8  N16 UNL     1      26.836  48.686  34.069  1.00  0.00    -0.178 N 
ATOM      9  H16 UNL     1      25.971  48.564  34.596  1.00  0.00     0.185 HD
ENDROOT
BRANCH   1  10
HETATM   10  C7  UNL     1      27.836  46.629  35.126  1.00  0.00     0.227 C 
BRANCH  10  11
HETATM   11  N6  UNL     1      26.917  45.653  34.641  1.00  0.00    -0.280 N 
HETATM   12  C6  UNL     1      27.296  44.545  33.957  1.00  0.00     0.145 A 
HETATM   13  C5  UNL     1      26.187  43.797  33.664  1.00  0.00     0.093 A 
HETATM   14  N18 UNL     1      25.131  44.482  34.193  1.00  0.00    -0.283 N 
HETATM   15  N17 UNL     1      25.601  45.576  34.761  1.00  0.00    -0.240 N 
ATOM     16  H18 UNL     1      24.152  44.199  34.155  1.00  0.00     0.188 HD
ATOM     17  H17 UNL     1      25.025  46.273  35.233  1.00  0.00     0.208 HD
BRANCH  13  18
HETATM   18  C3  UNL     1      26.113  42.602  32.840  1.00  0.00     0.093 C 
HETATM   19  N4  UNL     1      25.153  42.417  31.973  1.00  0.00    -0.231 N 
ATOM     20  H4  UNL     1      24.383  43.085  31.958  1.00  0.00     0.202 HD
BRANCH  19  21
HETATM   21  N3  UNL     1      25.122  41.394  31.095  1.00  0.00    -0.264 NA
HETATM   22  C2  UNL     1      25.090  40.372  30.221  1.00  0.00     0.427 C 
HETATM   23  N2  UNL     1      26.029  40.291  29.097  1.00  0.00    -0.205 N 
HETATM   24  O3  UNL     1      24.262  39.385  30.262  1.00  0.00    -0.227 OA
ATOM     25  H2  UNL     1      26.730  41.025  28.987  1.00  0.00     0.186 HD
BRANCH  23  26
HETATM   26  S1  UNL     1      25.991  39.029  27.982  1.00  0.00     0.323 S 
HETATM   27  O1  UNL     1      26.624  39.391  26.660  1.00  0.00    -0.182 OA
HETATM   28  O2  UNL     1      26.812  37.851  28.515  1.00  0.00    -0.182 OA
BRANCH  26  29
HETATM   29  N1  UNL     1      24.435  38.400  27.645  1.00  0.00    -0.307 N 
HETATM   30  C1  UNL     1      23.816  39.071  26.527  1.00  0.00     0.161 C 
ATOM     31  H1  UNL     1      23.999  37.642  28.171  1.00  0.00     0.173 HD
ENDBRANCH  26  29
ENDBRANCH  23  26
ENDBRANCH  19  21
BRANCH  18  32
HETATM   32  C4  UNL     1      27.230  41.646  32.877  1.00  0.00     0.291 C 
BRANCH  32  33
HETATM   33  N5  UNL     1      26.818  40.416  33.519  1.00  0.00    -0.074 N 
ATOM     34  H53 UNL     1      26.008  40.555  34.122  1.00  0.00     0.274 HD
ATOM     35  H52 UNL     1      26.402  39.762  32.855  1.00  0.00     0.274 HD
ATOM     36  H51 UNL     1      27.600  40.000  34.023  1.00  0.00     0.274 HD
ENDBRANCH  32  33
ENDBRANCH  18  32
ENDBRANCH  13  18
ENDBRANCH  10  11
ENDBRANCH   1  10
BRANCH   4  37
HETATM   37  N8  UNL     1      30.379  49.148  31.949  1.00  0.00    -0.145 N 
HETATM   38  C10 UNL     1      31.546  48.751  32.535  1.00  0.00     0.143 A 
HETATM   39  C11 UNL     1      32.618  48.973  31.681  1.00  0.00     0.055 A 
HETATM   40  N13 UNL     1      32.092  49.494  30.595  1.00  0.00    -0.346 N 
HETATM   41  C21 UNL     1      30.730  49.601  30.758  1.00  0.00     0.101 A 
ATOM     42  H13 UNL     1      32.611  49.774  29.763  1.00  0.00     0.167 HD
HETATM   43  C22 UNL     1      29.824  50.174  29.718  1.00  0.00     0.090 C 
BRANCH  39  44
HETATM   44  C12 UNL     1      34.016  48.649  32.074  1.00  0.00     0.332 C 
BRANCH  44  45
HETATM   45  N9  UNL     1      34.832  49.774  32.350  1.00  0.00     0.113 N 
HETATM   46  C13 UNL     1      34.270  50.805  33.165  1.00  0.00     0.294 C 
HETATM   47  C14 UNL     1      34.550  52.134  32.464  1.00  0.00     0.157 C 
HETATM   48  N10 UNL     1      35.161  51.776  31.226  1.00  0.00    -0.335 N 
HETATM   49  C20 UNL     1      35.496  50.353  31.231  1.00  0.00     0.399 C 
BRANCH  48  50
HETATM   50  C15 UNL     1      35.473  52.568  30.081  1.00  0.00     0.176 A 
HETATM   51  N11 UNL     1      34.509  53.253  29.473  1.00  0.00    -0.318 N 
HETATM   52  C16 UNL     1      34.735  54.032  28.377  1.00  0.00     0.157 A 
ATOM     53  H11 UNL     1      33.559  53.194  29.843  1.00  0.00     0.169 HD
HETATM   54  C17 UNL     1      36.044  54.078  27.915  1.00  0.00     0.149 A 
HETATM   55  N12 UNL     1      37.026  53.413  28.492  1.00  0.00    -0.322 N 
HETATM   56  C18 UNL     1      38.369  53.498  27.961  1.00  0.00     0.159 C 
HETATM   57  C19 UNL     1      36.765  52.642  29.587  1.00  0.00     0.291 A 
HETATM   58  O5  UNL     1      37.701  52.026  30.114  1.00  0.00    -0.264 OA
BRANCH  52  59
HETATM   59  O4  UNL     1      33.715  54.728  27.774  1.00  0.00    -0.345 OA
ATOM     60  H4  UNL     1      33.886  55.341  27.069  1.00  0.00     0.219 HD
ENDBRANCH  52  59
ENDBRANCH  48  50
ENDBRANCH  44  45
ENDBRANCH  39  44
ENDBRANCH   4  37
BRANCH   7  61
HETATM   61  N15 UNL     1      26.010  50.562  33.027  1.00  0.00    -0.234 N 
ATOM     62 2H15 UNL     1      26.115  51.371  32.415  1.00  0.00     0.174 HD
ATOM     63 1H15 UNL     1      25.132  50.394  33.518  1.00  0.00     0.174 HD
ENDBRANCH   7  61
TORSDOF 14
ENDMDL
MODEL 4
REMARK VINA RESULT: -9.704956756      3.338      5.345
REMARK  14 active torsions:
REMARK  status: ('A' for Active; 'I' for Inactive)
REMARK    1  A    between atoms: N1_2  and  S1_4 
REMARK    2  A    between atoms: S1_4  and  N2_7 
REMARK       I    between atoms: N2_7  and  C2_9 
REMARK       I    between atoms: C2_9  and  N3_11 
REMARK    3  A    between atoms: N3_11  and  N4_12 
REMARK    4  A    between atoms: C3_14  and  C4_15 
REMARK    5  A    between atoms: C3_14  and  C5_20 
REMARK    6  A    between atoms: C4_15  and  N5_16 
REMARK    7  A    between atoms: N6_22  and  C7_23 
REMARK    8  A    between atoms: C7_23  and  C8_24 
REMARK    9  A    between atoms: C9_27  and  N8_28 
REMARK   10  A    between atoms: C11_30  and  C12_31 
REMARK   11  A    between atoms: C12_31  and  N9_32 
REMARK   12  A    between atoms: N10_35  and  C15_36 
REMARK   13  A    between atoms: C16_39  and  O4_40 
REMARK   14  A    between atoms: C23_54  and  N15_55 
ROOT
HETATM    1  C8  UNL     1      28.386  47.676  33.916  1.00  0.00     0.133 A 
HETATM    2  N7  UNL     1      29.709  47.903  33.954  1.00  0.00    -0.177 N 
ATOM      3  H7  UNL     1      30.207  47.600  34.791  1.00  0.00     0.185 HD
HETATM    4  C9  UNL     1      30.435  48.492  32.991  1.00  0.00     0.705 A 
HETATM    5  N14 UNL     1      29.778  48.884  31.907  1.00  0.00    -0.022 N 
ATOM      6  H14 UNL     1      30.278  49.339  31.143  1.00  0.00     0.203 HD
HETATM    7  C23 UNL     1      28.420  48.675  31.816  1.00  0.00     0.691 A 
HETATM    8  N16 UNL     1      27.752  48.078  32.817  1.00  0.00    -0.178 N 
ATOM      9  H16 UNL     1      26.746  47.930  32.734  1.00  0.00     0.185 HD
ENDROOT
BRANCH   1  10
HETATM   10  C7  UNL     1      27.783  46.970  35.080  1.00  0.00     0.227 C 
BRANCH  10  11
HETATM   11  N6  UNL     1      26.956  45.896  34.638  1.00  0.00    -0.280 N 
HETATM   12  C6  UNL     1      27.439  44.773  34.051  1.00  0.00     0.145 A 
HETATM   13  C5  UNL     1      26.398  43.927  33.777  1.00  0.00     0.093 A 
HETATM   14  N18 UNL     1      25.277  44.568  34.218  1.00  0.00    -0.283 N 
HETATM   15  N17 UNL     1      25.646  45.731  34.719  1.00  0.00    -0.240 N 
ATOM     16  H18 UNL     1      24.323  44.211  34.168  1.00  0.00     0.188 HD
ATOM     17  H17 UNL     1      25.003  46.415  35.118  1.00  0.00     0.208 HD
BRANCH  13  18
HETATM   18  C3  UNL     1      26.442  42.674  33.041  1.00  0.00     0.093 C 
HETATM   19  N4  UNL     1      25.690  42.459  31.994  1.00  0.00    -0.231 N 
ATOM     20  H4  UNL     1      24.981  43.154  31.760  1.00  0.00     0.202 HD
BRANCH  19  21
HETATM   21  N3  UNL     1      25.797  41.372  31.204  1.00  0.00    -0.264 NA
HETATM   22  C2  UNL     1      25.905  40.285  30.418  1.00  0.00     0.427 C 
HETATM   23  N2  UNL     1      25.685  40.360  28.970  1.00  0.00    -0.205 N 
HETATM   24  O3  UNL     1      26.198  39.099  30.825  1.00  0.00    -0.227 OA
ATOM     25  H2  UNL     1      25.456  41.262  28.551  1.00  0.00     0.186 HD
BRANCH  23  26
HETATM   26  S1  UNL     1      25.796  39.007  27.973  1.00  0.00     0.323 S 
HETATM   27  O1  UNL     1      24.486  38.270  27.830  1.00  0.00    -0.182 OA
HETATM   28  O2  UNL     1      26.168  39.447  26.553  1.00  0.00    -0.182 OA
BRANCH  26  29
HETATM   29  N1  UNL     1      26.978  37.857  28.430  1.00  0.00    -0.307 N 
HETATM   30  C1  UNL     1      27.164  36.846  27.417  1.00  0.00     0.161 C 
ATOM     31  H1  UNL     1      27.490  37.884  29.313  1.00  0.00     0.173 HD
ENDBRANCH  26  29
ENDBRANCH  23  26
ENDBRANCH  19  21
BRANCH  18  32
HETATM   32  C4  UNL     1      27.467  41.680  33.395  1.00  0.00     0.291 C 
BRANCH  32  33
HETATM   33  N5  UNL     1      26.844  40.445  33.820  1.00  0.00    -0.074 N 
ATOM     34  H53 UNL     1      27.100  40.201  34.776  1.00  0.00     0.274 HD
ATOM     35  H52 UNL     1      25.839  40.553  33.954  1.00  0.00     0.274 HD
ATOM     36  H51 UNL     1      27.062  39.695  33.164  1.00  0.00     0.274 HD
ENDBRANCH  32  33
ENDBRANCH  18  32
ENDBRANCH  13  18
ENDBRANCH  10  11
ENDBRANCH   1  10
BRANCH   4  37
HETATM   37  N8  UNL     1      31.847  48.664  33.203  1.00  0.00    -0.145 N 
HETATM   38  C10 UNL     1      32.482  49.825  32.871  1.00  0.00     0.143 A 
HETATM   39  C11 UNL     1      33.841  49.730  33.141  1.00  0.00     0.055 A 
HETATM   40  N13 UNL     1      34.011  48.524  33.633  1.00  0.00    -0.346 N 
HETATM   41  C21 UNL     1      32.799  47.874  33.670  1.00  0.00     0.101 A 
ATOM     42  H13 UNL     1      34.901  48.131  33.939  1.00  0.00     0.167 HD
HETATM   43  C22 UNL     1      32.636  46.472  34.158  1.00  0.00     0.090 C 
BRANCH  39  44
HETATM   44  C12 UNL     1      34.779  50.849  32.856  1.00  0.00     0.332 C 
BRANCH  44  45
HETATM   45  N9  UNL     1      35.250  50.904  31.521  1.00  0.00     0.113 N 
HETATM   46  C13 UNL     1      36.515  50.299  31.249  1.00  0.00     0.294 C 
HETATM   47  C14 UNL     1      37.326  51.303  30.429  1.00  0.00     0.157 C 
HETATM   48  N10 UNL     1      36.515  52.475  30.376  1.00  0.00    -0.335 N 
HETATM   49  C20 UNL     1      35.178  52.177  30.885  1.00  0.00     0.399 C 
BRANCH  48  50
HETATM   50  C15 UNL     1      36.815  53.791  29.915  1.00  0.00     0.176 A 
HETATM   51  N11 UNL     1      37.328  54.682  30.758  1.00  0.00    -0.318 N 
HETATM   52  C16 UNL     1      37.641  55.956  30.385  1.00  0.00     0.157 A 
ATOM     53  H11 UNL     1      37.496  54.401  31.725  1.00  0.00     0.169 HD
HETATM   54  C17 UNL     1      37.394  56.287  29.060  1.00  0.00     0.149 A 
HETATM   55  N12 UNL     1      36.887  55.430  28.195  1.00  0.00    -0.322 N 
HETATM   56  C18 UNL     1      36.648  55.837  26.827  1.00  0.00     0.159 C 
HETATM   57  C19 UNL     1      36.584  54.164  28.601  1.00  0.00     0.291 A 
HETATM   58  O5  UNL     1      36.109  53.374  27.773  1.00  0.00    -0.264 OA
BRANCH  52  59
HETATM   59  O4  UNL     1      38.172  56.851  31.283  1.00  0.00    -0.345 OA
ATOM     60  H4  UNL     1      38.545  57.676  30.994  1.00  0.00     0.219 HD
ENDBRANCH  52  59
ENDBRANCH  48  50
ENDBRANCH  44  45
ENDBRANCH  39  44
ENDBRANCH   4  37
BRANCH   7  61
HETATM   61  N15 UNL     1      27.839  49.081  30.751  1.00  0.00    -0.234 N 
ATOM     62 2H15 UNL     1      28.349  49.515  29.981  1.00  0.00     0.174 HD
ATOM     63 1H15 UNL     1      26.830  48.946  30.693  1.00  0.00     0.174 HD
ENDBRANCH   7  61
TORSDOF 14
ENDMDL
MODEL 5
REMARK VINA RESULT: -9.529270459      3.224      7.060
REMARK  14 active torsions:
REMARK  status: ('A' for Active; 'I' for Inactive)
REMARK    1  A    between atoms: N1_2  and  S1_4 
REMARK    2  A    between atoms: S1_4  and  N2_7 
REMARK       I    between atoms: N2_7  and  C2_9 
REMARK       I    between atoms: C2_9  and  N3_11 
REMARK    3  A    between atoms: N3_11  and  N4_12 
REMARK    4  A    between atoms: C3_14  and  C4_15 
REMARK    5  A    between atoms: C3_14  and  C5_20 
REMARK    6  A    between atoms: C4_15  and  N5_16 
REMARK    7  A    between atoms: N6_22  and  C7_23 
REMARK    8  A    between atoms: C7_23  and  C8_24 
REMARK    9  A    between atoms: C9_27  and  N8_28 
REMARK   10  A    between atoms: C11_30  and  C12_31 
REMARK   11  A    between atoms: C12_31  and  N9_32 
REMARK   12  A    between atoms: N10_35  and  C15_36 
REMARK   13  A    between atoms: C16_39  and  O4_40 
REMARK   14  A    between atoms: C23_54  and  N15_55 
ROOT
HETATM    1  C8  UNL     1      26.579  41.750  32.284  1.00  0.00     0.133 A 
HETATM    2  N7  UNL     1      27.527  42.601  32.708  1.00  0.00    -0.177 N 
ATOM      3  H7  UNL     1      27.632  43.474  32.190  1.00  0.00     0.185 HD
HETATM    4  C9  UNL     1      28.350  42.407  33.750  1.00  0.00     0.705 A 
HETATM    5  N14 UNL     1      28.208  41.268  34.416  1.00  0.00    -0.022 N 
ATOM      6  H14 UNL     1      28.807  41.065  35.217  1.00  0.00     0.203 HD
HETATM    7  C23 UNL     1      27.250  40.360  34.023  1.00  0.00     0.691 A 
HETATM    8  N16 UNL     1      26.457  40.616  32.970  1.00  0.00    -0.178 N 
ATOM      9  H16 UNL     1      25.752  39.933  32.692  1.00  0.00     0.185 HD
ENDROOT
BRANCH   1  10
HETATM   10  C7  UNL     1      25.748  42.181  31.126  1.00  0.00     0.227 C 
BRANCH  10  11
HETATM   11  N6  UNL     1      25.217  41.047  30.444  1.00  0.00    -0.280 N 
HETATM   12  C6  UNL     1      25.848  40.434  29.412  1.00  0.00     0.145 A 
HETATM   13  C5  UNL     1      25.100  39.364  29.000  1.00  0.00     0.093 A 
HETATM   14  N18 UNL     1      24.004  39.348  29.814  1.00  0.00    -0.283 N 
HETATM   15  N17 UNL     1      24.107  40.359  30.654  1.00  0.00    -0.240 N 
ATOM     16  H18 UNL     1      23.240  38.673  29.778  1.00  0.00     0.188 HD
ATOM     17  H17 UNL     1      23.419  40.583  31.373  1.00  0.00     0.208 HD
BRANCH  13  18
HETATM   18  C3  UNL     1      25.333  38.506  27.851  1.00  0.00     0.093 C 
HETATM   19  N4  UNL     1      26.524  38.060  27.549  1.00  0.00    -0.231 N 
ATOM     20  H4  UNL     1      27.319  38.416  28.080  1.00  0.00     0.202 HD
BRANCH  19  21
HETATM   21  N3  UNL     1      26.763  37.156  26.578  1.00  0.00    -0.264 NA
HETATM   22  C2  UNL     1      27.000  36.254  25.608  1.00  0.00     0.427 C 
HETATM   23  N2  UNL     1      28.220  35.440  25.597  1.00  0.00    -0.205 N 
HETATM   24  O3  UNL     1      26.218  36.011  24.613  1.00  0.00    -0.227 OA
ATOM     25  H2  UNL     1      28.897  35.555  26.351  1.00  0.00     0.186 HD
BRANCH  23  26
HETATM   26  S1  UNL     1      28.541  34.320  24.380  1.00  0.00     0.323 S 
HETATM   27  O1  UNL     1      29.306  34.912  23.221  1.00  0.00    -0.182 OA
HETATM   28  O2  UNL     1      29.441  33.210  24.932  1.00  0.00    -0.182 OA
BRANCH  26  29
HETATM   29  N1  UNL     1      27.168  33.530  23.733  1.00  0.00    -0.307 N 
HETATM   30  C1  UNL     1      27.501  32.232  23.195  1.00  0.00     0.161 C 
ATOM     31  H1  UNL     1      26.228  33.927  23.728  1.00  0.00     0.173 HD
ENDBRANCH  26  29
ENDBRANCH  23  26
ENDBRANCH  19  21
BRANCH  18  32
HETATM   32  C4  UNL     1      24.176  38.006  27.093  1.00  0.00     0.291 C 
BRANCH  32  33
HETATM   33  N5  UNL     1      24.240  38.459  25.720  1.00  0.00    -0.074 N 
ATOM     34  H53 UNL     1      25.086  38.997  25.537  1.00  0.00     0.274 HD
ATOM     35  H52 UNL     1      24.407  37.688  25.073  1.00  0.00     0.274 HD
ATOM     36  H51 UNL     1      23.397  38.980  25.479  1.00  0.00     0.274 HD
ENDBRANCH  32  33
ENDBRANCH  18  32
ENDBRANCH  13  18
ENDBRANCH  10  11
ENDBRANCH   1  10
BRANCH   4  37
HETATM   37  N8  UNL     1      29.319  43.424  34.060  1.00  0.00    -0.145 N 
HETATM   38  C10 UNL     1      30.659  43.176  33.997  1.00  0.00     0.143 A 
HETATM   39  C11 UNL     1      31.380  44.302  34.373  1.00  0.00     0.055 A 
HETATM   40  N13 UNL     1      30.475  45.213  34.652  1.00  0.00    -0.346 N 
HETATM   41  C21 UNL     1      29.221  44.679  34.463  1.00  0.00     0.101 A 
ATOM     42  H13 UNL     1      30.671  46.165  34.960  1.00  0.00     0.167 HD
HETATM   43  C22 UNL     1      27.961  45.442  34.711  1.00  0.00     0.090 C 
BRANCH  39  44
HETATM   44  C12 UNL     1      32.867  44.305  34.414  1.00  0.00     0.332 C 
BRANCH  44  45
HETATM   45  N9  UNL     1      33.462  45.584  34.275  1.00  0.00     0.113 N 
HETATM   46  C13 UNL     1      33.345  46.483  35.380  1.00  0.00     0.294 C 
HETATM   47  C14 UNL     1      32.893  47.830  34.816  1.00  0.00     0.157 C 
HETATM   48  N10 UNL     1      32.667  47.591  33.428  1.00  0.00    -0.335 N 
HETATM   49  C20 UNL     1      33.182  46.274  33.061  1.00  0.00     0.399 C 
BRANCH  48  50
HETATM   50  C15 UNL     1      32.061  48.413  32.431  1.00  0.00     0.176 A 
HETATM   51  N11 UNL     1      32.826  49.183  31.661  1.00  0.00    -0.318 N 
HETATM   52  C16 UNL     1      32.316  49.990  30.687  1.00  0.00     0.157 A 
ATOM     53  H11 UNL     1      33.836  49.168  31.804  1.00  0.00     0.169 HD
HETATM   54  C17 UNL     1      30.936  49.973  30.535  1.00  0.00     0.149 A 
HETATM   55  N12 UNL     1      30.147  49.222  31.279  1.00  0.00    -0.322 N 
HETATM   56  C18 UNL     1      28.715  49.252  31.074  1.00  0.00     0.159 C 
HETATM   57  C19 UNL     1      30.689  48.427  32.245  1.00  0.00     0.291 A 
HETATM   58  O5  UNL     1      29.931  47.729  32.933  1.00  0.00    -0.264 OA
BRANCH  52  59
HETATM   59  O4  UNL     1      33.135  50.772  29.909  1.00  0.00    -0.345 OA
ATOM     60  H4  UNL     1      32.822  51.162  29.101  1.00  0.00     0.219 HD
ENDBRANCH  52  59
ENDBRANCH  48  50
ENDBRANCH  44  45
ENDBRANCH  39  44
ENDBRANCH   4  37
BRANCH   7  61
HETATM   61  N15 UNL     1      27.165  39.276  34.698  1.00  0.00    -0.234 N 
ATOM     62 2H15 UNL     1      27.987  38.747  34.989  1.00  0.00     0.174 HD
ATOM     63 1H15 UNL     1      26.228  38.957  34.946  1.00  0.00     0.174 HD
ENDBRANCH   7  61
TORSDOF 14
ENDMDL
