MODEL 1
REMARK VINA RESULT: -7.183149640      0.000      0.000
REMARK  4 active torsions:
REMARK  status: ('A' for Active; 'I' for Inactive)
REMARK    1  A    between atoms: C1_1  and  C2_2 
REMARK    2  A    between atoms: C2_2  and  C3_3 
REMARK    3  A    between atoms: C3_3  and  C4_4 
REMARK    4  A    between atoms: N2_12  and  N3_14 
ROOT
HETATM    1  C1  UNL     1       6.762   8.901  -2.552  1.00  0.00     0.080 C 
HETATM    2  N2  UNL     1       6.982   8.362  -1.391  1.00  0.00    -0.313 N 
ATOM      3  H2  UNL     1       7.448   7.457  -1.317  1.00  0.00     0.185 HD
ENDROOT
BRANCH   1   4
HETATM    4  C2  UNL     1       6.096  10.196  -2.643  1.00  0.00     0.048 C 
BRANCH   4   5
HETATM    5  C3  UNL     1       5.604  10.626  -3.980  1.00  0.00     0.038 C 
BRANCH   5   6
HETATM    6  C4  UNL     1       4.340   9.976  -4.365  1.00  0.00     0.186 C 
HETATM    7  C5  UNL     1       3.284   9.991  -3.322  1.00  0.00     0.033 C 
HETATM    8  C6  UNL     1       1.894   9.976  -4.009  1.00  0.00     0.004 C 
HETATM    9  C7  UNL     1       1.953   8.971  -5.135  1.00  0.00     0.027 C 
HETATM   10  C8  UNL     1       2.994   9.350  -6.168  1.00  0.00     0.232 C 
HETATM   11  N1  UNL     1       3.839  10.440  -5.665  1.00  0.00    -0.071 N 
ATOM     12  H12 UNL     1       3.364  11.342  -5.624  1.00  0.00     0.277 HD
ATOM     13  H11 UNL     1       4.575  10.722  -6.312  1.00  0.00     0.277 HD
ENDBRANCH   5   6
ENDBRANCH   4   5
ENDBRANCH   1   4
BRANCH   2  14
HETATM   14  N3  UNL     1       6.570   9.044  -0.249  1.00  0.00    -0.272 N 
HETATM   15  C9  UNL     1       7.435   9.503   0.584  1.00  0.00     0.190 C 
HETATM   16  N4  UNL     1       8.851   9.403   0.495  1.00  0.00    -0.360 N 
HETATM   17  N5  UNL     1       7.163  10.214   1.784  1.00  0.00    -0.360 N 
HETATM   18  C10 UNL     1       9.463  10.179   1.561  1.00  0.00     0.142 C 
ATOM     19  H4  UNL     1       9.359   8.869  -0.210  1.00  0.00     0.162 HD
HETATM   20  C11 UNL     1       8.351  10.919   2.226  1.00  0.00     0.142 C 
ATOM     21  H5  UNL     1       6.263  10.227   2.264  1.00  0.00     0.162 HD
ATOM     22  H3  UNL     1       5.575   9.179  -0.071  1.00  0.00     0.190 HD
ENDBRANCH   2  14
TORSDOF 4
ENDMDL
MODEL 2
REMARK VINA RESULT: -7.122465614      1.652      2.432
REMARK  4 active torsions:
REMARK  status: ('A' for Active; 'I' for Inactive)
REMARK    1  A    between atoms: C1_1  and  C2_2 
REMARK    2  A    between atoms: C2_2  and  C3_3 
REMARK    3  A    between atoms: C3_3  and  C4_4 
REMARK    4  A    between atoms: N2_12  and  N3_14 
ROOT
HETATM    1  C1  UNL     1       3.930   8.713  -1.888  1.00  0.00     0.080 C 
HETATM    2  N2  UNL     1       5.060   8.687  -1.248  1.00  0.00    -0.313 N 
ATOM      3  H2  UNL     1       5.248   7.967  -0.551  1.00  0.00     0.185 HD
ENDROOT
BRANCH   1   4
HETATM    4  C2  UNL     1       3.675   9.749  -2.883  1.00  0.00     0.048 C 
BRANCH   4   5
HETATM    5  C3  UNL     1       2.275   9.922  -3.355  1.00  0.00     0.038 C 
BRANCH   5   6
HETATM    6  C4  UNL     1       2.083   9.512  -4.755  1.00  0.00     0.186 C 
HETATM    7  C5  UNL     1       3.096  10.033  -5.707  1.00  0.00     0.033 C 
HETATM    8  C6  UNL     1       3.244   9.036  -6.885  1.00  0.00     0.004 C 
HETATM    9  C7  UNL     1       1.856   8.598  -7.288  1.00  0.00     0.027 C 
HETATM   10  C8  UNL     1       1.140   7.895  -6.153  1.00  0.00     0.232 C 
HETATM   11  N1  UNL     1       1.884   8.064  -4.899  1.00  0.00    -0.071 N 
ATOM     12  H12 UNL     1       2.749   7.525  -4.859  1.00  0.00     0.277 HD
ATOM     13  H11 UNL     1       1.434   7.630  -4.093  1.00  0.00     0.277 HD
ENDBRANCH   5   6
ENDBRANCH   4   5
ENDBRANCH   1   4
BRANCH   2  14
HETATM   14  N3  UNL     1       6.011   9.664  -1.533  1.00  0.00    -0.272 N 
HETATM   15  C9  UNL     1       6.911   9.970  -0.667  1.00  0.00     0.190 C 
HETATM   16  N4  UNL     1       7.079   9.412   0.630  1.00  0.00    -0.360 N 
HETATM   17  N5  UNL     1       7.938  10.940  -0.818  1.00  0.00    -0.360 N 
HETATM   18  C10 UNL     1       8.300   9.928   1.228  1.00  0.00     0.142 C 
ATOM     19  H4  UNL     1       6.442   8.750   1.073  1.00  0.00     0.162 HD
HETATM   20  C11 UNL     1       8.985  10.713   0.160  1.00  0.00     0.142 C 
ATOM     21  H5  UNL     1       7.939  11.686  -1.513  1.00  0.00     0.162 HD
ATOM     22  H3  UNL     1       5.994  10.141  -2.435  1.00  0.00     0.190 HD
ENDBRANCH   2  14
TORSDOF 4
ENDMDL
MODEL 3
REMARK VINA RESULT: -7.074237247      1.525      1.976
REMARK  4 active torsions:
REMARK  status: ('A' for Active; 'I' for Inactive)
REMARK    1  A    between atoms: C1_1  and  C2_2 
REMARK    2  A    between atoms: C2_2  and  C3_3 
REMARK    3  A    between atoms: C3_3  and  C4_4 
REMARK    4  A    between atoms: N2_12  and  N3_14 
ROOT
HETATM    1  C1  UNL     1       6.892   8.299  -0.510  1.00  0.00     0.080 C 
HETATM    2  N2  UNL     1       7.244   8.777   0.645  1.00  0.00    -0.313 N 
ATOM      3  H2  UNL     1       7.774   8.208   1.305  1.00  0.00     0.185 HD
ENDROOT
BRANCH   1   4
HETATM    4  C2  UNL     1       6.135   9.123  -1.445  1.00  0.00     0.048 C 
BRANCH   4   5
HETATM    5  C3  UNL     1       4.787   8.645  -1.853  1.00  0.00     0.038 C 
BRANCH   5   6
HETATM    6  C4  UNL     1       4.373   9.145  -3.174  1.00  0.00     0.186 C 
HETATM    7  C5  UNL     1       2.908   9.295  -3.357  1.00  0.00     0.033 C 
HETATM    8  C6  UNL     1       2.639  10.427  -4.382  1.00  0.00     0.004 C 
HETATM    9  C7  UNL     1       3.617  10.254  -5.519  1.00  0.00     0.027 C 
HETATM   10  C8  UNL     1       5.051  10.369  -5.044  1.00  0.00     0.232 C 
HETATM   11  N1  UNL     1       5.106  10.352  -3.578  1.00  0.00    -0.071 N 
ATOM     12  H12 UNL     1       4.759  11.207  -3.145  1.00  0.00     0.277 HD
ATOM     13  H11 UNL     1       6.052  10.402  -3.201  1.00  0.00     0.277 HD
ENDBRANCH   5   6
ENDBRANCH   4   5
ENDBRANCH   1   4
BRANCH   2  14
HETATM   14  N3  UNL     1       6.883  10.084   0.964  1.00  0.00    -0.272 N 
HETATM   15  C9  UNL     1       7.651  10.813   1.693  1.00  0.00     0.190 C 
HETATM   16  N4  UNL     1       8.902  10.444   2.258  1.00  0.00    -0.360 N 
HETATM   17  N5  UNL     1       7.414  12.154   2.097  1.00  0.00    -0.360 N 
HETATM   18  C10 UNL     1       9.513  11.603   2.889  1.00  0.00     0.142 C 
ATOM     19  H4  UNL     1       9.310   9.509   2.225  1.00  0.00     0.162 HD
HETATM   20  C11 UNL     1       8.652  12.768   2.537  1.00  0.00     0.142 C 
ATOM     21  H5  UNL     1       6.505  12.618   2.079  1.00  0.00     0.162 HD
ATOM     22  H3  UNL     1       6.002  10.465   0.618  1.00  0.00     0.190 HD
ENDBRANCH   2  14
TORSDOF 4
ENDMDL
MODEL 4
REMARK VINA RESULT: -7.073842408      1.168      1.448
REMARK  4 active torsions:
REMARK  status: ('A' for Active; 'I' for Inactive)
REMARK    1  A    between atoms: C1_1  and  C2_2 
REMARK    2  A    between atoms: C2_2  and  C3_3 
REMARK    3  A    between atoms: C3_3  and  C4_4 
REMARK    4  A    between atoms: N2_12  and  N3_14 
ROOT
HETATM    1  C1  UNL     1       5.537   8.293  -2.411  1.00  0.00     0.080 C 
HETATM    2  N2  UNL     1       6.561   8.306  -1.612  1.00  0.00    -0.313 N 
ATOM      3  H2  UNL     1       7.481   8.014  -1.941  1.00  0.00     0.185 HD
ENDROOT
BRANCH   1   4
HETATM    4  C2  UNL     1       4.226   8.713  -1.929  1.00  0.00     0.048 C 
BRANCH   4   5
HETATM    5  C3  UNL     1       3.518   9.775  -2.693  1.00  0.00     0.038 C 
BRANCH   5   6
HETATM    6  C4  UNL     1       3.286   9.414  -4.101  1.00  0.00     0.186 C 
HETATM    7  C5  UNL     1       2.236   8.389  -4.323  1.00  0.00     0.033 C 
HETATM    8  C6  UNL     1       1.595   8.613  -5.717  1.00  0.00     0.004 C 
HETATM    9  C7  UNL     1       2.713   8.899  -6.692  1.00  0.00     0.027 C 
HETATM   10  C8  UNL     1       3.481  10.148  -6.310  1.00  0.00     0.232 C 
HETATM   11  N1  UNL     1       3.101  10.589  -4.963  1.00  0.00    -0.071 N 
ATOM     12  H12 UNL     1       2.166  10.993  -4.912  1.00  0.00     0.277 HD
ATOM     13  H11 UNL     1       3.606  11.416  -4.644  1.00  0.00     0.277 HD
ENDBRANCH   5   6
ENDBRANCH   4   5
ENDBRANCH   1   4
BRANCH   2  14
HETATM   14  N3  UNL     1       6.376   8.724  -0.297  1.00  0.00    -0.272 N 
HETATM   15  C9  UNL     1       7.279   9.419   0.299  1.00  0.00     0.190 C 
HETATM   16  N4  UNL     1       8.526   9.846  -0.235  1.00  0.00    -0.360 N 
HETATM   17  N5  UNL     1       7.228   9.912   1.631  1.00  0.00    -0.360 N 
HETATM   18  C10 UNL     1       9.186  10.730   0.713  1.00  0.00     0.142 C 
ATOM     19  H4  UNL     1       8.900   9.574  -1.144  1.00  0.00     0.162 HD
HETATM   20  C11 UNL     1       8.200  10.975   1.805  1.00  0.00     0.142 C 
ATOM     21  H5  UNL     1       6.600   9.569   2.357  1.00  0.00     0.162 HD
ATOM     22  H3  UNL     1       5.518   8.478   0.198  1.00  0.00     0.190 HD
ENDBRANCH   2  14
TORSDOF 4
ENDMDL
MODEL 5
REMARK VINA RESULT: -6.991631013      1.037      1.548
REMARK  4 active torsions:
REMARK  status: ('A' for Active; 'I' for Inactive)
REMARK    1  A    between atoms: C1_1  and  C2_2 
REMARK    2  A    between atoms: C2_2  and  C3_3 
REMARK    3  A    between atoms: C3_3  and  C4_4 
REMARK    4  A    between atoms: N2_12  and  N3_14 
ROOT
HETATM    1  C1  UNL     1       5.927   8.244  -2.194  1.00  0.00     0.080 C 
HETATM    2  N2  UNL     1       6.843   8.343  -1.278  1.00  0.00    -0.313 N 
ATOM      3  H2  UNL     1       7.781   7.975  -1.438  1.00  0.00     0.185 HD
ENDROOT
BRANCH   1   4
HETATM    4  C2  UNL     1       4.591   8.777  -1.954  1.00  0.00     0.048 C 
BRANCH   4   5
HETATM    5  C3  UNL     1       4.270  10.115  -2.517  1.00  0.00     0.038 C 
BRANCH   5   6
HETATM    6  C4  UNL     1       3.809  10.057  -3.915  1.00  0.00     0.186 C 
HETATM    7  C5  UNL     1       4.858  10.314  -4.933  1.00  0.00     0.033 C 
HETATM    8  C6  UNL     1       4.495   9.555  -6.236  1.00  0.00     0.004 C 
HETATM    9  C7  UNL     1       3.017   9.749  -6.480  1.00  0.00     0.027 C 
HETATM   10  C8  UNL     1       2.185   9.183  -5.348  1.00  0.00     0.232 C 
HETATM   11  N1  UNL     1       3.042   8.840  -4.207  1.00  0.00    -0.071 N 
ATOM     12  H12 UNL     1       3.622   8.016  -4.364  1.00  0.00     0.277 HD
ATOM     13  H11 UNL     1       2.530   8.474  -3.404  1.00  0.00     0.277 HD
ENDBRANCH   5   6
ENDBRANCH   4   5
ENDBRANCH   1   4
BRANCH   2  14
HETATM   14  N3  UNL     1       6.519   8.962  -0.074  1.00  0.00    -0.272 N 
HETATM   15  C9  UNL     1       7.430   9.532   0.632  1.00  0.00     0.190 C 
HETATM   16  N4  UNL     1       8.817   9.622   0.333  1.00  0.00    -0.360 N 
HETATM   17  N5  UNL     1       7.248  10.199   1.874  1.00  0.00    -0.360 N 
HETATM   18  C10 UNL     1       9.473  10.473   1.314  1.00  0.00     0.142 C 
ATOM     19  H4  UNL     1       9.281   9.162  -0.450  1.00  0.00     0.162 HD
HETATM   20  C11 UNL     1       8.385  11.056   2.150  1.00  0.00     0.142 C 
ATOM     21  H5  UNL     1       6.435  10.090   2.481  1.00  0.00     0.162 HD
ATOM     22  H3  UNL     1       5.552   8.963   0.251  1.00  0.00     0.190 HD
ENDBRANCH   2  14
TORSDOF 4
ENDMDL
