MODEL 1
REMARK VINA RESULT: -7.304462365      0.000      0.000
REMARK  5 active torsions:
REMARK  status: ('A' for Active; 'I' for Inactive)
REMARK    1  A    between atoms: N1_1  and  C1_4 
REMARK    2  A    between atoms: N5_11  and  C3_12 
REMARK    3  A    between atoms: C3_12  and  C4_13 
REMARK    4  A    between atoms: C4_13  and  C5_14 
REMARK    5  A    between atoms: C5_14  and  C6_15 
ROOT
HETATM    1  C1  UNL     1       7.005   8.880  -0.464  1.00  0.00     0.695 A 
HETATM    2  N2  UNL     1       8.265   9.293  -0.671  1.00  0.00    -0.161 N 
ATOM      3  H2  UNL     1       9.038   9.213  -0.010  1.00  0.00     0.187 HD
HETATM    4  C2  UNL     1       8.330   9.832  -1.908  1.00  0.00     0.222 A 
HETATM    5  N3  UNL     1       9.442  10.399  -2.572  1.00  0.00    -0.061 NA
HETATM    6  N4  UNL     1       7.096   9.730  -2.423  1.00  0.00    -0.257 N 
ATOM      7  H4  UNL     1       6.823  10.050  -3.353  1.00  0.00     0.190 HD
HETATM    8  N5  UNL     1       6.282   9.153  -1.552  1.00  0.00    -0.122 N 
ENDROOT
BRANCH   8   9
HETATM    9  C3  UNL     1       4.895   8.901  -1.805  1.00  0.00     0.168 C 
BRANCH   9  10
HETATM   10  C4  UNL     1       4.274  10.122  -2.493  1.00  0.00     0.023 C 
BRANCH  10  11
HETATM   11  C5  UNL     1       2.800   9.818  -2.632  1.00  0.00     0.006 C 
BRANCH  11  12
HETATM   12  C6  UNL     1       2.369   9.776  -4.080  1.00  0.00    -0.014 C 
HETATM   13  C7  UNL     1       3.319  10.455  -4.998  1.00  0.00     0.004 C 
HETATM   14  C8  UNL     1       3.712   9.672  -6.201  1.00  0.00     0.000 C 
HETATM   15  C9  UNL     1       2.563   8.978  -6.883  1.00  0.00     0.000 C 
HETATM   16  C10 UNL     1       1.605   8.350  -5.905  1.00  0.00     0.000 C 
HETATM   17  C11 UNL     1       2.212   8.332  -4.500  1.00  0.00     0.004 C 
ENDBRANCH  11  12
ENDBRANCH  10  11
ENDBRANCH   9  10
ENDBRANCH   8   9
BRANCH   1  18
HETATM   18  N1  UNL     1       6.537   8.313   0.594  1.00  0.00    -0.233 N 
ATOM     19  H12 UNL     1       7.091   7.743   1.234  1.00  0.00     0.174 HD
ATOM     20  H11 UNL     1       5.577   8.349   0.938  1.00  0.00     0.174 HD
ENDBRANCH   1  18
TORSDOF 5
ENDMDL
MODEL 2
REMARK VINA RESULT: -7.153598838      2.042      2.906
REMARK  5 active torsions:
REMARK  status: ('A' for Active; 'I' for Inactive)
REMARK    1  A    between atoms: N1_1  and  C1_4 
REMARK    2  A    between atoms: N5_11  and  C3_12 
REMARK    3  A    between atoms: C3_12  and  C4_13 
REMARK    4  A    between atoms: C4_13  and  C5_14 
REMARK    5  A    between atoms: C5_14  and  C6_15 
ROOT
HETATM    1  C1  UNL     1       7.359   9.823   0.806  1.00  0.00     0.695 A 
HETATM    2  N2  UNL     1       7.248  10.773   1.748  1.00  0.00    -0.161 N 
ATOM      3  H2  UNL     1       7.041  10.618   2.735  1.00  0.00     0.187 HD
HETATM    4  C2  UNL     1       7.457  11.972   1.161  1.00  0.00     0.222 A 
HETATM    5  N3  UNL     1       7.444  13.260   1.742  1.00  0.00    -0.061 NA
HETATM    6  N4  UNL     1       7.694  11.714  -0.134  1.00  0.00    -0.257 N 
ATOM      7  H4  UNL     1       7.891  12.421  -0.844  1.00  0.00     0.190 HD
HETATM    8  N5  UNL     1       7.636  10.410  -0.360  1.00  0.00    -0.122 N 
ENDROOT
BRANCH   8   9
HETATM    9  C3  UNL     1       7.843   9.815  -1.646  1.00  0.00     0.168 C 
BRANCH   9  10
HETATM   10  C4  UNL     1       6.753  10.295  -2.610  1.00  0.00     0.023 C 
BRANCH  10  11
HETATM   11  C5  UNL     1       5.523   9.474  -2.292  1.00  0.00     0.006 C 
BRANCH  11  12
HETATM   12  C6  UNL     1       4.665   9.250  -3.516  1.00  0.00    -0.014 C 
HETATM   13  C7  UNL     1       3.224   9.530  -3.285  1.00  0.00     0.004 C 
HETATM   14  C8  UNL     1       2.573  10.401  -4.300  1.00  0.00     0.000 C 
HETATM   15  C9  UNL     1       2.928  10.056  -5.721  1.00  0.00     0.000 C 
HETATM   16  C10 UNL     1       4.390   9.733  -5.890  1.00  0.00     0.000 C 
HETATM   17  C11 UNL     1       5.173  10.129  -4.635  1.00  0.00     0.004 C 
ENDBRANCH  11  12
ENDBRANCH  10  11
ENDBRANCH   9  10
ENDBRANCH   8   9
BRANCH   1  18
HETATM   18  N1  UNL     1       7.228   8.552   0.966  1.00  0.00    -0.233 N 
ATOM     19  H12 UNL     1       7.446   8.055   1.830  1.00  0.00     0.174 HD
ATOM     20  H11 UNL     1       6.898   7.876   0.277  1.00  0.00     0.174 HD
ENDBRANCH   1  18
TORSDOF 5
ENDMDL
MODEL 3
REMARK VINA RESULT: -6.998511850      1.774      2.255
REMARK  5 active torsions:
REMARK  status: ('A' for Active; 'I' for Inactive)
REMARK    1  A    between atoms: N1_1  and  C1_4 
REMARK    2  A    between atoms: N5_11  and  C3_12 
REMARK    3  A    between atoms: C3_12  and  C4_13 
REMARK    4  A    between atoms: C4_13  and  C5_14 
REMARK    5  A    between atoms: C5_14  and  C6_15 
ROOT
HETATM    1  C1  UNL     1       8.172   9.679   0.797  1.00  0.00     0.695 A 
HETATM    2  N2  UNL     1       8.525  10.973   0.845  1.00  0.00    -0.161 N 
ATOM      3  H2  UNL     1       9.262  11.372   1.426  1.00  0.00     0.187 HD
HETATM    4  C2  UNL     1       7.731  11.655  -0.010  1.00  0.00     0.222 A 
HETATM    5  N3  UNL     1       7.724  13.037  -0.303  1.00  0.00    -0.061 NA
HETATM    6  N4  UNL     1       6.912  10.747  -0.560  1.00  0.00    -0.257 N 
ATOM      7  H4  UNL     1       6.192  10.954  -1.253  1.00  0.00     0.190 HD
HETATM    8  N5  UNL     1       7.171   9.542  -0.075  1.00  0.00    -0.122 N 
ENDROOT
BRANCH   8   9
HETATM    9  C3  UNL     1       6.466   8.358  -0.465  1.00  0.00     0.168 C 
BRANCH   9  10
HETATM   10  C4  UNL     1       6.031   8.485  -1.930  1.00  0.00     0.023 C 
BRANCH  10  11
HETATM   11  C5  UNL     1       4.529   8.658  -1.906  1.00  0.00     0.006 C 
BRANCH  11  12
HETATM   12  C6  UNL     1       4.057   9.627  -2.965  1.00  0.00    -0.014 C 
HETATM   13  C7  UNL     1       5.118  10.003  -3.935  1.00  0.00     0.004 C 
HETATM   14  C8  UNL     1       4.734   9.904  -5.369  1.00  0.00     0.000 C 
HETATM   15  C9  UNL     1       3.371  10.462  -5.679  1.00  0.00     0.000 C 
HETATM   16  C10 UNL     1       2.345  10.092  -4.639  1.00  0.00     0.000 C 
HETATM   17  C11 UNL     1       2.895   9.007  -3.708  1.00  0.00     0.004 C 
ENDBRANCH  11  12
ENDBRANCH  10  11
ENDBRANCH   9  10
ENDBRANCH   8   9
BRANCH   1  18
HETATM   18  N1  UNL     1       8.690   8.707   1.465  1.00  0.00    -0.233 N 
ATOM     19  H12 UNL     1       9.629   8.720   1.864  1.00  0.00     0.174 HD
ATOM     20  H11 UNL     1       8.255   7.812   1.687  1.00  0.00     0.174 HD
ENDBRANCH   1  18
TORSDOF 5
ENDMDL
MODEL 4
REMARK VINA RESULT: -6.982195560      1.355      1.930
REMARK  5 active torsions:
REMARK  status: ('A' for Active; 'I' for Inactive)
REMARK    1  A    between atoms: N1_1  and  C1_4 
REMARK    2  A    between atoms: N5_11  and  C3_12 
REMARK    3  A    between atoms: C3_12  and  C4_13 
REMARK    4  A    between atoms: C4_13  and  C5_14 
REMARK    5  A    between atoms: C5_14  and  C6_15 
ROOT
HETATM    1  C1  UNL     1       7.775  10.200   0.684  1.00  0.00     0.695 A 
HETATM    2  N2  UNL     1       8.833  10.950   0.336  1.00  0.00    -0.161 N 
ATOM      3  H2  UNL     1       9.300  11.638   0.927  1.00  0.00     0.187 HD
HETATM    4  C2  UNL     1       9.170  10.635  -0.934  1.00  0.00     0.222 A 
HETATM    5  N3  UNL     1      10.213  11.157  -1.731  1.00  0.00    -0.061 NA
HETATM    6  N4  UNL     1       8.300   9.692  -1.326  1.00  0.00    -0.257 N 
ATOM      7  H4  UNL     1       8.296   9.247  -2.244  1.00  0.00     0.190 HD
HETATM    8  N5  UNL     1       7.447   9.421  -0.349  1.00  0.00    -0.122 N 
ENDROOT
BRANCH   8   9
HETATM    9  C3  UNL     1       6.394   8.457  -0.457  1.00  0.00     0.168 C 
BRANCH   9  10
HETATM   10  C4  UNL     1       5.919   8.383  -1.912  1.00  0.00     0.023 C 
BRANCH  10  11
HETATM   11  C5  UNL     1       4.436   8.680  -1.883  1.00  0.00     0.006 C 
BRANCH  11  12
HETATM   12  C6  UNL     1       4.034   9.646  -2.973  1.00  0.00    -0.014 C 
HETATM   13  C7  UNL     1       5.141   9.974  -3.908  1.00  0.00     0.004 C 
HETATM   14  C8  UNL     1       4.808   9.864  -5.354  1.00  0.00     0.000 C 
HETATM   15  C9  UNL     1       3.474  10.459  -5.722  1.00  0.00     0.000 C 
HETATM   16  C10 UNL     1       2.400  10.136  -4.716  1.00  0.00     0.000 C 
HETATM   17  C11 UNL     1       2.882   9.050  -3.750  1.00  0.00     0.004 C 
ENDBRANCH  11  12
ENDBRANCH  10  11
ENDBRANCH   9  10
ENDBRANCH   8   9
BRANCH   1  18
HETATM   18  N1  UNL     1       7.157  10.206   1.814  1.00  0.00    -0.233 N 
ATOM     19  H12 UNL     1       7.286  10.914   2.536  1.00  0.00     0.174 HD
ATOM     20  H11 UNL     1       6.471   9.526   2.143  1.00  0.00     0.174 HD
ENDBRANCH   1  18
TORSDOF 5
ENDMDL
MODEL 5
REMARK VINA RESULT: -6.967239643      1.122      1.953
REMARK  5 active torsions:
REMARK  status: ('A' for Active; 'I' for Inactive)
REMARK    1  A    between atoms: N1_1  and  C1_4 
REMARK    2  A    between atoms: N5_11  and  C3_12 
REMARK    3  A    between atoms: C3_12  and  C4_13 
REMARK    4  A    between atoms: C4_13  and  C5_14 
REMARK    5  A    between atoms: C5_14  and  C6_15 
ROOT
HETATM    1  C1  UNL     1       6.649  10.356  -2.105  1.00  0.00     0.695 A 
HETATM    2  N2  UNL     1       7.402  10.728  -1.058  1.00  0.00    -0.161 N 
ATOM      3  H2  UNL     1       8.029  11.532  -1.026  1.00  0.00     0.187 HD
HETATM    4  C2  UNL     1       7.185   9.851  -0.053  1.00  0.00     0.222 A 
HETATM    5  N3  UNL     1       7.748   9.828   1.242  1.00  0.00    -0.061 NA
HETATM    6  N4  UNL     1       6.295   8.963  -0.522  1.00  0.00    -0.257 N 
ATOM      7  H4  UNL     1       5.927   8.171   0.006  1.00  0.00     0.190 HD
HETATM    8  N5  UNL     1       5.964   9.261  -1.769  1.00  0.00    -0.122 N 
ENDROOT
BRANCH   8   9
HETATM    9  C3  UNL     1       5.034   8.501  -2.549  1.00  0.00     0.168 C 
BRANCH   9  10
HETATM   10  C4  UNL     1       3.611   8.764  -2.042  1.00  0.00     0.023 C 
BRANCH  10  11
HETATM   11  C5  UNL     1       3.204  10.102  -2.617  1.00  0.00     0.006 C 
BRANCH  11  12
HETATM   12  C6  UNL     1       2.604   9.961  -3.997  1.00  0.00    -0.014 C 
HETATM   13  C7  UNL     1       3.477  10.493  -5.076  1.00  0.00     0.004 C 
HETATM   14  C8  UNL     1       3.683   9.584  -6.235  1.00  0.00     0.000 C 
HETATM   15  C9  UNL     1       2.426   8.910  -6.716  1.00  0.00     0.000 C 
HETATM   16  C10 UNL     1       1.555   8.434  -5.583  1.00  0.00     0.000 C 
HETATM   17  C11 UNL     1       2.320   8.500  -4.258  1.00  0.00     0.004 C 
ENDBRANCH  11  12
ENDBRANCH  10  11
ENDBRANCH   9  10
ENDBRANCH   8   9
BRANCH   1  18
HETATM   18  N1  UNL     1       6.575  10.935  -3.253  1.00  0.00    -0.233 N 
ATOM     19  H12 UNL     1       7.105  11.767  -3.513  1.00  0.00     0.174 HD
ATOM     20  H11 UNL     1       5.996  10.657  -4.046  1.00  0.00     0.174 HD
ENDBRANCH   1  18
TORSDOF 5
ENDMDL
