MODEL 1
REMARK VINA RESULT: -6.852246971      0.000      0.000
REMARK  5 active torsions:
REMARK  status: ('A' for Active; 'I' for Inactive)
REMARK    1  A    between atoms: O1_2  and  C2_3 
REMARK    2  A    between atoms: C2_3  and  C3_4 
REMARK    3  A    between atoms: C3_4  and  N1_5 
REMARK    4  A    between atoms: N1_5  and  C4_7 
REMARK    5  A    between atoms: C5_12  and  N4_13 
ROOT
HETATM    1  C4  UNL     1       6.745   9.459  -1.242  1.00  0.00     0.707 A 
HETATM    2  N2  UNL     1       6.013   8.621  -0.464  1.00  0.00    -0.117 N 
ATOM      3  H2  UNL     1       5.084   8.269  -0.700  1.00  0.00     0.206 HD
HETATM    4  N3  UNL     1       6.665   8.328   0.630  1.00  0.00    -0.118 N 
ATOM      5  H3  UNL     1       6.332   7.717   1.377  1.00  0.00     0.206 HD
HETATM    6  C5  UNL     1       7.852   8.966   0.605  1.00  0.00     0.705 A 
HETATM    7  N5  UNL     1       7.883   9.660  -0.558  1.00  0.00    -0.020 N 
ATOM      8  H5  UNL     1       8.657  10.248  -0.869  1.00  0.00     0.203 HD
ENDROOT
BRANCH   1   9
HETATM    9  N1  UNL     1       6.426   9.957  -2.385  1.00  0.00    -0.221 N 
ATOM     10  H1  UNL     1       7.118  10.024  -3.132  1.00  0.00     0.177 HD
BRANCH   9  11
HETATM   11  C3  UNL     1       5.096  10.412  -2.589  1.00  0.00     0.176 C 
BRANCH  11  12
HETATM   12  C2  UNL     1       4.332   9.869  -3.717  1.00  0.00     0.080 C 
HETATM   13  C6  UNL     1       2.984  10.506  -3.953  1.00  0.00     0.040 C 
HETATM   14  C7  UNL     1       2.554   9.702  -5.191  1.00  0.00     0.004 C 
HETATM   15  C8  UNL     1       3.797   9.814  -6.046  1.00  0.00     0.007 C 
HETATM   16  C9  UNL     1       4.964  10.072  -5.090  1.00  0.00     0.018 C 
HETATM   17  C10 UNL     1       5.460  11.452  -5.325  1.00  0.00     0.013 C 
BRANCH  12  18
HETATM   18  O1  UNL     1       4.107   8.502  -3.601  1.00  0.00    -0.383 OA
HETATM   19  C1  UNL     1       3.302   8.135  -2.555  1.00  0.00     0.202 C 
ENDBRANCH  12  18
ENDBRANCH  11  12
ENDBRANCH   9  11
ENDBRANCH   1   9
BRANCH   6  20
HETATM   20  N4  UNL     1       8.785   8.936   1.501  1.00  0.00    -0.233 N 
ATOM     21  H42 UNL     1       9.325   8.116   1.778  1.00  0.00     0.174 HD
ATOM     22  H41 UNL     1       9.129   9.709   2.069  1.00  0.00     0.174 HD
ENDBRANCH   6  20
TORSDOF 5
ENDMDL
MODEL 2
REMARK VINA RESULT: -6.767144518      1.054      1.187
REMARK  5 active torsions:
REMARK  status: ('A' for Active; 'I' for Inactive)
REMARK    1  A    between atoms: O1_2  and  C2_3 
REMARK    2  A    between atoms: C2_3  and  C3_4 
REMARK    3  A    between atoms: C3_4  and  N1_5 
REMARK    4  A    between atoms: N1_5  and  C4_7 
REMARK    5  A    between atoms: C5_12  and  N4_13 
ROOT
HETATM    1  C4  UNL     1       6.791  10.060  -0.812  1.00  0.00     0.707 A 
HETATM    2  N2  UNL     1       6.151   8.980  -0.294  1.00  0.00    -0.117 N 
ATOM      3  H2  UNL     1       5.221   8.667  -0.571  1.00  0.00     0.206 HD
HETATM    4  N3  UNL     1       6.896   8.398   0.609  1.00  0.00    -0.118 N 
ATOM      5  H3  UNL     1       6.644   7.567   1.144  1.00  0.00     0.206 HD
HETATM    6  C5  UNL     1       8.054   9.080   0.713  1.00  0.00     0.705 A 
HETATM    7  N5  UNL     1       7.971  10.103  -0.172  1.00  0.00    -0.020 N 
ATOM      8  H5  UNL     1       8.697  10.802  -0.328  1.00  0.00     0.203 HD
ENDROOT
BRANCH   1   9
HETATM    9  N1  UNL     1       6.368  10.870  -1.718  1.00  0.00    -0.221 N 
ATOM     10  H1  UNL     1       6.122  11.831  -1.479  1.00  0.00     0.177 HD
BRANCH   9  11
HETATM   11  C3  UNL     1       6.251  10.405  -3.055  1.00  0.00     0.176 C 
BRANCH  11  12
HETATM   12  C2  UNL     1       5.007   9.743  -3.464  1.00  0.00     0.080 C 
HETATM   13  C6  UNL     1       3.752  10.267  -2.811  1.00  0.00     0.040 C 
HETATM   14  C7  UNL     1       2.724   9.363  -3.513  1.00  0.00     0.004 C 
HETATM   15  C8  UNL     1       3.154   9.516  -4.955  1.00  0.00     0.007 C 
HETATM   16  C9  UNL     1       4.632   9.913  -4.932  1.00  0.00     0.018 C 
HETATM   17  C10 UNL     1       4.744  11.310  -5.425  1.00  0.00     0.013 C 
BRANCH  12  18
HETATM   18  O1  UNL     1       5.031   8.373  -3.234  1.00  0.00    -0.383 OA
HETATM   19  C1  UNL     1       6.232   7.765  -3.490  1.00  0.00     0.202 C 
ENDBRANCH  12  18
ENDBRANCH  11  12
ENDBRANCH   9  11
ENDBRANCH   1   9
BRANCH   6  20
HETATM   20  N4  UNL     1       9.054   8.826   1.493  1.00  0.00    -0.233 N 
ATOM     21  H42 UNL     1       8.999   8.435   2.434  1.00  0.00     0.174 HD
ATOM     22  H41 UNL     1      10.045   8.971   1.303  1.00  0.00     0.174 HD
ENDBRANCH   6  20
TORSDOF 5
ENDMDL
MODEL 3
REMARK VINA RESULT: -6.643463631      1.610      2.138
REMARK  5 active torsions:
REMARK  status: ('A' for Active; 'I' for Inactive)
REMARK    1  A    between atoms: O1_2  and  C2_3 
REMARK    2  A    between atoms: C2_3  and  C3_4 
REMARK    3  A    between atoms: C3_4  and  N1_5 
REMARK    4  A    between atoms: N1_5  and  C4_7 
REMARK    5  A    between atoms: C5_12  and  N4_13 
ROOT
HETATM    1  C4  UNL     1       6.304  10.907  -2.781  1.00  0.00     0.707 A 
HETATM    2  N2  UNL     1       6.038  11.697  -1.709  1.00  0.00    -0.117 N 
ATOM      3  H2  UNL     1       5.282  12.380  -1.662  1.00  0.00     0.206 HD
HETATM    4  N3  UNL     1       6.888  11.458  -0.745  1.00  0.00    -0.118 N 
ATOM      5  H3  UNL     1       6.901  11.920   0.165  1.00  0.00     0.206 HD
HETATM    6  C5  UNL     1       7.742  10.500  -1.155  1.00  0.00     0.705 A 
HETATM    7  N5  UNL     1       7.366  10.172  -2.414  1.00  0.00    -0.020 N 
ATOM      8  H5  UNL     1       7.822   9.471  -2.998  1.00  0.00     0.203 HD
ENDROOT
BRANCH   1   9
HETATM    9  N1  UNL     1       5.680  10.865  -3.906  1.00  0.00    -0.221 N 
ATOM     10  H1  UNL     1       5.528  11.717  -4.446  1.00  0.00     0.177 HD
BRANCH   9  11
HETATM   11  C3  UNL     1       5.209   9.612  -4.383  1.00  0.00     0.176 C 
BRANCH  11  12
HETATM   12  C2  UNL     1       3.770   9.335  -4.328  1.00  0.00     0.080 C 
HETATM   13  C6  UNL     1       2.899  10.506  -3.942  1.00  0.00     0.040 C 
HETATM   14  C7  UNL     1       1.526   9.821  -4.035  1.00  0.00     0.004 C 
HETATM   15  C8  UNL     1       1.635   9.151  -5.387  1.00  0.00     0.007 C 
HETATM   16  C9  UNL     1       3.129   8.957  -5.659  1.00  0.00     0.018 C 
HETATM   17  C10 UNL     1       3.514   9.844  -6.786  1.00  0.00     0.013 C 
BRANCH  12  18
HETATM   18  O1  UNL     1       3.458   8.304  -3.450  1.00  0.00    -0.383 OA
HETATM   19  C1  UNL     1       4.054   8.392  -2.220  1.00  0.00     0.202 C 
ENDBRANCH  12  18
ENDBRANCH  11  12
ENDBRANCH   9  11
ENDBRANCH   1   9
BRANCH   6  20
HETATM   20  N4  UNL     1       8.728   9.984  -0.494  1.00  0.00    -0.233 N 
ATOM     21  H42 UNL     1       8.692   9.634   0.464  1.00  0.00     0.174 HD
ATOM     22  H41 UNL     1       9.686   9.845  -0.812  1.00  0.00     0.174 HD
ENDBRANCH   6  20
TORSDOF 5
ENDMDL
MODEL 4
REMARK VINA RESULT: -6.549915697      1.234      2.182
REMARK  5 active torsions:
REMARK  status: ('A' for Active; 'I' for Inactive)
REMARK    1  A    between atoms: O1_2  and  C2_3 
REMARK    2  A    between atoms: C2_3  and  C3_4 
REMARK    3  A    between atoms: C3_4  and  N1_5 
REMARK    4  A    between atoms: N1_5  and  C4_7 
REMARK    5  A    between atoms: C5_12  and  N4_13 
ROOT
HETATM    1  C4  UNL     1       6.215   8.795  -0.798  1.00  0.00     0.707 A 
HETATM    2  N2  UNL     1       6.513   8.093   0.325  1.00  0.00    -0.117 N 
ATOM      3  H2  UNL     1       6.166   7.157   0.535  1.00  0.00     0.206 HD
HETATM    4  N3  UNL     1       7.309   8.784   1.098  1.00  0.00    -0.118 N 
ATOM      5  H3  UNL     1       7.678   8.478   1.998  1.00  0.00     0.206 HD
HETATM    6  C5  UNL     1       7.559   9.968   0.505  1.00  0.00     0.705 A 
HETATM    7  N5  UNL     1       6.875   9.957  -0.665  1.00  0.00    -0.020 N 
ATOM      8  H5  UNL     1       6.864  10.718  -1.344  1.00  0.00     0.203 HD
ENDROOT
BRANCH   1   9
HETATM    9  N1  UNL     1       5.465   8.436  -1.780  1.00  0.00    -0.221 N 
ATOM     10  H1  UNL     1       4.973   7.543  -1.757  1.00  0.00     0.177 HD
BRANCH   9  11
HETATM   11  C3  UNL     1       5.333   9.305  -2.897  1.00  0.00     0.176 C 
BRANCH  11  12
HETATM   12  C2  UNL     1       4.114   9.228  -3.709  1.00  0.00     0.080 C 
HETATM   13  C6  UNL     1       3.245   8.020  -3.457  1.00  0.00     0.040 C 
HETATM   14  C7  UNL     1       2.109   8.335  -4.444  1.00  0.00     0.004 C 
HETATM   15  C8  UNL     1       1.820   9.777  -4.091  1.00  0.00     0.007 C 
HETATM   16  C9  UNL     1       3.099  10.339  -3.465  1.00  0.00     0.018 C 
HETATM   17  C10 UNL     1       2.833  10.607  -2.029  1.00  0.00     0.013 C 
BRANCH  12  18
HETATM   18  O1  UNL     1       4.379   9.247  -5.073  1.00  0.00    -0.383 OA
HETATM   19  C1  UNL     1       5.117  10.319  -5.503  1.00  0.00     0.202 C 
ENDBRANCH  12  18
ENDBRANCH  11  12
ENDBRANCH   9  11
ENDBRANCH   1   9
BRANCH   6  20
HETATM   20  N4  UNL     1       8.301  10.932   0.946  1.00  0.00    -0.233 N 
ATOM     21  H42 UNL     1       8.940  10.885   1.739  1.00  0.00     0.174 HD
ATOM     22  H41 UNL     1       8.368  11.883   0.583  1.00  0.00     0.174 HD
ENDBRANCH   6  20
TORSDOF 5
ENDMDL
MODEL 5
REMARK VINA RESULT: -6.418982489      1.651      3.089
REMARK  5 active torsions:
REMARK  status: ('A' for Active; 'I' for Inactive)
REMARK    1  A    between atoms: O1_2  and  C2_3 
REMARK    2  A    between atoms: C2_3  and  C3_4 
REMARK    3  A    between atoms: C3_4  and  N1_5 
REMARK    4  A    between atoms: N1_5  and  C4_7 
REMARK    5  A    between atoms: C5_12  and  N4_13 
ROOT
HETATM    1  C4  UNL     1       7.162   9.000   0.656  1.00  0.00     0.707 A 
HETATM    2  N2  UNL     1       8.403   8.490   0.863  1.00  0.00    -0.117 N 
ATOM      3  H2  UNL     1       8.770   7.651   0.412  1.00  0.00     0.206 HD
HETATM    4  N3  UNL     1       9.062   9.225   1.720  1.00  0.00    -0.118 N 
ATOM      5  H3  UNL     1      10.014   9.055   2.043  1.00  0.00     0.206 HD
HETATM    6  C5  UNL     1       8.270  10.246   2.105  1.00  0.00     0.705 A 
HETATM    7  N5  UNL     1       7.102  10.091   1.438  1.00  0.00    -0.020 N 
ATOM      8  H5  UNL     1       6.295  10.710   1.518  1.00  0.00     0.203 HD
ENDROOT
BRANCH   1   9
HETATM    9  N1  UNL     1       6.239   8.547  -0.117  1.00  0.00    -0.221 N 
ATOM     10  H1  UNL     1       5.305   8.355   0.247  1.00  0.00     0.177 HD
BRANCH   9  11
HETATM   11  C3  UNL     1       6.541   8.317  -1.487  1.00  0.00     0.176 C 
BRANCH  11  12
HETATM   12  C2  UNL     1       6.066   9.282  -2.484  1.00  0.00     0.080 C 
HETATM   13  C6  UNL     1       5.961   8.755  -3.894  1.00  0.00     0.040 C 
HETATM   14  C7  UNL     1       5.417  10.020  -4.580  1.00  0.00     0.004 C 
HETATM   15  C8  UNL     1       4.291  10.389  -3.639  1.00  0.00     0.007 C 
HETATM   16  C9  UNL     1       4.638   9.777  -2.280  1.00  0.00     0.018 C 
HETATM   17  C10 UNL     1       3.660   8.697  -1.993  1.00  0.00     0.013 C 
BRANCH  12  18
HETATM   18  O1  UNL     1       6.859  10.421  -2.545  1.00  0.00    -0.383 OA
HETATM   19  C1  UNL     1       8.200  10.202  -2.373  1.00  0.00     0.202 C 
ENDBRANCH  12  18
ENDBRANCH  11  12
ENDBRANCH   9  11
ENDBRANCH   1   9
BRANCH   6  20
HETATM   20  N4  UNL     1       8.552  11.193   2.941  1.00  0.00    -0.233 N 
ATOM     21  H42 UNL     1       8.846  12.139   2.700  1.00  0.00     0.174 HD
ATOM     22  H41 UNL     1       8.529  11.152   3.959  1.00  0.00     0.174 HD
ENDBRANCH   6  20
TORSDOF 5
ENDMDL
