MODEL 1
REMARK VINA RESULT: -7.165698601      0.000      0.000
REMARK  4 active torsions:
REMARK  status: ('A' for Active; 'I' for Inactive)
REMARK    1  A    between atoms: C4_11  and  C5_12 
REMARK    2  A    between atoms: C5_12  and  C6_13 
REMARK    3  A    between atoms: C6_13  and  C7_14 
REMARK    4  A    between atoms: C7_14  and  C8_15 
ROOT
HETATM    1  C1  UNL     1       4.402  10.838  -5.366  1.00  0.00     0.071 C 
HETATM    2  C2  UNL     1       3.342   9.817  -5.306  1.00  0.00     0.045 A 
HETATM    3  N1  UNL     1       2.749   9.159  -6.305  1.00  0.00    -0.194 N 
ATOM      4  H1  UNL     1       2.968   9.289  -7.292  1.00  0.00     0.184 HD
HETATM    5  C3  UNL     1       1.826   8.301  -5.836  1.00  0.00     0.676 A 
HETATM    6  N2  UNL     1       1.074   7.513  -6.527  1.00  0.00    -0.234 N 
ATOM      7  H21 UNL     1       0.374   6.862  -6.172  1.00  0.00     0.174 HD
ATOM      8  H22 UNL     1       1.049   7.405  -7.540  1.00  0.00     0.174 HD
HETATM    9  N3  UNL     1       1.859   8.443  -4.501  1.00  0.00    -0.194 N 
ATOM     10  H3  UNL     1       1.268   7.923  -3.851  1.00  0.00     0.184 HD
HETATM   11  C4  UNL     1       2.760   9.348  -4.135  1.00  0.00     0.049 A 
ENDROOT
BRANCH  11  12
HETATM   12  C5  UNL     1       3.095   9.789  -2.745  1.00  0.00     0.060 C 
BRANCH  12  13
HETATM   13  C6  UNL     1       3.763   8.653  -1.976  1.00  0.00     0.008 C 
BRANCH  13  14
HETATM   14  C7  UNL     1       5.007   8.287  -2.727  1.00  0.00     0.034 C 
BRANCH  14  15
HETATM   15  C8  UNL     1       6.264   8.618  -1.924  1.00  0.00     0.138 C 
HETATM   16  C9  UNL     1       6.570  10.055  -2.149  1.00  0.00     0.145 C 
HETATM   17  N4  UNL     1       7.349  10.705  -1.167  1.00  0.00    -0.417 N 
HETATM   18  C10 UNL     1       7.543  10.048   0.070  1.00  0.00     0.140 C 
ATOM     19  H4  UNL     1       7.759  11.622  -1.345  1.00  0.00     0.153 HD
HETATM   20  C11 UNL     1       7.227   8.579   0.082  1.00  0.00     0.187 C 
HETATM   21  O1  UNL     1       6.042   8.294  -0.600  1.00  0.00    -0.383 OA
ENDBRANCH  14  15
ENDBRANCH  13  14
ENDBRANCH  12  13
ENDBRANCH  11  12
TORSDOF 4
ENDMDL
MODEL 2
REMARK VINA RESULT: -7.046741698      1.559      2.076
REMARK  4 active torsions:
REMARK  status: ('A' for Active; 'I' for Inactive)
REMARK    1  A    between atoms: C4_11  and  C5_12 
REMARK    2  A    between atoms: C5_12  and  C6_13 
REMARK    3  A    between atoms: C6_13  and  C7_14 
REMARK    4  A    between atoms: C7_14  and  C8_15 
ROOT
HETATM    1  C1  UNL     1       3.085  10.098  -7.830  1.00  0.00     0.071 C 
HETATM    2  C2  UNL     1       2.536   9.149  -6.845  1.00  0.00     0.045 A 
HETATM    3  N1  UNL     1       1.905   7.992  -7.053  1.00  0.00    -0.194 N 
ATOM      4  H1  UNL     1       1.712   7.597  -7.973  1.00  0.00     0.184 HD
HETATM    5  C3  UNL     1       1.558   7.415  -5.889  1.00  0.00     0.676 A 
HETATM    6  N2  UNL     1       0.939   6.295  -5.729  1.00  0.00    -0.234 N 
ATOM      7  H21 UNL     1       0.676   5.858  -4.846  1.00  0.00     0.174 HD
ATOM      8  H22 UNL     1       0.607   5.658  -6.452  1.00  0.00     0.174 HD
HETATM    9  N3  UNL     1       1.996   8.255  -4.936  1.00  0.00    -0.194 N 
ATOM     10  H3  UNL     1       1.884   8.099  -3.934  1.00  0.00     0.184 HD
HETATM   11  C4  UNL     1       2.593   9.316  -5.468  1.00  0.00     0.049 A 
ENDROOT
BRANCH  11  12
HETATM   12  C5  UNL     1       3.209  10.472  -4.744  1.00  0.00     0.060 C 
BRANCH  12  13
HETATM   13  C6  UNL     1       4.718  10.496  -4.973  1.00  0.00     0.008 C 
BRANCH  13  14
HETATM   14  C7  UNL     1       5.282   9.278  -4.307  1.00  0.00     0.034 C 
BRANCH  14  15
HETATM   15  C8  UNL     1       5.955   9.626  -2.981  1.00  0.00     0.138 C 
HETATM   16  C9  UNL     1       5.249   8.873  -1.912  1.00  0.00     0.145 C 
HETATM   17  N4  UNL     1       5.963   8.635  -0.718  1.00  0.00    -0.417 N 
HETATM   18  C10 UNL     1       7.357   8.869  -0.718  1.00  0.00     0.140 C 
ATOM     19  H4  UNL     1       5.486   8.303   0.121  1.00  0.00     0.153 HD
HETATM   20  C11 UNL     1       7.876   9.699  -1.859  1.00  0.00     0.187 C 
HETATM   21  O1  UNL     1       7.302   9.330  -3.076  1.00  0.00    -0.383 OA
ENDBRANCH  14  15
ENDBRANCH  13  14
ENDBRANCH  12  13
ENDBRANCH  11  12
TORSDOF 4
ENDMDL
MODEL 3
REMARK VINA RESULT: -6.999608997      1.245      1.498
REMARK  4 active torsions:
REMARK  status: ('A' for Active; 'I' for Inactive)
REMARK    1  A    between atoms: C4_11  and  C5_12 
REMARK    2  A    between atoms: C5_12  and  C6_13 
REMARK    3  A    between atoms: C6_13  and  C7_14 
REMARK    4  A    between atoms: C7_14  and  C8_15 
ROOT
HETATM    1  C1  UNL     1       4.749  10.699  -5.381  1.00  0.00     0.071 C 
HETATM    2  C2  UNL     1       3.601   9.804  -5.153  1.00  0.00     0.045 A 
HETATM    3  N1  UNL     1       2.708   9.340  -6.029  1.00  0.00    -0.194 N 
ATOM      4  H1  UNL     1       2.707   9.562  -7.025  1.00  0.00     0.184 HD
HETATM    5  C3  UNL     1       1.809   8.543  -5.426  1.00  0.00     0.676 A 
HETATM    6  N2  UNL     1       0.816   7.933  -5.978  1.00  0.00    -0.234 N 
ATOM      7  H21 UNL     1       0.134   7.328  -5.521  1.00  0.00     0.174 HD
ATOM      8  H22 UNL     1       0.542   7.949  -6.960  1.00  0.00     0.174 HD
HETATM    9  N3  UNL     1       2.170   8.521  -4.132  1.00  0.00    -0.194 N 
ATOM     10  H3  UNL     1       1.681   7.998  -3.406  1.00  0.00     0.184 HD
HETATM   11  C4  UNL     1       3.248   9.268  -3.921  1.00  0.00     0.049 A 
ENDROOT
BRANCH  11  12
HETATM   12  C5  UNL     1       3.954   9.501  -2.622  1.00  0.00     0.060 C 
BRANCH  12  13
HETATM   13  C6  UNL     1       4.797   8.283  -2.254  1.00  0.00     0.008 C 
BRANCH  13  14
HETATM   14  C7  UNL     1       6.222   8.626  -2.565  1.00  0.00     0.034 C 
BRANCH  14  15
HETATM   15  C8  UNL     1       6.898   9.333  -1.392  1.00  0.00     0.138 C 
HETATM   16  C9  UNL     1       6.568   8.569  -0.162  1.00  0.00     0.145 C 
HETATM   17  N4  UNL     1       7.443   8.713   0.936  1.00  0.00    -0.417 N 
HETATM   18  C10 UNL     1       8.695   9.331   0.712  1.00  0.00     0.140 C 
ATOM     19  H4  UNL     1       7.180   8.381   1.864  1.00  0.00     0.153 HD
HETATM   20  C11 UNL     1       8.816  10.106  -0.570  1.00  0.00     0.187 C 
HETATM   21  O1  UNL     1       8.253   9.422  -1.649  1.00  0.00    -0.383 OA
ENDBRANCH  14  15
ENDBRANCH  13  14
ENDBRANCH  12  13
ENDBRANCH  11  12
TORSDOF 4
ENDMDL
MODEL 4
REMARK VINA RESULT: -6.991436165      1.970      6.005
REMARK  4 active torsions:
REMARK  status: ('A' for Active; 'I' for Inactive)
REMARK    1  A    between atoms: C4_11  and  C5_12 
REMARK    2  A    between atoms: C5_12  and  C6_13 
REMARK    3  A    between atoms: C6_13  and  C7_14 
REMARK    4  A    between atoms: C7_14  and  C8_15 
ROOT
HETATM    1  C1  UNL     1       6.390  10.581  -3.306  1.00  0.00     0.071 C 
HETATM    2  C2  UNL     1       6.453   9.807  -2.054  1.00  0.00     0.045 A 
HETATM    3  N1  UNL     1       7.369   9.848  -1.084  1.00  0.00    -0.194 N 
ATOM      4  H1  UNL     1       8.189  10.455  -1.089  1.00  0.00     0.184 HD
HETATM    5  C3  UNL     1       7.068   8.984  -0.099  1.00  0.00     0.676 A 
HETATM    6  N2  UNL     1       7.739   8.772   0.982  1.00  0.00    -0.234 N 
ATOM      7  H21 UNL     1       7.510   8.117   1.729  1.00  0.00     0.174 HD
ATOM      8  H22 UNL     1       8.606   9.220   1.275  1.00  0.00     0.174 HD
HETATM    9  N3  UNL     1       5.925   8.394  -0.485  1.00  0.00    -0.194 N 
ATOM     10  H3  UNL     1       5.433   7.681   0.054  1.00  0.00     0.184 HD
HETATM   11  C4  UNL     1       5.516   8.861  -1.660  1.00  0.00     0.049 A 
ENDROOT
BRANCH  11  12
HETATM   12  C5  UNL     1       4.293   8.458  -2.424  1.00  0.00     0.060 C 
BRANCH  12  13
HETATM   13  C6  UNL     1       3.100   9.309  -1.998  1.00  0.00     0.008 C 
BRANCH  13  14
HETATM   14  C7  UNL     1       2.655  10.076  -3.206  1.00  0.00     0.034 C 
BRANCH  14  15
HETATM   15  C8  UNL     1       3.081   9.382  -4.498  1.00  0.00     0.138 C 
HETATM   16  C9  UNL     1       1.891   8.670  -5.035  1.00  0.00     0.145 C 
HETATM   17  N4  UNL     1       1.884   8.385  -6.417  1.00  0.00    -0.417 N 
HETATM   18  C10 UNL     1       2.847   9.025  -7.232  1.00  0.00     0.140 C 
ATOM     19  H4  UNL     1       1.205   7.737  -6.816  1.00  0.00     0.153 HD
HETATM   20  C11 UNL     1       4.008   9.642  -6.505  1.00  0.00     0.187 C 
HETATM   21  O1  UNL     1       3.601  10.328  -5.360  1.00  0.00    -0.383 OA
ENDBRANCH  14  15
ENDBRANCH  13  14
ENDBRANCH  12  13
ENDBRANCH  11  12
TORSDOF 4
ENDMDL
MODEL 5
REMARK VINA RESULT: -6.953683033      1.655      2.325
REMARK  4 active torsions:
REMARK  status: ('A' for Active; 'I' for Inactive)
REMARK    1  A    between atoms: C4_11  and  C5_12 
REMARK    2  A    between atoms: C5_12  and  C6_13 
REMARK    3  A    between atoms: C6_13  and  C7_14 
REMARK    4  A    between atoms: C7_14  and  C8_15 
ROOT
HETATM    1  C1  UNL     1       1.594   9.806  -4.261  1.00  0.00     0.071 C 
HETATM    2  C2  UNL     1       2.810   9.688  -5.085  1.00  0.00     0.045 A 
HETATM    3  N1  UNL     1       2.920   9.539  -6.406  1.00  0.00    -0.194 N 
ATOM      4  H1  UNL     1       2.131   9.484  -7.049  1.00  0.00     0.184 HD
HETATM    5  C3  UNL     1       4.211   9.473  -6.778  1.00  0.00     0.676 A 
HETATM    6  N2  UNL     1       4.669   9.331  -7.975  1.00  0.00    -0.234 N 
ATOM      7  H21 UNL     1       5.648   9.280  -8.258  1.00  0.00     0.174 HD
ATOM      8  H22 UNL     1       4.137   9.245  -8.841  1.00  0.00     0.174 HD
HETATM    9  N3  UNL     1       4.912   9.585  -5.638  1.00  0.00    -0.194 N 
ATOM     10  H3  UNL     1       5.931   9.571  -5.584  1.00  0.00     0.184 HD
HETATM   11  C4  UNL     1       4.107   9.718  -4.589  1.00  0.00     0.049 A 
ENDROOT
BRANCH  11  12
HETATM   12  C5  UNL     1       4.501   9.869  -3.153  1.00  0.00     0.060 C 
BRANCH  12  13
HETATM   13  C6  UNL     1       4.789   8.503  -2.538  1.00  0.00     0.008 C 
BRANCH  13  14
HETATM   14  C7  UNL     1       6.279   8.344  -2.502  1.00  0.00     0.034 C 
BRANCH  14  15
HETATM   15  C8  UNL     1       6.903   9.168  -1.378  1.00  0.00     0.138 C 
HETATM   16  C9  UNL     1       6.568   8.498  -0.095  1.00  0.00     0.145 C 
HETATM   17  N4  UNL     1       7.411   8.762   1.006  1.00  0.00    -0.417 N 
HETATM   18  C10 UNL     1       8.648   9.401   0.757  1.00  0.00     0.140 C 
ATOM     19  H4  UNL     1       7.136   8.499   1.952  1.00  0.00     0.153 HD
HETATM   20  C11 UNL     1       8.776  10.071  -0.582  1.00  0.00     0.187 C 
HETATM   21  O1  UNL     1       8.260   9.281  -1.612  1.00  0.00    -0.383 OA
ENDBRANCH  14  15
ENDBRANCH  13  14
ENDBRANCH  12  13
ENDBRANCH  11  12
TORSDOF 4
ENDMDL
