MODEL 1
REMARK VINA RESULT: -6.434581387      0.000      0.000
REMARK  6 active torsions:
REMARK  status: ('A' for Active; 'I' for Inactive)
REMARK    1  A    between atoms: C2_2  and  C3_3 
REMARK    2  A    between atoms: C3_3  and  C4_4 
REMARK    3  A    between atoms: C4_4  and  C5_5 
REMARK    4  A    between atoms: C5_5  and  N1_6 
REMARK    5  A    between atoms: N1_6  and  C6_8 
REMARK    6  A    between atoms: C8_17  and  N5_18 
ROOT
HETATM    1  C6  UNL     1       6.738   9.134  -0.541  1.00  0.00     0.707 A 
HETATM    2  N2  UNL     1       7.605   9.614  -1.451  1.00  0.00    -0.022 N 
ATOM      3  H2  UNL     1       7.372   9.520  -2.439  1.00  0.00     0.203 HD
HETATM    4  C7  UNL     1       8.765  10.214  -1.124  1.00  0.00     0.705 A 
HETATM    5  N3  UNL     1       9.565  10.661  -2.029  1.00  0.00    -0.234 N 
ATOM      6  H31 UNL     1      10.444  11.115  -1.781  1.00  0.00     0.174 HD
ATOM      7  H32 UNL     1       9.353  10.579  -3.024  1.00  0.00     0.174 HD
HETATM    8  N4  UNL     1       9.049  10.323   0.209  1.00  0.00    -0.022 N 
ATOM      9  H4  UNL     1       9.920  10.770   0.496  1.00  0.00     0.203 HD
HETATM   10  C8  UNL     1       8.220   9.860   1.140  1.00  0.00     0.706 A 
HETATM   11  N6  UNL     1       7.076   9.272   0.772  1.00  0.00    -0.022 N 
ATOM     12  H6  UNL     1       6.443   8.918   1.491  1.00  0.00     0.203 HD
ENDROOT
BRANCH   1  13
HETATM   13  N1  UNL     1       5.644   8.568  -0.834  1.00  0.00    -0.225 N 
ATOM     14  H1  UNL     1       5.119   8.139  -0.072  1.00  0.00     0.177 HD
BRANCH  13  15
HETATM   15  C5  UNL     1       5.081   8.483  -2.153  1.00  0.00     0.138 C 
BRANCH  15  16
HETATM   16  C4  UNL     1       3.593   8.736  -2.062  1.00  0.00     0.020 C 
BRANCH  16  17
HETATM   17  C3  UNL     1       3.229  10.121  -2.554  1.00  0.00     0.001 C 
BRANCH  17  18
HETATM   18  C2  UNL     1       2.370   9.956  -3.777  1.00  0.00    -0.004 C 
HETATM   19  C1  UNL     1       3.107  10.199  -5.062  1.00  0.00     0.005 C 
ENDBRANCH  17  18
ENDBRANCH  16  17
ENDBRANCH  15  16
ENDBRANCH  13  15
ENDBRANCH   1  13
BRANCH  10  20
HETATM   20  N5  UNL     1       8.503   9.973   2.379  1.00  0.00    -0.229 N 
HETATM   21  C9  UNL     1       8.988  11.229   2.905  1.00  0.00     0.165 C 
ATOM     22  H5  UNL     1       8.388   9.172   3.001  1.00  0.00     0.177 HD
ENDBRANCH  10  20
TORSDOF 6
ENDMDL
MODEL 2
REMARK VINA RESULT: -6.432731106      1.868      3.097
REMARK  6 active torsions:
REMARK  status: ('A' for Active; 'I' for Inactive)
REMARK    1  A    between atoms: C2_2  and  C3_3 
REMARK    2  A    between atoms: C3_3  and  C4_4 
REMARK    3  A    between atoms: C4_4  and  C5_5 
REMARK    4  A    between atoms: C5_5  and  N1_6 
REMARK    5  A    between atoms: N1_6  and  C6_8 
REMARK    6  A    between atoms: C8_17  and  N5_18 
ROOT
HETATM    1  C6  UNL     1       6.030   9.701  -2.301  1.00  0.00     0.707 A 
HETATM    2  N2  UNL     1       5.910   9.060  -1.124  1.00  0.00    -0.022 N 
ATOM      3  H2  UNL     1       5.003   8.665  -0.878  1.00  0.00     0.203 HD
HETATM    4  C7  UNL     1       6.926   8.914  -0.254  1.00  0.00     0.705 A 
HETATM    5  N3  UNL     1       6.767   8.291   0.863  1.00  0.00    -0.234 N 
ATOM      6  H31 UNL     1       7.537   8.180   1.522  1.00  0.00     0.174 HD
ATOM      7  H32 UNL     1       5.869   7.886   1.130  1.00  0.00     0.174 HD
HETATM    8  N4  UNL     1       8.129   9.457  -0.611  1.00  0.00    -0.022 N 
ATOM      9  H4  UNL     1       8.922   9.368   0.023  1.00  0.00     0.203 HD
HETATM   10  C8  UNL     1       8.289  10.099  -1.765  1.00  0.00     0.706 A 
HETATM   11  N6  UNL     1       7.253  10.222  -2.603  1.00  0.00    -0.022 N 
ATOM     12  H6  UNL     1       7.382  10.715  -3.487  1.00  0.00     0.203 HD
ENDROOT
BRANCH   1  13
HETATM   13  N1  UNL     1       5.083   9.846  -3.129  1.00  0.00    -0.225 N 
ATOM     14  H1  UNL     1       4.137   9.906  -2.753  1.00  0.00     0.177 HD
BRANCH  13  15
HETATM   15  C5  UNL     1       5.234   9.932  -4.555  1.00  0.00     0.138 C 
BRANCH  15  16
HETATM   16  C4  UNL     1       4.022  10.634  -5.128  1.00  0.00     0.020 C 
BRANCH  16  17
HETATM   17  C3  UNL     1       3.250   9.736  -6.071  1.00  0.00     0.001 C 
BRANCH  17  18
HETATM   18  C2  UNL     1       2.229   8.993  -5.255  1.00  0.00    -0.004 C 
HETATM   19  C1  UNL     1       1.619   9.821  -4.162  1.00  0.00     0.005 C 
ENDBRANCH  17  18
ENDBRANCH  16  17
ENDBRANCH  15  16
ENDBRANCH  13  15
ENDBRANCH   1  13
BRANCH  10  20
HETATM   20  N5  UNL     1       9.420  10.599  -2.081  1.00  0.00    -0.229 N 
HETATM   21  C9  UNL     1      10.391  10.911  -1.055  1.00  0.00     0.165 C 
ATOM     22  H5  UNL     1       9.640  10.779  -3.061  1.00  0.00     0.177 HD
ENDBRANCH  10  20
TORSDOF 6
ENDMDL
MODEL 3
REMARK VINA RESULT: -6.383715700      0.602      2.431
REMARK  6 active torsions:
REMARK  status: ('A' for Active; 'I' for Inactive)
REMARK    1  A    between atoms: C2_2  and  C3_3 
REMARK    2  A    between atoms: C3_3  and  C4_4 
REMARK    3  A    between atoms: C4_4  and  C5_5 
REMARK    4  A    between atoms: C5_5  and  N1_6 
REMARK    5  A    between atoms: N1_6  and  C6_8 
REMARK    6  A    between atoms: C8_17  and  N5_18 
ROOT
HETATM    1  C6  UNL     1       6.736   9.110  -0.456  1.00  0.00     0.707 A 
HETATM    2  N2  UNL     1       7.087   9.293   0.831  1.00  0.00    -0.022 N 
ATOM      3  H2  UNL     1       6.460   8.948   1.557  1.00  0.00     0.203 HD
HETATM    4  C7  UNL     1       8.224   9.907   1.207  1.00  0.00     0.705 A 
HETATM    5  N3  UNL     1       8.521  10.059   2.451  1.00  0.00    -0.234 N 
ATOM      6  H31 UNL     1       9.383  10.524   2.737  1.00  0.00     0.174 HD
ATOM      7  H32 UNL     1       7.911   9.722   3.196  1.00  0.00     0.174 HD
HETATM    8  N4  UNL     1       9.041  10.359   0.209  1.00  0.00    -0.022 N 
ATOM      9  H4  UNL     1       9.911  10.831   0.455  1.00  0.00     0.203 HD
HETATM   10  C8  UNL     1       8.730  10.199  -1.074  1.00  0.00     0.706 A 
HETATM   11  N6  UNL     1       7.591   9.582  -1.406  1.00  0.00    -0.022 N 
ATOM     12  H6  UNL     1       7.357   9.463  -2.392  1.00  0.00     0.203 HD
ENDROOT
BRANCH   1  13
HETATM   13  N1  UNL     1       5.670   8.534  -0.824  1.00  0.00    -0.225 N 
ATOM     14  H1  UNL     1       5.136   8.036  -0.112  1.00  0.00     0.177 HD
BRANCH  13  15
HETATM   15  C5  UNL     1       5.152   8.524  -2.164  1.00  0.00     0.138 C 
BRANCH  15  16
HETATM   16  C4  UNL     1       3.649   8.677  -2.103  1.00  0.00     0.020 C 
BRANCH  16  17
HETATM   17  C3  UNL     1       3.208  10.061  -2.530  1.00  0.00     0.001 C 
BRANCH  17  18
HETATM   18  C2  UNL     1       2.324   9.903  -3.736  1.00  0.00    -0.004 C 
HETATM   19  C1  UNL     1       3.024  10.193  -5.032  1.00  0.00     0.005 C 
ENDBRANCH  17  18
ENDBRANCH  16  17
ENDBRANCH  15  16
ENDBRANCH  13  15
ENDBRANCH   1  13
BRANCH  10  20
HETATM   20  N5  UNL     1       9.507  10.628  -1.991  1.00  0.00    -0.229 N 
HETATM   21  C9  UNL     1      10.884  10.949  -1.688  1.00  0.00     0.165 C 
ATOM     22  H5  UNL     1       9.155  10.746  -2.941  1.00  0.00     0.177 HD
ENDBRANCH  10  20
TORSDOF 6
ENDMDL
MODEL 4
REMARK VINA RESULT: -6.336228536      0.889      1.063
REMARK  6 active torsions:
REMARK  status: ('A' for Active; 'I' for Inactive)
REMARK    1  A    between atoms: C2_2  and  C3_3 
REMARK    2  A    between atoms: C3_3  and  C4_4 
REMARK    3  A    between atoms: C4_4  and  C5_5 
REMARK    4  A    between atoms: C5_5  and  N1_6 
REMARK    5  A    between atoms: N1_6  and  C6_8 
REMARK    6  A    between atoms: C8_17  and  N5_18 
ROOT
HETATM    1  C6  UNL     1       6.463   8.872  -1.565  1.00  0.00     0.707 A 
HETATM    2  N2  UNL     1       7.482   9.419  -2.252  1.00  0.00    -0.022 N 
ATOM      3  H2  UNL     1       7.480   9.338  -3.269  1.00  0.00     0.203 HD
HETATM    4  C7  UNL     1       8.505  10.068  -1.666  1.00  0.00     0.705 A 
HETATM    5  N3  UNL     1       9.461  10.579  -2.363  1.00  0.00    -0.234 N 
ATOM      6  H31 UNL     1      10.236  11.071  -1.918  1.00  0.00     0.174 HD
ATOM      7  H32 UNL     1       9.480  10.512  -3.381  1.00  0.00     0.174 HD
HETATM    8  N4  UNL     1       8.479  10.158  -0.302  1.00  0.00    -0.022 N 
ATOM      9  H4  UNL     1       9.238  10.641   0.179  1.00  0.00     0.203 HD
HETATM   10  C8  UNL     1       7.490   9.630   0.413  1.00  0.00     0.706 A 
HETATM   11  N6  UNL     1       6.491   8.993  -0.208  1.00  0.00    -0.022 N 
ATOM     12  H6  UNL     1       5.735   8.590   0.345  1.00  0.00     0.203 HD
ENDROOT
BRANCH   1  13
HETATM   13  N1  UNL     1       5.494   8.259  -2.104  1.00  0.00    -0.225 N 
ATOM     14  H1  UNL     1       5.716   7.449  -2.684  1.00  0.00     0.177 HD
BRANCH  13  15
HETATM   15  C5  UNL     1       4.108   8.612  -1.964  1.00  0.00     0.138 C 
BRANCH  15  16
HETATM   16  C4  UNL     1       3.848   9.874  -2.757  1.00  0.00     0.020 C 
BRANCH  16  17
HETATM   17  C3  UNL     1       2.508   9.826  -3.460  1.00  0.00     0.001 C 
BRANCH  17  18
HETATM   18  C2  UNL     1       2.737  10.207  -4.896  1.00  0.00    -0.004 C 
HETATM   19  C1  UNL     1       4.168  10.542  -5.205  1.00  0.00     0.005 C 
ENDBRANCH  17  18
ENDBRANCH  16  17
ENDBRANCH  15  16
ENDBRANCH  13  15
ENDBRANCH   1  13
BRANCH  10  20
HETATM   20  N5  UNL     1       7.484   9.725   1.686  1.00  0.00    -0.229 N 
HETATM   21  C9  UNL     1       8.561  10.404   2.371  1.00  0.00     0.165 C 
ATOM     22  H5  UNL     1       6.716   9.319   2.222  1.00  0.00     0.177 HD
ENDBRANCH  10  20
TORSDOF 6
ENDMDL
MODEL 5
REMARK VINA RESULT: -6.154577088      2.033      2.820
REMARK  6 active torsions:
REMARK  status: ('A' for Active; 'I' for Inactive)
REMARK    1  A    between atoms: C2_2  and  C3_3 
REMARK    2  A    between atoms: C3_3  and  C4_4 
REMARK    3  A    between atoms: C4_4  and  C5_5 
REMARK    4  A    between atoms: C5_5  and  N1_6 
REMARK    5  A    between atoms: N1_6  and  C6_8 
REMARK    6  A    between atoms: C8_17  and  N5_18 
ROOT
HETATM    1  C6  UNL     1       6.649  10.742  -1.670  1.00  0.00     0.707 A 
HETATM    2  N2  UNL     1       6.688   9.556  -1.036  1.00  0.00    -0.022 N 
ATOM      3  H2  UNL     1       6.456   8.716  -1.567  1.00  0.00     0.203 HD
HETATM    4  C7  UNL     1       7.016   9.420   0.262  1.00  0.00     0.705 A 
HETATM    5  N3  UNL     1       7.041   8.263   0.828  1.00  0.00    -0.234 N 
ATOM      6  H31 UNL     1       7.291   8.161   1.812  1.00  0.00     0.174 HD
ATOM      7  H32 UNL     1       6.815   7.409   0.318  1.00  0.00     0.174 HD
HETATM    8  N4  UNL     1       7.319  10.565   0.945  1.00  0.00    -0.022 N 
ATOM      9  H4  UNL     1       7.571  10.503   1.931  1.00  0.00     0.203 HD
HETATM   10  C8  UNL     1       7.292  11.757   0.356  1.00  0.00     0.706 A 
HETATM   11  N6  UNL     1       6.961  11.848  -0.937  1.00  0.00    -0.022 N 
ATOM     12  H6  UNL     1       6.941  12.766  -1.384  1.00  0.00     0.203 HD
ENDROOT
BRANCH   1  13
HETATM   13  N1  UNL     1       6.342  10.884  -2.890  1.00  0.00    -0.225 N 
ATOM     14  H1  UNL     1       6.774  11.658  -3.395  1.00  0.00     0.177 HD
BRANCH  13  15
HETATM   15  C5  UNL     1       5.435  10.043  -3.621  1.00  0.00     0.138 C 
BRANCH  15  16
HETATM   16  C4  UNL     1       5.131  10.700  -4.949  1.00  0.00     0.020 C 
BRANCH  16  17
HETATM   17  C3  UNL     1       3.819  10.212  -5.527  1.00  0.00     0.001 C 
BRANCH  17  18
HETATM   18  C2  UNL     1       2.748  10.479  -4.506  1.00  0.00    -0.004 C 
HETATM   19  C1  UNL     1       1.722   9.386  -4.416  1.00  0.00     0.005 C 
ENDBRANCH  17  18
ENDBRANCH  16  17
ENDBRANCH  15  16
ENDBRANCH  13  15
ENDBRANCH   1  13
BRANCH  10  20
HETATM   20  N5  UNL     1       7.578  12.814   1.011  1.00  0.00    -0.229 N 
HETATM   21  C9  UNL     1       7.445  14.114   0.392  1.00  0.00     0.165 C 
ATOM     22  H5  UNL     1       7.902  12.741   1.976  1.00  0.00     0.177 HD
ENDBRANCH  10  20
TORSDOF 6
ENDMDL
