MODEL 1
REMARK VINA RESULT: -6.125614160      0.000      0.000
REMARK  4 active torsions:
REMARK  status: ('A' for Active; 'I' for Inactive)
REMARK    1  A    between atoms: C2_2  and  C3_3 
REMARK    2  A    between atoms: C3_3  and  C4_4 
REMARK    3  A    between atoms: C4_4  and  C5_5 
REMARK    4  A    between atoms: C5_5  and  C6_6 
ROOT
HETATM    1  C6  UNL     1       6.499  10.727  -1.370  1.00  0.00     0.056 C 
HETATM    2  C7  UNL     1       7.615   9.724  -1.365  1.00  0.00     0.040 C 
HETATM    3  C8  UNL     1       7.225   8.398  -0.748  1.00  0.00     0.233 C 
HETATM    4  N1  UNL     1       7.131   8.562   0.669  1.00  0.00    -0.074 N 
ATOM      5  H11 UNL     1       6.625   7.795   1.111  1.00  0.00     0.277 HD
ATOM      6  H12 UNL     1       6.500   9.322   0.926  1.00  0.00     0.277 HD
HETATM    7  C9  UNL     1       8.437   8.735   1.221  1.00  0.00     0.253 C 
HETATM    8  C10 UNL     1       8.497  10.058   1.938  1.00  0.00     0.166 C 
HETATM    9  N2  UNL     1       7.306  10.794   1.673  1.00  0.00    -0.334 N 
ATOM     10  H2  UNL     1       6.422  10.592   2.140  1.00  0.00     0.180 HD
HETATM   11  N3  UNL     1       7.436  11.812   0.727  1.00  0.00    -0.293 N 
ATOM     12  H3  UNL     1       8.095  12.561   0.943  1.00  0.00     0.188 HD
HETATM   13  C11 UNL     1       6.746  11.903  -0.495  1.00  0.00     0.095 C 
HETATM   14  N4  UNL     1       6.271  13.043  -0.941  1.00  0.00    -0.383 N 
ATOM     15  H4  UNL     1       5.775  13.062  -1.832  1.00  0.00     0.160 HD
HETATM   16  C12 UNL     1       6.435  14.277  -0.193  1.00  0.00     0.147 C 
ENDROOT
BRANCH   1  17
HETATM   17  C5  UNL     1       6.054  11.106  -2.756  1.00  0.00     0.012 C 
BRANCH  17  18
HETATM   18  C4  UNL     1       5.064  10.179  -3.359  1.00  0.00     0.001 C 
BRANCH  18  19
HETATM   19  C3  UNL     1       4.984  10.430  -4.845  1.00  0.00    -0.000 C 
BRANCH  19  20
HETATM   20  C2  UNL     1       3.590  10.288  -5.398  1.00  0.00    -0.005 C 
HETATM   21  C1  UNL     1       2.571  10.403  -4.259  1.00  0.00     0.005 C 
ENDBRANCH  19  20
ENDBRANCH  18  19
ENDBRANCH  17  18
ENDBRANCH   1  17
TORSDOF 4
ENDMDL
MODEL 2
REMARK VINA RESULT: -5.949372541      0.787      1.019
REMARK  4 active torsions:
REMARK  status: ('A' for Active; 'I' for Inactive)
REMARK    1  A    between atoms: C2_2  and  C3_3 
REMARK    2  A    between atoms: C3_3  and  C4_4 
REMARK    3  A    between atoms: C4_4  and  C5_5 
REMARK    4  A    between atoms: C5_5  and  C6_6 
ROOT
HETATM    1  C6  UNL     1       6.572  10.757  -1.323  1.00  0.00     0.056 C 
HETATM    2  C7  UNL     1       7.694   9.762  -1.292  1.00  0.00     0.040 C 
HETATM    3  C8  UNL     1       7.298   8.433  -0.684  1.00  0.00     0.233 C 
HETATM    4  N1  UNL     1       7.170   8.596   0.730  1.00  0.00    -0.074 N 
ATOM      5  H11 UNL     1       6.659   7.826   1.161  1.00  0.00     0.277 HD
ATOM      6  H12 UNL     1       6.528   9.352   0.973  1.00  0.00     0.277 HD
HETATM    7  C9  UNL     1       8.461   8.778   1.313  1.00  0.00     0.253 C 
HETATM    8  C10 UNL     1       8.495  10.102   2.031  1.00  0.00     0.166 C 
HETATM    9  N2  UNL     1       7.307  10.830   1.738  1.00  0.00    -0.334 N 
ATOM     10  H2  UNL     1       6.413  10.621   2.184  1.00  0.00     0.180 HD
HETATM   11  N3  UNL     1       7.452  11.848   0.796  1.00  0.00    -0.293 N 
ATOM     12  H3  UNL     1       8.100  12.601   1.027  1.00  0.00     0.188 HD
HETATM   13  C11 UNL     1       6.790  11.935  -0.442  1.00  0.00     0.095 C 
HETATM   14  N4  UNL     1       6.318  13.072  -0.899  1.00  0.00    -0.383 N 
ATOM     15  H4  UNL     1       5.843  13.087  -1.802  1.00  0.00     0.160 HD
HETATM   16  C12 UNL     1       6.456  14.307  -0.148  1.00  0.00     0.147 C 
ENDROOT
BRANCH   1  17
HETATM   17  C5  UNL     1       6.157  11.133  -2.719  1.00  0.00     0.012 C 
BRANCH  17  18
HETATM   18  C4  UNL     1       5.790   9.983  -3.582  1.00  0.00     0.001 C 
BRANCH  18  19
HETATM   19  C3  UNL     1       4.366  10.145  -4.053  1.00  0.00    -0.000 C 
BRANCH  19  20
HETATM   20  C2  UNL     1       3.348   9.842  -2.985  1.00  0.00    -0.005 C 
HETATM   21  C1  UNL     1       3.717   8.532  -2.280  1.00  0.00     0.005 C 
ENDBRANCH  19  20
ENDBRANCH  18  19
ENDBRANCH  17  18
ENDBRANCH   1  17
TORSDOF 4
ENDMDL
MODEL 3
REMARK VINA RESULT: -5.857152647      1.847      5.341
REMARK  4 active torsions:
REMARK  status: ('A' for Active; 'I' for Inactive)
REMARK    1  A    between atoms: C2_2  and  C3_3 
REMARK    2  A    between atoms: C3_3  and  C4_4 
REMARK    3  A    between atoms: C4_4  and  C5_5 
REMARK    4  A    between atoms: C5_5  and  C6_6 
ROOT
HETATM    1  C6  UNL     1       8.059  10.440  -0.539  1.00  0.00     0.056 C 
HETATM    2  C7  UNL     1       7.195   9.217  -0.439  1.00  0.00     0.040 C 
HETATM    3  C8  UNL     1       7.335   8.288  -1.626  1.00  0.00     0.233 C 
HETATM    4  N1  UNL     1       6.675   8.877  -2.749  1.00  0.00    -0.074 N 
ATOM      5  H11 UNL     1       6.950   8.441  -3.628  1.00  0.00     0.277 HD
ATOM      6  H12 UNL     1       7.011   9.820  -2.941  1.00  0.00     0.277 HD
HETATM    7  C9  UNL     1       5.261   8.840  -2.549  1.00  0.00     0.253 C 
HETATM    8  C10 UNL     1       4.720  10.245  -2.588  1.00  0.00     0.166 C 
HETATM    9  N2  UNL     1       5.805  11.167  -2.614  1.00  0.00    -0.334 N 
ATOM     10  H2  UNL     1       6.340  11.360  -3.462  1.00  0.00     0.180 HD
HETATM   11  N3  UNL     1       6.085  11.789  -1.397  1.00  0.00    -0.293 N 
ATOM     12  H3  UNL     1       5.343  12.359  -0.989  1.00  0.00     0.188 HD
HETATM   13  C11 UNL     1       7.292  11.706  -0.680  1.00  0.00     0.095 C 
HETATM   14  N4  UNL     1       7.821  12.751  -0.087  1.00  0.00    -0.383 N 
ATOM     15  H4  UNL     1       8.699  12.644   0.422  1.00  0.00     0.160 HD
HETATM   16  C12 UNL     1       7.184  14.055  -0.139  1.00  0.00     0.147 C 
ENDROOT
BRANCH   1  17
HETATM   17  C5  UNL     1       9.114  10.506   0.531  1.00  0.00     0.012 C 
BRANCH  17  18
HETATM   18  C4  UNL     1       8.754   9.811   1.793  1.00  0.00     0.001 C 
BRANCH  18  19
HETATM   19  C3  UNL     1       8.738  10.807   2.925  1.00  0.00    -0.000 C 
BRANCH  19  20
HETATM   20  C2  UNL     1       9.767  11.896   2.775  1.00  0.00    -0.005 C 
HETATM   21  C1  UNL     1       9.139  13.249   3.129  1.00  0.00     0.005 C 
ENDBRANCH  19  20
ENDBRANCH  18  19
ENDBRANCH  17  18
ENDBRANCH   1  17
TORSDOF 4
ENDMDL
MODEL 4
REMARK VINA RESULT: -5.553136004      2.366      3.426
REMARK  4 active torsions:
REMARK  status: ('A' for Active; 'I' for Inactive)
REMARK    1  A    between atoms: C2_2  and  C3_3 
REMARK    2  A    between atoms: C3_3  and  C4_4 
REMARK    3  A    between atoms: C4_4  and  C5_5 
REMARK    4  A    between atoms: C5_5  and  C6_6 
ROOT
HETATM    1  C6  UNL     1       8.316  10.302  -0.644  1.00  0.00     0.056 C 
HETATM    2  C7  UNL     1       8.264   9.671   0.716  1.00  0.00     0.040 C 
HETATM    3  C8  UNL     1       7.445  10.465   1.712  1.00  0.00     0.233 C 
HETATM    4  N1  UNL     1       8.184  11.630   2.087  1.00  0.00    -0.074 N 
ATOM      5  H11 UNL     1       7.595  12.329   2.540  1.00  0.00     0.277 HD
ATOM      6  H12 UNL     1       8.469  12.181   1.278  1.00  0.00     0.277 HD
HETATM    7  C9  UNL     1       9.295  11.253   2.901  1.00  0.00     0.253 C 
HETATM    8  C10 UNL     1      10.568  11.712   2.241  1.00  0.00     0.166 C 
HETATM    9  N2  UNL     1      10.274  12.197   0.934  1.00  0.00    -0.334 N 
ATOM     10  H2  UNL     1       9.868  13.119   0.771  1.00  0.00     0.180 HD
HETATM   11  N3  UNL     1      10.581  11.320  -0.107  1.00  0.00    -0.293 N 
ATOM     12  H3  UNL     1      11.559  11.047  -0.207  1.00  0.00     0.188 HD
HETATM   13  C11 UNL     1       9.670  10.778  -1.032  1.00  0.00     0.095 C 
HETATM   14  N4  UNL     1       9.962  10.661  -2.307  1.00  0.00    -0.383 N 
ATOM     15  H4  UNL     1       9.270  10.263  -2.942  1.00  0.00     0.160 HD
HETATM   16  C12 UNL     1      11.248  11.085  -2.832  1.00  0.00     0.147 C 
ENDROOT
BRANCH   1  17
HETATM   17  C5  UNL     1       7.659   9.465  -1.707  1.00  0.00     0.012 C 
BRANCH  17  18
HETATM   18  C4  UNL     1       6.547   8.612  -1.218  1.00  0.00     0.001 C 
BRANCH  18  19
HETATM   19  C3  UNL     1       5.600   8.323  -2.356  1.00  0.00    -0.000 C 
BRANCH  19  20
HETATM   20  C2  UNL     1       4.161   8.614  -2.021  1.00  0.00    -0.005 C 
HETATM   21  C1  UNL     1       3.755   9.965  -2.623  1.00  0.00     0.005 C 
ENDBRANCH  19  20
ENDBRANCH  18  19
ENDBRANCH  17  18
ENDBRANCH   1  17
TORSDOF 4
ENDMDL
MODEL 5
REMARK VINA RESULT: -5.430446885      1.946      2.830
REMARK  4 active torsions:
REMARK  status: ('A' for Active; 'I' for Inactive)
REMARK    1  A    between atoms: C2_2  and  C3_3 
REMARK    2  A    between atoms: C3_3  and  C4_4 
REMARK    3  A    between atoms: C4_4  and  C5_5 
REMARK    4  A    between atoms: C5_5  and  C6_6 
ROOT
HETATM    1  C6  UNL     1       5.595   9.044  -1.841  1.00  0.00     0.056 C 
HETATM    2  C7  UNL     1       6.634   8.224  -1.135  1.00  0.00     0.040 C 
HETATM    3  C8  UNL     1       6.633   8.423   0.366  1.00  0.00     0.233 C 
HETATM    4  N1  UNL     1       7.195   9.705   0.658  1.00  0.00    -0.074 N 
ATOM      5  H11 UNL     1       6.986  10.009   1.608  1.00  0.00     0.277 HD
ATOM      6  H12 UNL     1       6.719  10.456   0.156  1.00  0.00     0.277 HD
HETATM    7  C9  UNL     1       8.599   9.687   0.394  1.00  0.00     0.253 C 
HETATM    8  C10 UNL     1       8.920  10.738  -0.636  1.00  0.00     0.166 C 
HETATM    9  N2  UNL     1       7.708  11.275  -1.157  1.00  0.00    -0.334 N 
ATOM     10  H2  UNL     1       7.149  11.960  -0.647  1.00  0.00     0.180 HD
HETATM   11  N3  UNL     1       7.341  10.798  -2.416  1.00  0.00    -0.293 N 
ATOM     12  H3  UNL     1       7.989  10.974  -3.183  1.00  0.00     0.188 HD
HETATM   13  C11 UNL     1       6.162  10.096  -2.725  1.00  0.00     0.095 C 
HETATM   14  N4  UNL     1       5.482  10.331  -3.824  1.00  0.00    -0.383 N 
ATOM     15  H4  UNL     1       4.632   9.799  -4.008  1.00  0.00     0.160 HD
HETATM   16  C12 UNL     1       5.915  11.333  -4.783  1.00  0.00     0.147 C 
ENDROOT
BRANCH   1  17
HETATM   17  C5  UNL     1       4.545   8.207  -2.519  1.00  0.00     0.012 C 
BRANCH  17  18
HETATM   18  C4  UNL     1       3.172   8.768  -2.449  1.00  0.00     0.001 C 
BRANCH  18  19
HETATM   19  C3  UNL     1       2.453   8.496  -3.747  1.00  0.00    -0.000 C 
BRANCH  19  20
HETATM   20  C2  UNL     1       2.085   9.748  -4.498  1.00  0.00    -0.005 C 
HETATM   21  C1  UNL     1       2.712   9.714  -5.896  1.00  0.00     0.005 C 
ENDBRANCH  19  20
ENDBRANCH  18  19
ENDBRANCH  17  18
ENDBRANCH   1  17
TORSDOF 4
ENDMDL
