MODEL 1
REMARK VINA RESULT: -6.161618158      0.000      0.000
REMARK  12 active torsions:
REMARK  status: ('A' for Active; 'I' for Inactive)
REMARK    1  A    between atoms: O1_1  and  C1_3 
REMARK    2  A    between atoms: C1_3  and  C2_4 
REMARK    3  A    between atoms: C2_4  and  N1_5 
REMARK    4  A    between atoms: N1_5  and  C3_7 
REMARK    5  A    between atoms: C4_10  and  N3_11 
REMARK    6  A    between atoms: N3_11  and  C5_13 
REMARK    7  A    between atoms: C5_13  and  C6_14 
REMARK    8  A    between atoms: N7_25  and  C12_26 
REMARK    9  A    between atoms: C12_26  and  C13_27 
REMARK   10  A    between atoms: C13_27  and  O2_28 
REMARK   11  A    between atoms: C13_27  and  C14_30 
REMARK   12  A    between atoms: C14_30  and  O3_31 
ROOT
HETATM    1  C3  UNL     1      -9.144  71.753  23.419  1.00  0.00     0.681 A 
HETATM    2  N2  UNL     1      -9.751  71.705  24.616  1.00  0.00    -0.174 N 
ATOM      3  H2  UNL     1      -9.473  72.364  25.343  1.00  0.00     0.186 HD
HETATM    4  C4  UNL     1     -10.733  70.792  24.879  1.00  0.00     0.152 A 
HETATM    5  C11 UNL     1     -11.091  69.917  23.890  1.00  0.00     0.137 A 
HETATM    6  N5  UNL     1     -11.984  68.944  23.851  1.00  0.00    -0.277 N 
ATOM      7  H5  UNL     1     -12.592  68.682  24.626  1.00  0.00     0.184 HD
HETATM    8  N6  UNL     1     -11.980  68.351  22.656  1.00  0.00    -0.018 NA
HETATM    9  N7  UNL     1     -11.059  68.967  21.924  1.00  0.00    -0.255 N 
HETATM   10  C15 UNL     1     -10.487  69.946  22.663  1.00  0.00     0.168 A 
HETATM   11  N8  UNL     1      -9.528  70.868  22.466  1.00  0.00    -0.173 N 
ATOM     12  H8  UNL     1      -9.068  70.903  21.557  1.00  0.00     0.186 HD
ENDROOT
BRANCH   4  13
HETATM   13  N3  UNL     1     -11.253  70.805  26.015  1.00  0.00    -0.349 N 
ATOM     14  H3  UNL     1     -12.263  70.668  25.998  1.00  0.00     0.167 HD
BRANCH  13  15
HETATM   15  C5  UNL     1     -10.737  70.969  27.312  1.00  0.00     0.102 C 
BRANCH  15  16
HETATM   16  C6  UNL     1      -9.942  69.826  27.820  1.00  0.00    -0.005 A 
HETATM   17  C7  UNL     1     -10.384  68.595  27.919  1.00  0.00     0.015 A 
HETATM   18  C8  UNL     1      -9.557  67.496  28.429  1.00  0.00     0.018 A 
HETATM   19  C9  UNL     1      -8.316  67.801  28.794  1.00  0.00     0.087 A 
HETATM   20  N4  UNL     1      -7.805  69.124  28.698  1.00  0.00    -0.374 N 
HETATM   21  C10 UNL     1      -8.567  70.083  28.239  1.00  0.00     0.100 A 
ATOM     22  H4  UNL     1      -6.847  69.325  28.986  1.00  0.00     0.164 HD
ENDBRANCH  15  16
ENDBRANCH  13  15
ENDBRANCH   4  13
BRANCH   1  23
HETATM   23  N1  UNL     1      -8.219  72.584  23.113  1.00  0.00    -0.224 N 
ATOM     24  H1  UNL     1      -8.181  72.902  22.145  1.00  0.00     0.177 HD
BRANCH  23  25
HETATM   25  C2  UNL     1      -7.236  73.104  24.012  1.00  0.00     0.164 C 
BRANCH  25  26
HETATM   26  C1  UNL     1      -5.975  73.370  23.176  1.00  0.00     0.184 C 
BRANCH  26  27
HETATM   27  O1  UNL     1      -5.682  72.202  22.489  1.00  0.00    -0.399 OA
ATOM     28  H1  UNL     1      -5.378  72.452  21.625  1.00  0.00     0.209 HD
ENDBRANCH  26  27
ENDBRANCH  25  26
ENDBRANCH  23  25
ENDBRANCH   1  23
BRANCH   9  29
HETATM   29  C12 UNL     1     -10.728  68.643  20.548  1.00  0.00     0.182 C 
BRANCH  29  30
HETATM   30  C13 UNL     1     -11.987  68.148  19.881  1.00  0.00     0.161 C 
BRANCH  30  31
HETATM   31  O2  UNL     1     -13.013  69.059  20.086  1.00  0.00    -0.392 OA
ATOM     32  H2  UNL     1     -13.372  69.329  19.249  1.00  0.00     0.210 HD
ENDBRANCH  30  31
BRANCH  30  33
HETATM   33  C14 UNL     1     -11.724  68.030  18.394  1.00  0.00     0.197 C 
BRANCH  33  34
HETATM   34  O3  UNL     1     -12.141  66.770  17.979  1.00  0.00    -0.398 OA
ATOM     35  H3  UNL     1     -13.037  66.841  17.672  1.00  0.00     0.209 HD
ENDBRANCH  33  34
ENDBRANCH  30  33
ENDBRANCH  29  30
ENDBRANCH   9  29
TORSDOF 12
ENDMDL
MODEL 2
REMARK VINA RESULT: -6.144523806      2.836      6.624
REMARK  12 active torsions:
REMARK  status: ('A' for Active; 'I' for Inactive)
REMARK    1  A    between atoms: O1_1  and  C1_3 
REMARK    2  A    between atoms: C1_3  and  C2_4 
REMARK    3  A    between atoms: C2_4  and  N1_5 
REMARK    4  A    between atoms: N1_5  and  C3_7 
REMARK    5  A    between atoms: C4_10  and  N3_11 
REMARK    6  A    between atoms: N3_11  and  C5_13 
REMARK    7  A    between atoms: C5_13  and  C6_14 
REMARK    8  A    between atoms: N7_25  and  C12_26 
REMARK    9  A    between atoms: C12_26  and  C13_27 
REMARK   10  A    between atoms: C13_27  and  O2_28 
REMARK   11  A    between atoms: C13_27  and  C14_30 
REMARK   12  A    between atoms: C14_30  and  O3_31 
ROOT
HETATM    1  C3  UNL     1      -8.515  72.773  24.253  1.00  0.00     0.681 A 
HETATM    2  N2  UNL     1      -9.024  72.281  23.113  1.00  0.00    -0.174 N 
ATOM      3  H2  UNL     1      -8.816  72.748  22.230  1.00  0.00     0.186 HD
HETATM    4  C4  UNL     1      -9.817  71.168  23.110  1.00  0.00     0.152 A 
HETATM    5  C11 UNL     1     -10.084  70.555  24.304  1.00  0.00     0.137 A 
HETATM    6  N5  UNL     1     -10.802  69.489  24.610  1.00  0.00    -0.277 N 
ATOM      7  H5  UNL     1     -11.307  68.915  23.936  1.00  0.00     0.184 HD
HETATM    8  N6  UNL     1     -10.775  69.267  25.925  1.00  0.00    -0.018 NA
HETATM    9  N7  UNL     1     -10.021  70.219  26.461  1.00  0.00    -0.255 N 
HETATM   10  C15 UNL     1      -9.576  71.038  25.479  1.00  0.00     0.168 A 
HETATM   11  N8  UNL     1      -8.804  72.136  25.416  1.00  0.00    -0.173 N 
ATOM     12  H8  UNL     1      -8.418  72.509  26.282  1.00  0.00     0.186 HD
ENDROOT
BRANCH   4  13
HETATM   13  N3  UNL     1     -10.257  70.767  22.011  1.00  0.00    -0.349 N 
ATOM     14  H3  UNL     1      -9.553  70.299  21.441  1.00  0.00     0.167 HD
BRANCH  13  15
HETATM   15  C5  UNL     1     -11.520  70.826  21.397  1.00  0.00     0.102 C 
BRANCH  15  16
HETATM   16  C6  UNL     1     -11.777  69.767  20.393  1.00  0.00    -0.005 A 
HETATM   17  C7  UNL     1     -12.088  69.986  19.137  1.00  0.00     0.015 A 
HETATM   18  C8  UNL     1     -12.335  68.902  18.182  1.00  0.00     0.018 A 
HETATM   19  C9  UNL     1     -12.229  67.662  18.644  1.00  0.00     0.087 A 
HETATM   20  N4  UNL     1     -11.893  67.387  19.999  1.00  0.00    -0.374 N 
HETATM   21  C10 UNL     1     -11.679  68.376  20.827  1.00  0.00     0.100 A 
ATOM     22  H4  UNL     1     -11.820  66.423  20.323  1.00  0.00     0.164 HD
ENDBRANCH  15  16
ENDBRANCH  13  15
ENDBRANCH   4  13
BRANCH   1  23
HETATM   23  N1  UNL     1      -7.768  73.810  24.320  1.00  0.00    -0.224 N 
ATOM     24  H1  UNL     1      -7.863  74.400  25.146  1.00  0.00     0.177 HD
BRANCH  23  25
HETATM   25  C2  UNL     1      -6.811  74.212  23.335  1.00  0.00     0.164 C 
BRANCH  25  26
HETATM   26  C1  UNL     1      -5.606  73.271  23.484  1.00  0.00     0.184 C 
BRANCH  26  27
HETATM   27  O1  UNL     1      -5.704  72.315  22.485  1.00  0.00    -0.399 OA
ATOM     28  H1  UNL     1      -5.203  71.559  22.768  1.00  0.00     0.209 HD
ENDBRANCH  26  27
ENDBRANCH  25  26
ENDBRANCH  23  25
ENDBRANCH   1  23
BRANCH   9  29
HETATM   29  C12 UNL     1      -9.718  70.353  27.875  1.00  0.00     0.182 C 
BRANCH  29  30
HETATM   30  C13 UNL     1      -8.419  69.632  28.132  1.00  0.00     0.161 C 
BRANCH  30  31
HETATM   31  O2  UNL     1      -7.610  70.407  28.952  1.00  0.00    -0.392 OA
ATOM     32  H2  UNL     1      -7.548  70.005  29.811  1.00  0.00     0.210 HD
ENDBRANCH  30  31
BRANCH  30  33
HETATM   33  C14 UNL     1      -8.728  68.328  28.838  1.00  0.00     0.197 C 
BRANCH  33  34
HETATM   34  O3  UNL     1      -9.057  67.382  27.874  1.00  0.00    -0.398 OA
ATOM     35  H3  UNL     1      -8.290  66.847  27.711  1.00  0.00     0.209 HD
ENDBRANCH  33  34
ENDBRANCH  30  33
ENDBRANCH  29  30
ENDBRANCH   9  29
TORSDOF 12
ENDMDL
MODEL 3
REMARK VINA RESULT: -6.143065500      3.748      5.076
REMARK  12 active torsions:
REMARK  status: ('A' for Active; 'I' for Inactive)
REMARK    1  A    between atoms: O1_1  and  C1_3 
REMARK    2  A    between atoms: C1_3  and  C2_4 
REMARK    3  A    between atoms: C2_4  and  N1_5 
REMARK    4  A    between atoms: N1_5  and  C3_7 
REMARK    5  A    between atoms: C4_10  and  N3_11 
REMARK    6  A    between atoms: N3_11  and  C5_13 
REMARK    7  A    between atoms: C5_13  and  C6_14 
REMARK    8  A    between atoms: N7_25  and  C12_26 
REMARK    9  A    between atoms: C12_26  and  C13_27 
REMARK   10  A    between atoms: C13_27  and  O2_28 
REMARK   11  A    between atoms: C13_27  and  C14_30 
REMARK   12  A    between atoms: C14_30  and  O3_31 
ROOT
HETATM    1  C3  UNL     1     -12.483  71.610  20.818  1.00  0.00     0.681 A 
HETATM    2  N2  UNL     1     -11.467  71.939  21.632  1.00  0.00    -0.174 N 
ATOM      3  H2  UNL     1     -11.341  72.913  21.905  1.00  0.00     0.186 HD
HETATM    4  C4  UNL     1     -10.599  70.994  22.103  1.00  0.00     0.152 A 
HETATM    5  C11 UNL     1     -10.785  69.692  21.726  1.00  0.00     0.137 A 
HETATM    6  N5  UNL     1     -10.122  68.585  22.011  1.00  0.00    -0.277 N 
ATOM      7  H5  UNL     1      -9.299  68.539  22.611  1.00  0.00     0.184 HD
HETATM    8  N6  UNL     1     -10.679  67.536  21.405  1.00  0.00    -0.018 NA
HETATM    9  N7  UNL     1     -11.719  67.994  20.719  1.00  0.00    -0.255 N 
HETATM   10  C15 UNL     1     -11.813  69.333  20.897  1.00  0.00     0.168 A 
HETATM   11  N8  UNL     1     -12.632  70.308  20.468  1.00  0.00    -0.173 N 
ATOM     12  H8  UNL     1     -13.403  70.057  19.849  1.00  0.00     0.186 HD
ENDROOT
BRANCH   4  13
HETATM   13  N3  UNL     1      -9.676  71.373  22.856  1.00  0.00    -0.349 N 
ATOM     14  H3  UNL     1      -8.942  70.675  22.978  1.00  0.00     0.167 HD
BRANCH  13  15
HETATM   15  C5  UNL     1      -9.438  72.559  23.572  1.00  0.00     0.102 C 
BRANCH  15  16
HETATM   16  C6  UNL     1      -8.028  73.014  23.577  1.00  0.00    -0.005 A 
HETATM   17  C7  UNL     1      -7.627  74.202  23.963  1.00  0.00     0.015 A 
HETATM   18  C8  UNL     1      -6.217  74.605  23.949  1.00  0.00     0.018 A 
HETATM   19  C9  UNL     1      -5.341  73.702  23.523  1.00  0.00     0.087 A 
HETATM   20  N4  UNL     1      -5.740  72.405  23.098  1.00  0.00    -0.374 N 
HETATM   21  C10 UNL     1      -7.006  72.075  23.122  1.00  0.00     0.100 A 
ATOM     22  H4  UNL     1      -5.043  71.734  22.776  1.00  0.00     0.164 HD
ENDBRANCH  15  16
ENDBRANCH  13  15
ENDBRANCH   4  13
BRANCH   1  23
HETATM   23  N1  UNL     1     -13.327  72.448  20.346  1.00  0.00    -0.224 N 
ATOM     24  H1  UNL     1     -14.221  72.531  20.829  1.00  0.00     0.177 HD
BRANCH  23  25
HETATM   25  C2  UNL     1     -13.125  73.277  19.198  1.00  0.00     0.164 C 
BRANCH  25  26
HETATM   26  C1  UNL     1     -12.975  74.715  19.717  1.00  0.00     0.184 C 
BRANCH  26  27
HETATM   27  O1  UNL     1     -11.720  75.162  19.336  1.00  0.00    -0.399 OA
ATOM     28  H1  UNL     1     -11.814  76.065  19.058  1.00  0.00     0.209 HD
ENDBRANCH  26  27
ENDBRANCH  25  26
ENDBRANCH  23  25
ENDBRANCH   1  23
BRANCH   9  29
HETATM   29  C12 UNL     1     -12.616  67.184  19.914  1.00  0.00     0.182 C 
BRANCH  29  30
HETATM   30  C13 UNL     1     -12.758  67.859  18.573  1.00  0.00     0.161 C 
BRANCH  30  31
HETATM   31  O2  UNL     1     -12.250  67.033  17.579  1.00  0.00    -0.392 OA
ATOM     32  H2  UNL     1     -11.863  67.562  16.892  1.00  0.00     0.210 HD
ENDBRANCH  30  31
BRANCH  30  33
HETATM   33  C14 UNL     1     -14.231  68.093  18.311  1.00  0.00     0.197 C 
BRANCH  33  34
HETATM   34  O3  UNL     1     -14.958  67.229  19.121  1.00  0.00    -0.398 OA
ATOM     35  H3  UNL     1     -15.640  67.730  19.553  1.00  0.00     0.209 HD
ENDBRANCH  33  34
ENDBRANCH  30  33
ENDBRANCH  29  30
ENDBRANCH   9  29
TORSDOF 12
ENDMDL
MODEL 4
REMARK VINA RESULT: -6.109928026      2.347      5.002
REMARK  12 active torsions:
REMARK  status: ('A' for Active; 'I' for Inactive)
REMARK    1  A    between atoms: O1_1  and  C1_3 
REMARK    2  A    between atoms: C1_3  and  C2_4 
REMARK    3  A    between atoms: C2_4  and  N1_5 
REMARK    4  A    between atoms: N1_5  and  C3_7 
REMARK    5  A    between atoms: C4_10  and  N3_11 
REMARK    6  A    between atoms: N3_11  and  C5_13 
REMARK    7  A    between atoms: C5_13  and  C6_14 
REMARK    8  A    between atoms: N7_25  and  C12_26 
REMARK    9  A    between atoms: C12_26  and  C13_27 
REMARK   10  A    between atoms: C13_27  and  O2_28 
REMARK   11  A    between atoms: C13_27  and  C14_30 
REMARK   12  A    between atoms: C14_30  and  O3_31 
ROOT
HETATM    1  C3  UNL     1     -10.162  69.414  26.596  1.00  0.00     0.681 A 
HETATM    2  N2  UNL     1      -9.666  70.587  27.019  1.00  0.00    -0.174 N 
ATOM      3  H2  UNL     1      -9.301  70.662  27.969  1.00  0.00     0.186 HD
HETATM    4  C4  UNL     1      -9.639  71.684  26.204  1.00  0.00     0.152 A 
HETATM    5  C11 UNL     1     -10.132  71.563  24.933  1.00  0.00     0.137 A 
HETATM    6  N5  UNL     1     -10.240  72.428  23.940  1.00  0.00    -0.277 N 
ATOM      7  H5  UNL     1      -9.941  73.402  23.984  1.00  0.00     0.184 HD
HETATM    8  N6  UNL     1     -10.794  71.851  22.873  1.00  0.00    -0.018 NA
HETATM    9  N7  UNL     1     -11.042  70.590  23.203  1.00  0.00    -0.255 N 
HETATM   10  C15 UNL     1     -10.643  70.378  24.479  1.00  0.00     0.168 A 
HETATM   11  N8  UNL     1     -10.641  69.337  25.329  1.00  0.00    -0.173 N 
ATOM     12  H8  UNL     1     -11.019  68.446  25.006  1.00  0.00     0.186 HD
ENDROOT
BRANCH   4  13
HETATM   13  N3  UNL     1      -9.164  72.743  26.666  1.00  0.00    -0.349 N 
ATOM     14  H3  UNL     1      -9.874  73.383  27.022  1.00  0.00     0.167 HD
BRANCH  13  15
HETATM   15  C5  UNL     1      -7.855  73.239  26.797  1.00  0.00     0.102 C 
BRANCH  15  16
HETATM   16  C6  UNL     1      -7.113  73.392  25.524  1.00  0.00    -0.005 A 
HETATM   17  C7  UNL     1      -7.309  74.355  24.655  1.00  0.00     0.015 A 
HETATM   18  C8  UNL     1      -6.548  74.463  23.407  1.00  0.00     0.018 A 
HETATM   19  C9  UNL     1      -5.630  73.528  23.184  1.00  0.00     0.087 A 
HETATM   20  N4  UNL     1      -5.390  72.471  24.103  1.00  0.00    -0.374 N 
HETATM   21  C10 UNL     1      -6.086  72.402  25.209  1.00  0.00     0.100 A 
ATOM     22  H4  UNL     1      -4.678  71.769  23.903  1.00  0.00     0.164 HD
ENDBRANCH  15  16
ENDBRANCH  13  15
ENDBRANCH   4  13
BRANCH   1  23
HETATM   23  N1  UNL     1     -10.214  68.354  27.311  1.00  0.00    -0.224 N 
ATOM     24  H1  UNL     1     -10.546  67.503  26.858  1.00  0.00     0.177 HD
BRANCH  23  25
HETATM   25  C2  UNL     1      -9.847  68.261  28.690  1.00  0.00     0.164 C 
BRANCH  25  26
HETATM   26  C1  UNL     1      -8.372  67.831  28.724  1.00  0.00     0.184 C 
BRANCH  26  27
HETATM   27  O1  UNL     1      -7.617  68.970  28.957  1.00  0.00    -0.399 OA
ATOM     28  H1  UNL     1      -6.837  68.905  28.420  1.00  0.00     0.209 HD
ENDBRANCH  26  27
ENDBRANCH  25  26
ENDBRANCH  23  25
ENDBRANCH   1  23
BRANCH   9  29
HETATM   29  C12 UNL     1     -11.640  69.596  22.329  1.00  0.00     0.182 C 
BRANCH  29  30
HETATM   30  C13 UNL     1     -10.889  69.631  21.021  1.00  0.00     0.161 C 
BRANCH  30  31
HETATM   31  O2  UNL     1      -9.534  69.805  21.266  1.00  0.00    -0.392 OA
ATOM     32  H2  UNL     1      -9.207  70.531  20.746  1.00  0.00     0.210 HD
ENDBRANCH  30  31
BRANCH  30  33
HETATM   33  C14 UNL     1     -11.095  68.305  20.319  1.00  0.00     0.197 C 
BRANCH  33  34
HETATM   34  O3  UNL     1     -10.749  67.289  21.202  1.00  0.00    -0.398 OA
ATOM     35  H3  UNL     1     -11.237  66.510  20.963  1.00  0.00     0.209 HD
ENDBRANCH  33  34
ENDBRANCH  30  33
ENDBRANCH  29  30
ENDBRANCH   9  29
TORSDOF 12
ENDMDL
MODEL 5
REMARK VINA RESULT: -6.107090091      2.408      2.937
REMARK  12 active torsions:
REMARK  status: ('A' for Active; 'I' for Inactive)
REMARK    1  A    between atoms: O1_1  and  C1_3 
REMARK    2  A    between atoms: C1_3  and  C2_4 
REMARK    3  A    between atoms: C2_4  and  N1_5 
REMARK    4  A    between atoms: N1_5  and  C3_7 
REMARK    5  A    between atoms: C4_10  and  N3_11 
REMARK    6  A    between atoms: N3_11  and  C5_13 
REMARK    7  A    between atoms: C5_13  and  C6_14 
REMARK    8  A    between atoms: N7_25  and  C12_26 
REMARK    9  A    between atoms: C12_26  and  C13_27 
REMARK   10  A    between atoms: C13_27  and  O2_28 
REMARK   11  A    between atoms: C13_27  and  C14_30 
REMARK   12  A    between atoms: C14_30  and  O3_31 
ROOT
HETATM    1  C3  UNL     1     -10.968  71.635  22.169  1.00  0.00     0.681 A 
HETATM    2  N2  UNL     1     -10.747  71.122  23.390  1.00  0.00    -0.174 N 
ATOM      3  H2  UNL     1     -10.629  71.752  24.183  1.00  0.00     0.186 HD
HETATM    4  C4  UNL     1     -10.676  69.772  23.592  1.00  0.00     0.152 A 
HETATM    5  C11 UNL     1     -10.837  68.943  22.515  1.00  0.00     0.137 A 
HETATM    6  N5  UNL     1     -10.818  67.627  22.402  1.00  0.00    -0.277 N 
ATOM      7  H5  UNL     1     -10.667  66.979  23.175  1.00  0.00     0.184 HD
HETATM    8  N6  UNL     1     -11.023  67.262  21.135  1.00  0.00    -0.018 NA
HETATM    9  N7  UNL     1     -11.174  68.378  20.433  1.00  0.00    -0.255 N 
HETATM   10  C15 UNL     1     -11.063  69.442  21.262  1.00  0.00     0.168 A 
HETATM   11  N8  UNL     1     -11.122  70.778  21.128  1.00  0.00    -0.173 N 
ATOM     12  H8  UNL     1     -11.290  71.167  20.201  1.00  0.00     0.186 HD
ENDROOT
BRANCH   4  13
HETATM   13  N3  UNL     1     -10.466  69.366  24.755  1.00  0.00    -0.349 N 
ATOM     14  H3  UNL     1     -10.044  68.438  24.788  1.00  0.00     0.167 HD
BRANCH  13  15
HETATM   15  C5  UNL     1     -10.691  69.919  26.027  1.00  0.00     0.102 C 
BRANCH  15  16
HETATM   16  C6  UNL     1     -10.057  69.187  27.149  1.00  0.00    -0.005 A 
HETATM   17  C7  UNL     1      -8.869  69.451  27.638  1.00  0.00     0.015 A 
HETATM   18  C8  UNL     1      -8.286  68.695  28.751  1.00  0.00     0.018 A 
HETATM   19  C9  UNL     1      -9.022  67.712  29.257  1.00  0.00     0.087 A 
HETATM   20  N4  UNL     1     -10.313  67.399  28.752  1.00  0.00    -0.374 N 
HETATM   21  C10 UNL     1     -10.807  68.092  27.758  1.00  0.00     0.100 A 
ATOM     22  H4  UNL     1     -10.853  66.638  29.163  1.00  0.00     0.164 HD
ENDBRANCH  15  16
ENDBRANCH  13  15
ENDBRANCH   4  13
BRANCH   1  23
HETATM   23  N1  UNL     1     -11.045  72.888  21.917  1.00  0.00    -0.224 N 
ATOM     24  H1  UNL     1     -10.214  73.450  22.096  1.00  0.00     0.177 HD
BRANCH  23  25
HETATM   25  C2  UNL     1     -12.196  73.566  21.407  1.00  0.00     0.164 C 
BRANCH  25  26
HETATM   26  C1  UNL     1     -11.754  74.269  20.115  1.00  0.00     0.184 C 
BRANCH  26  27
HETATM   27  O1  UNL     1     -11.319  73.287  19.239  1.00  0.00    -0.399 OA
ATOM     28  H1  UNL     1     -10.568  73.636  18.774  1.00  0.00     0.209 HD
ENDBRANCH  26  27
ENDBRANCH  25  26
ENDBRANCH  23  25
ENDBRANCH   1  23
BRANCH   9  29
HETATM   29  C12 UNL     1     -11.426  68.441  19.004  1.00  0.00     0.182 C 
BRANCH  29  30
HETATM   30  C13 UNL     1     -12.727  67.725  18.739  1.00  0.00     0.161 C 
BRANCH  30  31
HETATM   31  O2  UNL     1     -12.596  66.383  19.070  1.00  0.00    -0.392 OA
ATOM     32  H2  UNL     1     -12.833  65.846  18.324  1.00  0.00     0.210 HD
ENDBRANCH  30  31
BRANCH  30  33
HETATM   33  C14 UNL     1     -13.799  68.345  19.611  1.00  0.00     0.197 C 
BRANCH  33  34
HETATM   34  O3  UNL     1     -14.260  67.370  20.488  1.00  0.00    -0.398 OA
ATOM     35  H3  UNL     1     -15.204  67.312  20.397  1.00  0.00     0.209 HD
ENDBRANCH  33  34
ENDBRANCH  30  33
ENDBRANCH  29  30
ENDBRANCH   9  29
TORSDOF 12
ENDMDL
