MODEL 1
REMARK VINA RESULT: -6.767926908      0.000      0.000
REMARK  7 active torsions:
REMARK  status: ('A' for Active; 'I' for Inactive)
REMARK    1  A    between atoms: C2_2  and  C3_3 
REMARK    2  A    between atoms: C3_3  and  N1_4 
REMARK    3  A    between atoms: N1_4  and  C4_6 
REMARK    4  A    between atoms: N4_13  and  C7_14 
REMARK    5  A    between atoms: C8_15  and  N5_16 
REMARK    6  A    between atoms: N5_16  and  C9_18 
REMARK    7  A    between atoms: C9_18  and  C10_19 
ROOT
HETATM    1  C4  UNL     1     -11.234  75.824  21.333  1.00  0.00     0.685 A 
HETATM    2  N2  UNL     1     -12.025  75.524  20.294  1.00  0.00    -0.172 N 
ATOM      3  H2  UNL     1     -12.337  76.208  19.605  1.00  0.00     0.186 HD
HETATM    4  C5  UNL     1     -12.365  74.216  20.257  1.00  0.00     0.172 A 
HETATM    5  C6  UNL     1     -11.741  73.648  21.356  1.00  0.00     0.176 A 
HETATM    6  N3  UNL     1     -11.065  74.630  21.996  1.00  0.00    -0.172 N 
ATOM      7  H3  UNL     1     -10.513  74.503  22.844  1.00  0.00     0.186 HD
HETATM    8  N4  UNL     1     -12.016  72.354  21.330  1.00  0.00    -0.255 N 
HETATM    9  C13 UNL     1     -12.824  72.113  20.206  1.00  0.00     0.335 A 
HETATM   10  O3  UNL     1     -13.292  71.010  19.845  1.00  0.00    -0.246 OA
HETATM   11  N9  UNL     1     -13.022  73.271  19.564  1.00  0.00    -0.286 N 
HETATM   12  C14 UNL     1     -13.799  73.440  18.371  1.00  0.00     0.163 C 
ENDROOT
BRANCH   8  13
HETATM   13  C7  UNL     1     -11.616  71.283  22.163  1.00  0.00     0.120 C 
HETATM   14  C8  UNL     1     -10.340  70.658  22.153  1.00  0.00     0.105 C 
BRANCH  14  15
HETATM   15  N5  UNL     1      -9.713  69.827  21.172  1.00  0.00    -0.371 N 
ATOM     16  H5  UNL     1      -8.962  70.112  20.544  1.00  0.00     0.164 HD
BRANCH  15  17
HETATM   17  C9  UNL     1     -10.320  68.516  21.218  1.00  0.00     0.136 C 
BRANCH  17  18
HETATM   18  C10 UNL     1     -11.483  68.189  20.419  1.00  0.00     0.128 A 
HETATM   19  N6  UNL     1     -11.173  67.915  19.091  1.00  0.00    -0.293 N 
HETATM   20  C11 UNL     1     -12.090  67.535  18.212  1.00  0.00     0.329 A 
ATOM     21  H6  UNL     1     -10.206  68.010  18.783  1.00  0.00     0.172 HD
HETATM   22  O1  UNL     1     -11.750  67.290  17.006  1.00  0.00    -0.246 OA
HETATM   23  N7  UNL     1     -13.369  67.399  18.574  1.00  0.00    -0.260 N 
HETATM   24  C12 UNL     1     -13.670  67.670  19.871  1.00  0.00     0.329 A 
ATOM     25  H7  UNL     1     -14.085  67.106  17.909  1.00  0.00     0.175 HD
HETATM   26  O2  UNL     1     -14.863  67.550  20.225  1.00  0.00    -0.246 OA
HETATM   27  N8  UNL     1     -12.758  68.058  20.783  1.00  0.00    -0.293 N 
ATOM     28  H8  UNL     1     -13.041  68.250  21.743  1.00  0.00     0.172 HD
ENDBRANCH  17  18
ENDBRANCH  15  17
ENDBRANCH  14  15
ENDBRANCH   8  13
BRANCH   1  29
HETATM   29  N1  UNL     1     -10.672  76.915  21.608  1.00  0.00    -0.205 N 
ATOM     30  H1  UNL     1     -10.882  77.609  20.891  1.00  0.00     0.183 HD
BRANCH  29  31
HETATM   31  C3  UNL     1      -9.864  77.460  22.570  1.00  0.00     0.078 C 
BRANCH  31  32
HETATM   32  C2  UNL     1      -8.422  77.124  22.686  1.00  0.00     0.040 C 
HETATM   33  C1  UNL     1      -8.097  75.898  23.468  1.00  0.00     0.010 C 
ENDBRANCH  31  32
ENDBRANCH  29  31
ENDBRANCH   1  29
TORSDOF 7
ENDMDL
MODEL 2
REMARK VINA RESULT: -6.479649222      3.691      6.298
REMARK  7 active torsions:
REMARK  status: ('A' for Active; 'I' for Inactive)
REMARK    1  A    between atoms: C2_2  and  C3_3 
REMARK    2  A    between atoms: C3_3  and  N1_4 
REMARK    3  A    between atoms: N1_4  and  C4_6 
REMARK    4  A    between atoms: N4_13  and  C7_14 
REMARK    5  A    between atoms: C8_15  and  N5_16 
REMARK    6  A    between atoms: N5_16  and  C9_18 
REMARK    7  A    between atoms: C9_18  and  C10_19 
ROOT
HETATM    1  C4  UNL     1     -12.139  72.219  19.500  1.00  0.00     0.685 A 
HETATM    2  N2  UNL     1     -12.333  71.025  18.923  1.00  0.00    -0.172 N 
ATOM      3  H2  UNL     1     -12.778  70.903  18.014  1.00  0.00     0.186 HD
HETATM    4  C5  UNL     1     -11.876  70.001  19.677  1.00  0.00     0.172 A 
HETATM    5  C6  UNL     1     -11.353  70.593  20.815  1.00  0.00     0.176 A 
HETATM    6  N3  UNL     1     -11.521  71.930  20.696  1.00  0.00    -0.172 N 
ATOM      7  H3  UNL     1     -11.233  72.621  21.388  1.00  0.00     0.186 HD
HETATM    8  N4  UNL     1     -10.855  69.621  21.563  1.00  0.00    -0.255 N 
HETATM    9  C13 UNL     1     -11.073  68.409  20.885  1.00  0.00     0.335 A 
HETATM   10  O3  UNL     1     -10.746  67.266  21.275  1.00  0.00    -0.246 OA
HETATM   11  N9  UNL     1     -11.699  68.670  19.731  1.00  0.00    -0.286 N 
HETATM   12  C14 UNL     1     -12.100  67.692  18.762  1.00  0.00     0.163 C 
ENDROOT
BRANCH   8  13
HETATM   13  C7  UNL     1     -10.165  69.634  22.797  1.00  0.00     0.120 C 
HETATM   14  C8  UNL     1     -10.653  70.184  24.013  1.00  0.00     0.105 C 
BRANCH  14  15
HETATM   15  N5  UNL     1     -10.893  71.541  24.396  1.00  0.00    -0.371 N 
ATOM     16  H5  UNL     1     -11.654  71.864  24.994  1.00  0.00     0.164 HD
BRANCH  15  17
HETATM   17  C9  UNL     1      -9.880  72.380  23.796  1.00  0.00     0.136 C 
BRANCH  17  18
HETATM   18  C10 UNL     1      -8.513  72.378  24.273  1.00  0.00     0.128 A 
HETATM   19  N6  UNL     1      -7.577  72.327  23.246  1.00  0.00    -0.293 N 
HETATM   20  C11 UNL     1      -6.271  72.378  23.472  1.00  0.00     0.329 A 
ATOM     21  H6  UNL     1      -7.907  72.246  22.285  1.00  0.00     0.172 HD
HETATM   22  O1  UNL     1      -5.455  72.333  22.491  1.00  0.00    -0.246 OA
HETATM   23  N7  UNL     1      -5.797  72.483  24.716  1.00  0.00    -0.260 N 
HETATM   24  C12 UNL     1      -6.714  72.531  25.719  1.00  0.00     0.329 A 
ATOM     25  H7  UNL     1      -4.795  72.526  24.905  1.00  0.00     0.175 HD
HETATM   26  O2  UNL     1      -6.285  72.627  26.890  1.00  0.00    -0.246 OA
HETATM   27  N8  UNL     1      -8.043  72.480  25.516  1.00  0.00    -0.293 N 
ATOM     28  H8  UNL     1      -8.686  72.518  26.307  1.00  0.00     0.172 HD
ENDBRANCH  17  18
ENDBRANCH  15  17
ENDBRANCH  14  15
ENDBRANCH   8  13
BRANCH   1  29
HETATM   29  N1  UNL     1     -12.362  73.366  19.035  1.00  0.00    -0.205 N 
ATOM     30  H1  UNL     1     -11.971  73.446  18.096  1.00  0.00     0.183 HD
BRANCH  29  31
HETATM   31  C3  UNL     1     -12.966  74.540  19.397  1.00  0.00     0.078 C 
BRANCH  31  32
HETATM   32  C2  UNL     1     -12.891  75.083  20.778  1.00  0.00     0.040 C 
HETATM   33  C1  UNL     1     -11.559  75.592  21.208  1.00  0.00     0.010 C 
ENDBRANCH  31  32
ENDBRANCH  29  31
ENDBRANCH   1  29
TORSDOF 7
ENDMDL
MODEL 3
REMARK VINA RESULT: -6.476443802      2.601      4.290
REMARK  7 active torsions:
REMARK  status: ('A' for Active; 'I' for Inactive)
REMARK    1  A    between atoms: C2_2  and  C3_3 
REMARK    2  A    between atoms: C3_3  and  N1_4 
REMARK    3  A    between atoms: N1_4  and  C4_6 
REMARK    4  A    between atoms: N4_13  and  C7_14 
REMARK    5  A    between atoms: C8_15  and  N5_16 
REMARK    6  A    between atoms: N5_16  and  C9_18 
REMARK    7  A    between atoms: C9_18  and  C10_19 
ROOT
HETATM    1  C4  UNL     1      -9.245  73.656  23.542  1.00  0.00     0.685 A 
HETATM    2  N2  UNL     1      -9.604  74.797  24.146  1.00  0.00    -0.172 N 
ATOM      3  H2  UNL     1      -9.200  75.123  25.024  1.00  0.00     0.186 HD
HETATM    4  C5  UNL     1     -10.558  75.470  23.465  1.00  0.00     0.172 A 
HETATM    5  C6  UNL     1     -10.821  74.695  22.347  1.00  0.00     0.176 A 
HETATM    6  N3  UNL     1     -10.024  73.603  22.408  1.00  0.00    -0.172 N 
ATOM      7  H3  UNL     1     -10.004  72.853  21.718  1.00  0.00     0.186 HD
HETATM    8  N4  UNL     1     -11.725  75.344  21.630  1.00  0.00    -0.255 N 
HETATM    9  C13 UNL     1     -12.031  76.535  22.310  1.00  0.00     0.335 A 
HETATM   10  O3  UNL     1     -12.846  77.413  21.949  1.00  0.00    -0.246 OA
HETATM   11  N9  UNL     1     -11.301  76.589  23.431  1.00  0.00    -0.286 N 
HETATM   12  C14 UNL     1     -11.335  77.648  24.397  1.00  0.00     0.163 C 
ENDROOT
BRANCH   8  13
HETATM   13  C7  UNL     1     -12.327  75.059  20.383  1.00  0.00     0.120 C 
HETATM   14  C8  UNL     1     -12.524  73.763  19.835  1.00  0.00     0.105 C 
BRANCH  14  15
HETATM   15  N5  UNL     1     -11.586  72.804  19.340  1.00  0.00    -0.371 N 
ATOM     16  H5  UNL     1     -10.630  73.005  19.047  1.00  0.00     0.164 HD
BRANCH  15  17
HETATM   17  C9  UNL     1     -12.216  71.503  19.324  1.00  0.00     0.136 C 
BRANCH  17  18
HETATM   18  C10 UNL     1     -11.573  70.340  19.899  1.00  0.00     0.128 A 
HETATM   19  N6  UNL     1     -12.257  69.157  19.646  1.00  0.00    -0.293 N 
HETATM   20  C11 UNL     1     -11.799  67.975  20.034  1.00  0.00     0.329 A 
ATOM     21  H6  UNL     1     -13.143  69.200  19.143  1.00  0.00     0.172 HD
HETATM   22  O1  UNL     1     -12.465  66.918  19.770  1.00  0.00    -0.246 OA
HETATM   23  N7  UNL     1     -10.643  67.873  20.695  1.00  0.00    -0.260 N 
HETATM   24  C12 UNL     1      -9.977  69.032  20.944  1.00  0.00     0.329 A 
ATOM     25  H7  UNL     1     -10.277  66.971  20.998  1.00  0.00     0.175 HD
HETATM   26  O2  UNL     1      -8.894  68.954  21.564  1.00  0.00    -0.246 OA
HETATM   27  N8  UNL     1     -10.421  70.244  20.561  1.00  0.00    -0.293 N 
ATOM     28  H8  UNL     1      -9.879  71.081  20.776  1.00  0.00     0.172 HD
ENDBRANCH  17  18
ENDBRANCH  15  17
ENDBRANCH  14  15
ENDBRANCH   8  13
BRANCH   1  29
HETATM   29  N1  UNL     1      -8.334  72.848  23.857  1.00  0.00    -0.205 N 
ATOM     30  H1  UNL     1      -8.635  72.266  24.640  1.00  0.00     0.183 HD
BRANCH  29  31
HETATM   31  C3  UNL     1      -7.063  72.507  23.478  1.00  0.00     0.078 C 
BRANCH  31  32
HETATM   32  C2  UNL     1      -6.002  73.520  23.245  1.00  0.00     0.040 C 
HETATM   33  C1  UNL     1      -5.818  74.533  24.321  1.00  0.00     0.010 C 
ENDBRANCH  31  32
ENDBRANCH  29  31
ENDBRANCH   1  29
TORSDOF 7
ENDMDL
MODEL 4
REMARK VINA RESULT: -6.461518113      2.202      3.800
REMARK  7 active torsions:
REMARK  status: ('A' for Active; 'I' for Inactive)
REMARK    1  A    between atoms: C2_2  and  C3_3 
REMARK    2  A    between atoms: C3_3  and  N1_4 
REMARK    3  A    between atoms: N1_4  and  C4_6 
REMARK    4  A    between atoms: N4_13  and  C7_14 
REMARK    5  A    between atoms: C8_15  and  N5_16 
REMARK    6  A    between atoms: N5_16  and  C9_18 
REMARK    7  A    between atoms: C9_18  and  C10_19 
ROOT
HETATM    1  C4  UNL     1      -8.996  73.386  23.455  1.00  0.00     0.685 A 
HETATM    2  N2  UNL     1      -9.312  74.653  23.755  1.00  0.00    -0.172 N 
ATOM      3  H2  UNL     1      -8.788  75.225  24.418  1.00  0.00     0.186 HD
HETATM    4  C5  UNL     1     -10.401  75.093  23.085  1.00  0.00     0.172 A 
HETATM    5  C6  UNL     1     -10.801  74.022  22.303  1.00  0.00     0.176 A 
HETATM    6  N3  UNL     1      -9.946  73.000  22.538  1.00  0.00    -0.172 N 
ATOM      7  H3  UNL     1      -9.999  72.080  22.101  1.00  0.00     0.186 HD
HETATM    8  N4  UNL     1     -11.845  74.428  21.597  1.00  0.00    -0.255 N 
HETATM    9  C13 UNL     1     -12.100  75.765  21.946  1.00  0.00     0.335 A 
HETATM   10  O3  UNL     1     -13.010  76.495  21.493  1.00  0.00    -0.246 OA
HETATM   11  N9  UNL     1     -11.199  76.149  22.860  1.00  0.00    -0.286 N 
HETATM   12  C14 UNL     1     -11.132  77.445  23.468  1.00  0.00     0.163 C 
ENDROOT
BRANCH   8  13
HETATM   13  C7  UNL     1     -12.628  73.787  20.610  1.00  0.00     0.120 C 
HETATM   14  C8  UNL     1     -12.537  72.418  20.240  1.00  0.00     0.105 C 
BRANCH  14  15
HETATM   15  N5  UNL     1     -11.505  71.699  19.559  1.00  0.00    -0.371 N 
ATOM     16  H5  UNL     1     -10.982  72.034  18.751  1.00  0.00     0.164 HD
BRANCH  15  17
HETATM   17  C9  UNL     1     -11.326  70.419  20.207  1.00  0.00     0.136 C 
BRANCH  17  18
HETATM   18  C10 UNL     1     -11.897  69.205  19.661  1.00  0.00     0.128 A 
HETATM   19  N6  UNL     1     -13.119  68.871  20.234  1.00  0.00    -0.293 N 
HETATM   20  C11 UNL     1     -13.832  67.830  19.829  1.00  0.00     0.329 A 
ATOM     21  H6  UNL     1     -13.479  69.449  20.993  1.00  0.00     0.172 HD
HETATM   22  O1  UNL     1     -14.951  67.572  20.386  1.00  0.00    -0.246 OA
HETATM   23  N7  UNL     1     -13.397  67.047  18.838  1.00  0.00    -0.260 N 
HETATM   24  C12 UNL     1     -12.201  67.374  18.282  1.00  0.00     0.329 A 
ATOM     25  H7  UNL     1     -13.936  66.244  18.515  1.00  0.00     0.175 HD
HETATM   26  O2  UNL     1     -11.778  66.649  17.354  1.00  0.00    -0.246 OA
HETATM   27  N8  UNL     1     -11.457  68.425  18.675  1.00  0.00    -0.293 N 
ATOM     28  H8  UNL     1     -10.565  68.622  18.221  1.00  0.00     0.172 HD
ENDBRANCH  17  18
ENDBRANCH  15  17
ENDBRANCH  14  15
ENDBRANCH   8  13
BRANCH   1  29
HETATM   29  N1  UNL     1      -8.002  72.711  23.827  1.00  0.00    -0.205 N 
ATOM     30  H1  UNL     1      -8.235  72.176  24.664  1.00  0.00     0.183 HD
BRANCH  29  31
HETATM   31  C3  UNL     1      -6.705  72.472  23.459  1.00  0.00     0.078 C 
BRANCH  31  32
HETATM   32  C2  UNL     1      -5.705  73.560  23.307  1.00  0.00     0.040 C 
HETATM   33  C1  UNL     1      -5.713  74.607  24.367  1.00  0.00     0.010 C 
ENDBRANCH  31  32
ENDBRANCH  29  31
ENDBRANCH   1  29
TORSDOF 7
ENDMDL
MODEL 5
REMARK VINA RESULT: -6.451332433      2.392      4.946
REMARK  7 active torsions:
REMARK  status: ('A' for Active; 'I' for Inactive)
REMARK    1  A    between atoms: C2_2  and  C3_3 
REMARK    2  A    between atoms: C3_3  and  N1_4 
REMARK    3  A    between atoms: N1_4  and  C4_6 
REMARK    4  A    between atoms: N4_13  and  C7_14 
REMARK    5  A    between atoms: C8_15  and  N5_16 
REMARK    6  A    between atoms: N5_16  and  C9_18 
REMARK    7  A    between atoms: C9_18  and  C10_19 
ROOT
HETATM    1  C4  UNL     1     -11.956  71.747  19.573  1.00  0.00     0.685 A 
HETATM    2  N2  UNL     1     -11.668  70.746  18.730  1.00  0.00    -0.172 N 
ATOM      3  H2  UNL     1     -11.060  70.848  17.919  1.00  0.00     0.186 HD
HETATM    4  C5  UNL     1     -12.272  69.586  19.072  1.00  0.00     0.172 A 
HETATM    5  C6  UNL     1     -12.995  69.878  20.218  1.00  0.00     0.176 A 
HETATM    6  N3  UNL     1     -12.796  71.185  20.506  1.00  0.00    -0.172 N 
ATOM      7  H3  UNL     1     -13.208  71.679  21.297  1.00  0.00     0.186 HD
HETATM    8  N4  UNL     1     -13.569  68.752  20.610  1.00  0.00    -0.255 N 
HETATM    9  C13 UNL     1     -13.204  67.748  19.696  1.00  0.00     0.335 A 
HETATM   10  O3  UNL     1     -13.553  66.547  19.728  1.00  0.00    -0.246 OA
HETATM   11  N9  UNL     1     -12.407  68.286  18.764  1.00  0.00    -0.286 N 
HETATM   12  C14 UNL     1     -11.831  67.583  17.656  1.00  0.00     0.163 C 
ENDROOT
BRANCH   8  13
HETATM   13  C7  UNL     1     -14.377  68.439  21.728  1.00  0.00     0.120 C 
HETATM   14  C8  UNL     1     -14.552  69.256  22.877  1.00  0.00     0.105 C 
BRANCH  14  15
HETATM   15  N5  UNL     1     -13.642  69.607  23.923  1.00  0.00    -0.371 N 
ATOM     16  H5  UNL     1     -13.810  70.304  24.648  1.00  0.00     0.164 HD
BRANCH  15  17
HETATM   17  C9  UNL     1     -12.444  68.809  23.784  1.00  0.00     0.136 C 
BRANCH  17  18
HETATM   18  C10 UNL     1     -11.259  69.326  23.130  1.00  0.00     0.128 A 
HETATM   19  N6  UNL     1     -10.970  70.639  23.485  1.00  0.00    -0.293 N 
HETATM   20  C11 UNL     1      -9.892  71.272  23.043  1.00  0.00     0.329 A 
ATOM     21  H6  UNL     1     -11.609  71.132  24.108  1.00  0.00     0.172 HD
HETATM   22  O1  UNL     1      -9.670  72.476  23.405  1.00  0.00    -0.246 OA
HETATM   23  N7  UNL     1      -9.029  70.663  22.225  1.00  0.00    -0.260 N 
HETATM   24  C12 UNL     1      -9.316  69.381  21.878  1.00  0.00     0.329 A 
ATOM     25  H7  UNL     1      -8.195  71.137  21.879  1.00  0.00     0.175 HD
HETATM   26  O2  UNL     1      -8.519  68.798  21.110  1.00  0.00    -0.246 OA
HETATM   27  N8  UNL     1     -10.403  68.716  22.312  1.00  0.00    -0.293 N 
ATOM     28  H8  UNL     1     -10.569  67.754  22.017  1.00  0.00     0.172 HD
ENDBRANCH  17  18
ENDBRANCH  15  17
ENDBRANCH  14  15
ENDBRANCH   8  13
BRANCH   1  29
HETATM   29  N1  UNL     1     -11.495  72.917  19.595  1.00  0.00    -0.205 N 
ATOM     30  H1  UNL     1     -10.559  72.934  19.189  1.00  0.00     0.183 HD
BRANCH  29  31
HETATM   31  C3  UNL     1     -11.858  74.175  19.996  1.00  0.00     0.078 C 
BRANCH  31  32
HETATM   32  C2  UNL     1     -11.665  74.656  21.388  1.00  0.00     0.040 C 
HETATM   33  C1  UNL     1     -11.195  76.063  21.534  1.00  0.00     0.010 C 
ENDBRANCH  31  32
ENDBRANCH  29  31
ENDBRANCH   1  29
TORSDOF 7
ENDMDL
