MODEL 1
REMARK VINA RESULT: -6.610374226      0.000      0.000
REMARK  11 active torsions:
REMARK  status: ('A' for Active; 'I' for Inactive)
REMARK    1  A    between atoms: O1_2  and  C2_3 
REMARK    2  A    between atoms: C2_3  and  C3_4 
REMARK    3  A    between atoms: C3_4  and  N1_5 
REMARK    4  A    between atoms: N1_5  and  C4_7 
REMARK    5  A    between atoms: C5_10  and  N3_11 
REMARK    6  A    between atoms: N3_11  and  C6_13 
REMARK    7  A    between atoms: C6_13  and  C7_14 
REMARK    8  A    between atoms: C7_14  and  O2_15 
REMARK    9  A    between atoms: C9_20  and  C10_21 
REMARK   10  A    between atoms: C10_21  and  C11_22 
REMARK   11  A    between atoms: C13_29  and  O4_30 
ROOT
HETATM    1  C4  UNL     1      -9.915  71.634  24.229  1.00  0.00     0.715 A 
HETATM    2  N2  UNL     1      -9.838  70.965  25.418  1.00  0.00    -0.021 N 
ATOM      3  H2  UNL     1      -9.360  71.403  26.204  1.00  0.00     0.203 HD
HETATM    4  C5  UNL     1     -10.379  69.740  25.577  1.00  0.00     0.694 A 
HETATM    5  N4  UNL     1     -10.997  69.217  24.503  1.00  0.00    -0.173 N 
ATOM      6  H4  UNL     1     -11.418  68.291  24.587  1.00  0.00     0.186 HD
HETATM    7  C8  UNL     1     -11.087  69.859  23.315  1.00  0.00     0.172 A 
HETATM    8  C9  UNL     1     -11.647  69.558  22.092  1.00  0.00     0.030 A 
HETATM    9  C14 UNL     1     -11.424  70.625  21.217  1.00  0.00     0.123 A 
HETATM   10  N7  UNL     1     -10.742  71.527  21.941  1.00  0.00    -0.288 N 
ATOM     11  H7  UNL     1     -10.422  72.431  21.590  1.00  0.00     0.187 HD
HETATM   12  N8  UNL     1     -10.541  71.080  23.177  1.00  0.00    -0.068 N 
ENDROOT
BRANCH   8  13
HETATM   13  C10 UNL     1     -12.287  68.464  21.773  1.00  0.00     0.051 C 
BRANCH  13  14
HETATM   14  C11 UNL     1     -12.511  68.044  20.386  1.00  0.00     0.088 A 
HETATM   15  N5  UNL     1     -11.600  67.837  19.419  1.00  0.00    -0.305 N 
HETATM   16  C12 UNL     1     -12.254  67.460  18.302  1.00  0.00     0.326 A 
ATOM     17  H5  UNL     1     -10.591  67.947  19.514  1.00  0.00     0.171 HD
HETATM   18  O3  UNL     1     -11.772  67.171  17.169  1.00  0.00    -0.247 OA
HETATM   19  N6  UNL     1     -13.588  67.418  18.532  1.00  0.00    -0.287 N 
HETATM   20  C13 UNL     1     -13.746  67.778  19.817  1.00  0.00     0.171 A 
ATOM     21  H6  UNL     1     -14.319  67.165  17.868  1.00  0.00     0.172 HD
BRANCH  20  22
HETATM   22  O4  UNL     1     -14.966  67.874  20.492  1.00  0.00    -0.344 OA
ATOM     23  H4  UNL     1     -15.812  67.948  20.067  1.00  0.00     0.219 HD
ENDBRANCH  20  22
ENDBRANCH  13  14
ENDBRANCH   8  13
BRANCH   4  24
HETATM   24  N3  UNL     1     -10.304  69.114  26.703  1.00  0.00    -0.223 N 
ATOM     25  H3  UNL     1     -10.895  68.292  26.828  1.00  0.00     0.177 HD
BRANCH  24  26
HETATM   26  C6  UNL     1      -9.453  69.487  27.784  1.00  0.00     0.164 C 
BRANCH  26  27
HETATM   27  C7  UNL     1      -8.714  68.280  28.368  1.00  0.00     0.184 C 
BRANCH  27  28
HETATM   28  O2  UNL     1      -7.567  68.756  28.985  1.00  0.00    -0.399 OA
ATOM     29  H2  UNL     1      -6.990  68.014  29.122  1.00  0.00     0.209 HD
ENDBRANCH  27  28
ENDBRANCH  26  27
ENDBRANCH  24  26
ENDBRANCH   4  24
BRANCH   1  30
HETATM   30  N1  UNL     1      -9.405  72.789  24.080  1.00  0.00    -0.222 N 
ATOM     31  H1  UNL     1     -10.063  73.567  24.026  1.00  0.00     0.177 HD
BRANCH  30  32
HETATM   32  C3  UNL     1      -8.033  73.127  23.980  1.00  0.00     0.164 C 
BRANCH  32  33
HETATM   33  C2  UNL     1      -7.229  72.124  23.226  1.00  0.00     0.187 C 
BRANCH  33  34
HETATM   34  O1  UNL     1      -5.935  72.381  22.939  1.00  0.00    -0.394 OA
HETATM   35  C1  UNL     1      -5.466  73.597  23.326  1.00  0.00     0.201 C 
ENDBRANCH  33  34
ENDBRANCH  32  33
ENDBRANCH  30  32
ENDBRANCH   1  30
TORSDOF 11
ENDMDL
MODEL 2
REMARK VINA RESULT: -6.591412688      1.600      4.445
REMARK  11 active torsions:
REMARK  status: ('A' for Active; 'I' for Inactive)
REMARK    1  A    between atoms: O1_2  and  C2_3 
REMARK    2  A    between atoms: C2_3  and  C3_4 
REMARK    3  A    between atoms: C3_4  and  N1_5 
REMARK    4  A    between atoms: N1_5  and  C4_7 
REMARK    5  A    between atoms: C5_10  and  N3_11 
REMARK    6  A    between atoms: N3_11  and  C6_13 
REMARK    7  A    between atoms: C6_13  and  C7_14 
REMARK    8  A    between atoms: C7_14  and  O2_15 
REMARK    9  A    between atoms: C9_20  and  C10_21 
REMARK   10  A    between atoms: C10_21  and  C11_22 
REMARK   11  A    between atoms: C13_29  and  O4_30 
ROOT
HETATM    1  C4  UNL     1      -9.640  71.214  25.663  1.00  0.00     0.715 A 
HETATM    2  N2  UNL     1      -8.770  72.031  24.999  1.00  0.00    -0.021 N 
ATOM      3  H2  UNL     1      -7.984  72.437  25.506  1.00  0.00     0.203 HD
HETATM    4  C5  UNL     1      -8.925  72.314  23.689  1.00  0.00     0.694 A 
HETATM    5  N4  UNL     1      -9.981  71.747  23.077  1.00  0.00    -0.173 N 
ATOM      6  H4  UNL     1     -10.129  71.939  22.086  1.00  0.00     0.186 HD
HETATM    7  C8  UNL     1     -10.856  70.934  23.713  1.00  0.00     0.172 A 
HETATM    8  C9  UNL     1     -11.987  70.244  23.333  1.00  0.00     0.030 A 
HETATM    9  C14 UNL     1     -12.489  69.554  24.441  1.00  0.00     0.123 A 
HETATM   10  N7  UNL     1     -11.647  69.852  25.443  1.00  0.00    -0.288 N 
ATOM     11  H7  UNL     1     -11.735  69.503  26.398  1.00  0.00     0.187 HD
HETATM   12  N8  UNL     1     -10.684  70.664  25.019  1.00  0.00    -0.068 N 
ENDROOT
BRANCH   8  13
HETATM   13  C10 UNL     1     -12.524  70.218  22.143  1.00  0.00     0.051 C 
BRANCH  13  14
HETATM   14  C11 UNL     1     -12.218  69.184  21.149  1.00  0.00     0.088 A 
HETATM   15  N5  UNL     1     -12.988  68.157  20.749  1.00  0.00    -0.305 N 
HETATM   16  C12 UNL     1     -12.305  67.460  19.819  1.00  0.00     0.326 A 
ATOM     17  H5  UNL     1     -13.925  67.943  21.090  1.00  0.00     0.171 HD
HETATM   18  O3  UNL     1     -12.668  66.424  19.190  1.00  0.00    -0.247 OA
HETATM   19  N6  UNL     1     -11.093  68.024  19.607  1.00  0.00    -0.287 N 
HETATM   20  C13 UNL     1     -11.039  69.087  20.427  1.00  0.00     0.171 A 
ATOM     21  H6  UNL     1     -10.371  67.708  18.959  1.00  0.00     0.172 HD
BRANCH  20  22
HETATM   22  O4  UNL     1      -9.963  69.972  20.546  1.00  0.00    -0.344 OA
ATOM     23  H4  UNL     1      -9.130  69.869  20.101  1.00  0.00     0.219 HD
ENDBRANCH  20  22
ENDBRANCH  13  14
ENDBRANCH   8  13
BRANCH   4  24
HETATM   24  N3  UNL     1      -8.099  73.087  23.067  1.00  0.00    -0.223 N 
ATOM     25  H3  UNL     1      -8.203  73.174  22.056  1.00  0.00     0.177 HD
BRANCH  24  26
HETATM   26  C6  UNL     1      -7.054  73.828  23.691  1.00  0.00     0.164 C 
BRANCH  26  27
HETATM   27  C7  UNL     1      -5.704  73.590  23.008  1.00  0.00     0.184 C 
BRANCH  27  28
HETATM   28  O2  UNL     1      -5.700  72.282  22.546  1.00  0.00    -0.399 OA
ATOM     29  H2  UNL     1      -4.801  72.061  22.333  1.00  0.00     0.209 HD
ENDBRANCH  27  28
ENDBRANCH  26  27
ENDBRANCH  24  26
ENDBRANCH   4  24
BRANCH   1  30
HETATM   30  N1  UNL     1      -9.493  70.947  26.899  1.00  0.00    -0.222 N 
ATOM     31  H1  UNL     1     -10.343  70.711  27.410  1.00  0.00     0.177 HD
BRANCH  30  32
HETATM   32  C3  UNL     1      -8.293  70.939  27.649  1.00  0.00     0.164 C 
BRANCH  32  33
HETATM   33  C2  UNL     1      -8.369  70.107  28.882  1.00  0.00     0.187 C 
BRANCH  33  34
HETATM   34  O1  UNL     1      -7.684  68.946  28.952  1.00  0.00    -0.394 OA
HETATM   35  C1  UNL     1      -8.405  67.812  28.738  1.00  0.00     0.201 C 
ENDBRANCH  33  34
ENDBRANCH  32  33
ENDBRANCH  30  32
ENDBRANCH   1  30
TORSDOF 11
ENDMDL
MODEL 3
REMARK VINA RESULT: -6.484958805      1.225      4.173
REMARK  11 active torsions:
REMARK  status: ('A' for Active; 'I' for Inactive)
REMARK    1  A    between atoms: O1_2  and  C2_3 
REMARK    2  A    between atoms: C2_3  and  C3_4 
REMARK    3  A    between atoms: C3_4  and  N1_5 
REMARK    4  A    between atoms: N1_5  and  C4_7 
REMARK    5  A    between atoms: C5_10  and  N3_11 
REMARK    6  A    between atoms: N3_11  and  C6_13 
REMARK    7  A    between atoms: C6_13  and  C7_14 
REMARK    8  A    between atoms: C7_14  and  O2_15 
REMARK    9  A    between atoms: C9_20  and  C10_21 
REMARK   10  A    between atoms: C10_21  and  C11_22 
REMARK   11  A    between atoms: C13_29  and  O4_30 
ROOT
HETATM    1  C4  UNL     1      -9.990  70.743  25.362  1.00  0.00     0.715 A 
HETATM    2  N2  UNL     1      -9.146  71.812  25.260  1.00  0.00    -0.021 N 
ATOM      3  H2  UNL     1      -8.750  72.215  26.109  1.00  0.00     0.203 HD
HETATM    4  C5  UNL     1      -8.822  72.347  24.066  1.00  0.00     0.694 A 
HETATM    5  N4  UNL     1      -9.377  71.770  22.984  1.00  0.00    -0.173 N 
ATOM      6  H4  UNL     1      -9.155  72.149  22.063  1.00  0.00     0.186 HD
HETATM    7  C8  UNL     1     -10.216  70.710  23.058  1.00  0.00     0.172 A 
HETATM    8  C9  UNL     1     -10.902  69.952  22.134  1.00  0.00     0.030 A 
HETATM    9  C14 UNL     1     -11.630  68.967  22.808  1.00  0.00     0.123 A 
HETATM   10  N7  UNL     1     -11.358  69.166  24.107  1.00  0.00    -0.288 N 
ATOM     11  H7  UNL     1     -11.737  68.606  24.872  1.00  0.00     0.187 HD
HETATM   12  N8  UNL     1     -10.526  70.191  24.260  1.00  0.00    -0.068 N 
ENDROOT
BRANCH   8  13
HETATM   13  C10 UNL     1     -10.892  70.105  20.837  1.00  0.00     0.051 C 
BRANCH  13  14
HETATM   14  C11 UNL     1     -11.598  69.204  19.920  1.00  0.00     0.088 A 
HETATM   15  N5  UNL     1     -11.122  68.119  19.285  1.00  0.00    -0.305 N 
HETATM   16  C12 UNL     1     -12.121  67.596  18.545  1.00  0.00     0.326 A 
ATOM     17  H5  UNL     1     -10.171  67.756  19.351  1.00  0.00     0.171 HD
HETATM   18  O3  UNL     1     -12.093  66.575  17.799  1.00  0.00    -0.247 OA
HETATM   19  N6  UNL     1     -13.248  68.330  18.693  1.00  0.00    -0.287 N 
HETATM   20  C13 UNL     1     -12.926  69.322  19.541  1.00  0.00     0.171 A 
ATOM     21  H6  UNL     1     -14.153  68.165  18.253  1.00  0.00     0.172 HD
BRANCH  20  22
HETATM   22  O4  UNL     1     -13.789  70.329  19.983  1.00  0.00    -0.344 OA
ATOM     23  H4  UNL     1     -14.725  70.343  19.824  1.00  0.00     0.219 HD
ENDBRANCH  20  22
ENDBRANCH  13  14
ENDBRANCH   8  13
BRANCH   4  24
HETATM   24  N3  UNL     1      -8.023  73.357  23.976  1.00  0.00    -0.223 N 
ATOM     25  H3  UNL     1      -8.408  74.235  23.628  1.00  0.00     0.177 HD
BRANCH  24  26
HETATM   26  C6  UNL     1      -6.643  73.333  24.328  1.00  0.00     0.164 C 
BRANCH  26  27
HETATM   27  C7  UNL     1      -5.741  73.510  23.103  1.00  0.00     0.184 C 
BRANCH  27  28
HETATM   28  O2  UNL     1      -5.664  72.281  22.466  1.00  0.00    -0.399 OA
ATOM     29  H2  UNL     1      -5.583  72.449  21.535  1.00  0.00     0.209 HD
ENDBRANCH  27  28
ENDBRANCH  26  27
ENDBRANCH  24  26
ENDBRANCH   4  24
BRANCH   1  30
HETATM   30  N1  UNL     1     -10.294  70.238  26.490  1.00  0.00    -0.222 N 
ATOM     31  H1  UNL     1     -11.143  70.597  26.927  1.00  0.00     0.177 HD
BRANCH  30  32
HETATM   32  C3  UNL     1      -9.597  69.240  27.211  1.00  0.00     0.164 C 
BRANCH  32  33
HETATM   33  C2  UNL     1      -8.472  69.774  28.029  1.00  0.00     0.187 C 
BRANCH  33  34
HETATM   34  O1  UNL     1      -7.799  68.953  28.862  1.00  0.00    -0.394 OA
HETATM   35  C1  UNL     1      -8.364  67.736  29.090  1.00  0.00     0.201 C 
ENDBRANCH  33  34
ENDBRANCH  32  33
ENDBRANCH  30  32
ENDBRANCH   1  30
TORSDOF 11
ENDMDL
MODEL 4
REMARK VINA RESULT: -6.439945462      2.795      4.252
REMARK  11 active torsions:
REMARK  status: ('A' for Active; 'I' for Inactive)
REMARK    1  A    between atoms: O1_2  and  C2_3 
REMARK    2  A    between atoms: C2_3  and  C3_4 
REMARK    3  A    between atoms: C3_4  and  N1_5 
REMARK    4  A    between atoms: N1_5  and  C4_7 
REMARK    5  A    between atoms: C5_10  and  N3_11 
REMARK    6  A    between atoms: N3_11  and  C6_13 
REMARK    7  A    between atoms: C6_13  and  C7_14 
REMARK    8  A    between atoms: C7_14  and  O2_15 
REMARK    9  A    between atoms: C9_20  and  C10_21 
REMARK   10  A    between atoms: C10_21  and  C11_22 
REMARK   11  A    between atoms: C13_29  and  O4_30 
ROOT
HETATM    1  C4  UNL     1     -11.006  73.558  22.604  1.00  0.00     0.715 A 
HETATM    2  N2  UNL     1      -9.711  73.427  23.015  1.00  0.00    -0.021 N 
ATOM      3  H2  UNL     1      -9.201  74.254  23.323  1.00  0.00     0.203 HD
HETATM    4  C5  UNL     1      -9.088  72.230  23.025  1.00  0.00     0.694 A 
HETATM    5  N4  UNL     1      -9.815  71.177  22.607  1.00  0.00    -0.173 N 
ATOM      6  H4  UNL     1      -9.376  70.256  22.601  1.00  0.00     0.186 HD
HETATM    7  C8  UNL     1     -11.100  71.281  22.195  1.00  0.00     0.172 A 
HETATM    8  C9  UNL     1     -12.042  70.388  21.732  1.00  0.00     0.030 A 
HETATM    9  C14 UNL     1     -13.223  71.082  21.452  1.00  0.00     0.123 A 
HETATM   10  N7  UNL     1     -12.951  72.361  21.755  1.00  0.00    -0.288 N 
ATOM     11  H7  UNL     1     -13.612  73.134  21.663  1.00  0.00     0.187 HD
HETATM   12  N8  UNL     1     -11.702  72.483  22.193  1.00  0.00    -0.068 N 
ENDROOT
BRANCH   8  13
HETATM   13  C10 UNL     1     -11.887  69.101  21.571  1.00  0.00     0.051 C 
BRANCH  13  14
HETATM   14  C11 UNL     1     -12.183  68.411  20.311  1.00  0.00     0.088 A 
HETATM   15  N5  UNL     1     -11.406  68.297  19.220  1.00  0.00    -0.305 N 
HETATM   16  C12 UNL     1     -12.081  67.579  18.300  1.00  0.00     0.326 A 
ATOM     17  H5  UNL     1     -10.470  68.687  19.108  1.00  0.00     0.171 HD
HETATM   18  O3  UNL     1     -11.709  67.244  17.138  1.00  0.00    -0.247 OA
HETATM   19  N6  UNL     1     -13.294  67.220  18.782  1.00  0.00    -0.287 N 
HETATM   20  C13 UNL     1     -13.357  67.734  20.022  1.00  0.00     0.171 A 
ATOM     21  H6  UNL     1     -14.010  66.674  18.304  1.00  0.00     0.172 HD
BRANCH  20  22
HETATM   22  O4  UNL     1     -14.437  67.612  20.901  1.00  0.00    -0.344 OA
ATOM     23  H4  UNL     1     -14.467  67.011  21.637  1.00  0.00     0.219 HD
ENDBRANCH  20  22
ENDBRANCH  13  14
ENDBRANCH   8  13
BRANCH   4  24
HETATM   24  N3  UNL     1      -7.864  72.113  23.416  1.00  0.00    -0.223 N 
ATOM     25  H3  UNL     1      -7.429  71.193  23.339  1.00  0.00     0.177 HD
BRANCH  24  26
HETATM   26  C6  UNL     1      -7.076  73.176  23.946  1.00  0.00     0.164 C 
BRANCH  26  27
HETATM   27  C7  UNL     1      -5.807  73.408  23.121  1.00  0.00     0.184 C 
BRANCH  27  28
HETATM   28  O2  UNL     1      -5.581  72.257  22.380  1.00  0.00    -0.399 OA
ATOM     29  H2  UNL     1      -4.852  72.435  21.796  1.00  0.00     0.209 HD
ENDBRANCH  27  28
ENDBRANCH  26  27
ENDBRANCH  24  26
ENDBRANCH   4  24
BRANCH   1  30
HETATM   30  N1  UNL     1     -11.592  74.687  22.595  1.00  0.00    -0.222 N 
ATOM     31  H1  UNL     1     -12.266  74.848  23.343  1.00  0.00     0.177 HD
BRANCH  30  32
HETATM   32  C3  UNL     1     -11.422  75.747  21.672  1.00  0.00     0.164 C 
BRANCH  32  33
HETATM   33  C2  UNL     1     -11.818  75.392  20.281  1.00  0.00     0.187 C 
BRANCH  33  34
HETATM   34  O1  UNL     1     -13.114  75.147  19.993  1.00  0.00    -0.394 OA
HETATM   35  C1  UNL     1     -13.354  74.486  18.829  1.00  0.00     0.201 C 
ENDBRANCH  33  34
ENDBRANCH  32  33
ENDBRANCH  30  32
ENDBRANCH   1  30
TORSDOF 11
ENDMDL
MODEL 5
REMARK VINA RESULT: -6.435175873      1.654      6.998
REMARK  11 active torsions:
REMARK  status: ('A' for Active; 'I' for Inactive)
REMARK    1  A    between atoms: O1_2  and  C2_3 
REMARK    2  A    between atoms: C2_3  and  C3_4 
REMARK    3  A    between atoms: C3_4  and  N1_5 
REMARK    4  A    between atoms: N1_5  and  C4_7 
REMARK    5  A    between atoms: C5_10  and  N3_11 
REMARK    6  A    between atoms: N3_11  and  C6_13 
REMARK    7  A    between atoms: C6_13  and  C7_14 
REMARK    8  A    between atoms: C7_14  and  O2_15 
REMARK    9  A    between atoms: C9_20  and  C10_21 
REMARK   10  A    between atoms: C10_21  and  C11_22 
REMARK   11  A    between atoms: C13_29  and  O4_30 
ROOT
HETATM    1  C4  UNL     1     -11.107  70.145  22.050  1.00  0.00     0.715 A 
HETATM    2  N2  UNL     1     -10.083  71.047  21.993  1.00  0.00    -0.021 N 
ATOM      3  H2  UNL     1      -9.728  71.338  21.082  1.00  0.00     0.203 HD
HETATM    4  C5  UNL     1      -9.530  71.562  23.109  1.00  0.00     0.694 A 
HETATM    5  N4  UNL     1     -10.043  71.138  24.279  1.00  0.00    -0.173 N 
ATOM      6  H4  UNL     1      -9.648  71.507  25.145  1.00  0.00     0.186 HD
HETATM    7  C8  UNL     1     -11.057  70.247  24.363  1.00  0.00     0.172 A 
HETATM    8  C9  UNL     1     -11.749  69.662  25.402  1.00  0.00     0.030 A 
HETATM    9  C14 UNL     1     -12.714  68.799  24.875  1.00  0.00     0.123 A 
HETATM   10  N7  UNL     1     -12.570  68.893  23.543  1.00  0.00    -0.288 N 
ATOM     11  H7  UNL     1     -13.131  68.382  22.860  1.00  0.00     0.187 HD
HETATM   12  N8  UNL     1     -11.595  69.745  23.237  1.00  0.00    -0.068 N 
ENDROOT
BRANCH   8  13
HETATM   13  C10 UNL     1     -11.557  69.863  26.679  1.00  0.00     0.051 C 
BRANCH  13  14
HETATM   14  C11 UNL     1     -10.471  69.231  27.434  1.00  0.00     0.088 A 
HETATM   15  N5  UNL     1      -9.269  69.741  27.752  1.00  0.00    -0.305 N 
HETATM   16  C12 UNL     1      -8.591  68.809  28.453  1.00  0.00     0.326 A 
ATOM     17  H5  UNL     1      -8.929  70.671  27.507  1.00  0.00     0.171 HD
HETATM   18  O3  UNL     1      -7.426  68.887  28.940  1.00  0.00    -0.247 OA
HETATM   19  N6  UNL     1      -9.342  67.692  28.595  1.00  0.00    -0.287 N 
HETATM   20  C13 UNL     1     -10.501  67.951  27.967  1.00  0.00     0.171 A 
ATOM     21  H6  UNL     1      -9.082  66.833  29.079  1.00  0.00     0.172 HD
BRANCH  20  22
HETATM   22  O4  UNL     1     -11.584  67.074  27.858  1.00  0.00    -0.344 OA
ATOM     23  H4  UNL     1     -12.459  67.257  28.180  1.00  0.00     0.219 HD
ENDBRANCH  20  22
ENDBRANCH  13  14
ENDBRANCH   8  13
BRANCH   4  24
HETATM   24  N3  UNL     1      -8.562  72.414  23.048  1.00  0.00    -0.223 N 
ATOM     25  H3  UNL     1      -8.563  73.076  22.272  1.00  0.00     0.177 HD
BRANCH  24  26
HETATM   26  C6  UNL     1      -7.493  72.497  23.987  1.00  0.00     0.164 C 
BRANCH  26  27
HETATM   27  C7  UNL     1      -6.252  73.156  23.377  1.00  0.00     0.184 C 
BRANCH  27  28
HETATM   28  O2  UNL     1      -5.706  72.253  22.477  1.00  0.00    -0.399 OA
ATOM     29  H2  UNL     1      -5.235  72.755  21.823  1.00  0.00     0.209 HD
ENDBRANCH  27  28
ENDBRANCH  26  27
ENDBRANCH  24  26
ENDBRANCH   4  24
BRANCH   1  30
HETATM   30  N1  UNL     1     -11.629  69.660  20.996  1.00  0.00    -0.222 N 
ATOM     31  H1  UNL     1     -12.445  70.152  20.632  1.00  0.00     0.177 HD
BRANCH  30  32
HETATM   32  C3  UNL     1     -11.213  68.519  20.268  1.00  0.00     0.164 C 
BRANCH  32  33
HETATM   33  C2  UNL     1     -12.304  67.530  20.040  1.00  0.00     0.187 C 
BRANCH  33  34
HETATM   34  O1  UNL     1     -12.406  66.905  18.848  1.00  0.00    -0.394 OA
HETATM   35  C1  UNL     1     -11.838  67.542  17.788  1.00  0.00     0.201 C 
ENDBRANCH  33  34
ENDBRANCH  32  33
ENDBRANCH  30  32
ENDBRANCH   1  30
TORSDOF 11
ENDMDL
