MODEL 1
REMARK VINA RESULT: -6.326141152      0.000      0.000
REMARK  10 active torsions:
REMARK  status: ('A' for Active; 'I' for Inactive)
REMARK    1  A    between atoms: N1_1  and  S1_4 
REMARK    2  A    between atoms: S1_4  and  N2_5 
REMARK    3  A    between atoms: S1_4  and  C1_9 
REMARK    4  A    between atoms: C4_12  and  C5_13 
REMARK    5  A    between atoms: C5_13  and  C6_14 
REMARK    6  A    between atoms: C6_14  and  C7_15 
REMARK       I    between atoms: C7_15  and  N3_17 
REMARK    7  A    between atoms: N3_17  and  N4_19 
REMARK    8  A    between atoms: N4_19  and  C8_21 
REMARK    9  A    between atoms: C9_23  and  N5_24 
REMARK   10  A    between atoms: N5_24  and  N6_26 
ROOT
HETATM    1  C1  UNL     1     -10.515  69.772  21.819  1.00  0.00     0.125 C 
HETATM    2  C2  UNL     1     -11.219  70.428  22.816  1.00  0.00     0.030 C 
HETATM    3  C3  UNL     1     -10.853  71.549  23.527  1.00  0.00     0.012 C 
HETATM    4  C4  UNL     1      -9.669  72.253  23.581  1.00  0.00    -0.012 C 
HETATM    5  C9  UNL     1      -8.553  71.951  22.831  1.00  0.00     0.128 C 
HETATM    6  N7  UNL     1      -8.358  70.965  21.924  1.00  0.00    -0.307 N 
ATOM      7  H7  UNL     1      -7.444  70.966  21.472  1.00  0.00     0.170 HD
HETATM    8  C10 UNL     1      -9.200  69.974  21.526  1.00  0.00     0.268 C 
HETATM    9  O4  UNL     1      -8.700  69.093  20.763  1.00  0.00    -0.267 OA
ENDROOT
BRANCH   4  10
HETATM   10  C5  UNL     1      -9.538  73.397  24.463  1.00  0.00     0.052 C 
BRANCH  10  11
HETATM   11  C6  UNL     1      -9.795  73.199  25.911  1.00  0.00     0.109 C 
BRANCH  11  12
HETATM   12  C7  UNL     1      -8.677  72.341  26.451  1.00  0.00     0.236 C 
HETATM   13  O2  UNL     1      -7.481  72.539  26.116  1.00  0.00    -0.272 OA
HETATM   14  N3  UNL     1      -8.955  71.293  27.347  1.00  0.00    -0.268 N 
ATOM     15  H3  UNL     1      -9.917  71.111  27.635  1.00  0.00     0.190 HD
BRANCH  14  16
HETATM   16  N4  UNL     1      -7.918  70.502  27.845  1.00  0.00    -0.275 N 
ATOM     17  H4  UNL     1      -6.984  70.902  27.922  1.00  0.00     0.189 HD
BRANCH  16  18
HETATM   18  C8  UNL     1      -8.123  69.171  28.241  1.00  0.00     0.368 C 
HETATM   19  O3  UNL     1      -7.717  68.756  29.354  1.00  0.00    -0.282 OA
ENDBRANCH  16  18
ENDBRANCH  14  16
ENDBRANCH  11  12
ENDBRANCH  10  11
ENDBRANCH   4  10
BRANCH   5  20
HETATM   20  N5  UNL     1      -7.540  72.715  23.018  1.00  0.00    -0.292 N 
ATOM     21  H5  UNL     1      -7.662  73.727  23.056  1.00  0.00     0.188 HD
BRANCH  20  22
HETATM   22  N6  UNL     1      -6.281  72.158  23.167  1.00  0.00    -0.344 N 
ATOM     23  H62 UNL     1      -6.002  71.796  24.080  1.00  0.00     0.176 HD
ATOM     24  H61 UNL     1      -5.649  72.117  22.368  1.00  0.00     0.176 HD
ENDBRANCH  20  22
ENDBRANCH   5  20
BRANCH   1  25
HETATM   25  S1  UNL     1     -11.380  68.585  20.854  1.00  0.00     0.136 S 
HETATM   26  O1  UNL     1     -10.877  67.216  21.135  1.00  0.00    -0.224 OA
BRANCH  25  27
HETATM   27  N1  UNL     1     -12.914  68.676  21.131  1.00  0.00    -0.341 N 
ATOM     28  H12 UNL     1     -13.557  69.333  20.692  1.00  0.00     0.167 HD
ATOM     29  H11 UNL     1     -13.142  67.962  21.823  1.00  0.00     0.167 HD
ENDBRANCH  25  27
BRANCH  25  30
HETATM   30  N2  UNL     1     -11.134  68.937  19.181  1.00  0.00    -0.341 N 
ATOM     31  H22 UNL     1     -11.697  69.577  18.621  1.00  0.00     0.167 HD
ATOM     32  H21 UNL     1     -10.332  68.390  18.868  1.00  0.00     0.167 HD
ENDBRANCH  25  30
ENDBRANCH   1  25
TORSDOF 10
ENDMDL
MODEL 2
REMARK VINA RESULT: -6.313342539      2.713      6.857
REMARK  10 active torsions:
REMARK  status: ('A' for Active; 'I' for Inactive)
REMARK    1  A    between atoms: N1_1  and  S1_4 
REMARK    2  A    between atoms: S1_4  and  N2_5 
REMARK    3  A    between atoms: S1_4  and  C1_9 
REMARK    4  A    between atoms: C4_12  and  C5_13 
REMARK    5  A    between atoms: C5_13  and  C6_14 
REMARK    6  A    between atoms: C6_14  and  C7_15 
REMARK       I    between atoms: C7_15  and  N3_17 
REMARK    7  A    between atoms: N3_17  and  N4_19 
REMARK    8  A    between atoms: N4_19  and  C8_21 
REMARK    9  A    between atoms: C9_23  and  N5_24 
REMARK   10  A    between atoms: N5_24  and  N6_26 
ROOT
HETATM    1  C1  UNL     1      -8.018  72.493  24.876  1.00  0.00     0.125 C 
HETATM    2  C2  UNL     1      -9.370  72.345  25.134  1.00  0.00     0.030 C 
HETATM    3  C3  UNL     1     -10.339  71.778  24.336  1.00  0.00     0.012 C 
HETATM    4  C4  UNL     1     -10.304  71.335  23.031  1.00  0.00    -0.012 C 
HETATM    5  C9  UNL     1      -9.178  71.348  22.236  1.00  0.00     0.128 C 
HETATM    6  N7  UNL     1      -7.922  71.766  22.520  1.00  0.00    -0.307 N 
ATOM      7  H7  UNL     1      -7.244  71.645  21.768  1.00  0.00     0.170 HD
HETATM    8  C10 UNL     1      -7.429  72.323  23.658  1.00  0.00     0.268 C 
HETATM    9  O4  UNL     1      -6.239  72.758  23.595  1.00  0.00    -0.267 OA
ENDROOT
BRANCH   4  10
HETATM   10  C5  UNL     1     -11.502  70.806  22.407  1.00  0.00     0.052 C 
BRANCH  10  11
HETATM   11  C6  UNL     1     -11.971  69.460  22.817  1.00  0.00     0.109 C 
BRANCH  11  12
HETATM   12  C7  UNL     1     -11.623  68.505  21.702  1.00  0.00     0.236 C 
HETATM   13  O2  UNL     1     -10.554  67.844  21.717  1.00  0.00    -0.272 OA
HETATM   14  N3  UNL     1     -12.498  68.337  20.612  1.00  0.00    -0.268 N 
ATOM     15  H3  UNL     1     -13.372  68.862  20.575  1.00  0.00     0.190 HD
BRANCH  14  16
HETATM   16  N4  UNL     1     -12.172  67.453  19.582  1.00  0.00    -0.275 N 
ATOM     17  H4  UNL     1     -11.869  66.508  19.818  1.00  0.00     0.189 HD
BRANCH  16  18
HETATM   18  C8  UNL     1     -12.248  67.825  18.231  1.00  0.00     0.368 C 
HETATM   19  O3  UNL     1     -11.921  67.027  17.319  1.00  0.00    -0.282 OA
ENDBRANCH  16  18
ENDBRANCH  14  16
ENDBRANCH  11  12
ENDBRANCH  10  11
ENDBRANCH   4  10
BRANCH   5  20
HETATM   20  N5  UNL     1      -9.337  70.900  21.046  1.00  0.00    -0.292 N 
ATOM     21  H5  UNL     1      -9.968  71.375  20.400  1.00  0.00     0.188 HD
BRANCH  20  22
HETATM   22  N6  UNL     1      -8.649  69.769  20.641  1.00  0.00    -0.344 N 
ATOM     23  H62 UNL     1      -9.053  68.850  20.821  1.00  0.00     0.176 HD
ATOM     24  H61 UNL     1      -7.750  69.867  20.171  1.00  0.00     0.176 HD
ENDBRANCH  20  22
ENDBRANCH   5  20
BRANCH   1  25
HETATM   25  S1  UNL     1      -6.973  72.933  26.218  1.00  0.00     0.136 S 
HETATM   26  O1  UNL     1      -7.759  73.062  27.472  1.00  0.00    -0.224 OA
BRANCH  25  27
HETATM   27  N1  UNL     1      -5.835  71.878  26.388  1.00  0.00    -0.341 N 
ATOM     28  H12 UNL     1      -5.155  71.857  27.148  1.00  0.00     0.167 HD
ATOM     29  H11 UNL     1      -5.903  71.227  25.606  1.00  0.00     0.167 HD
ENDBRANCH  25  27
BRANCH  25  30
HETATM   30  N2  UNL     1      -6.225  74.452  25.872  1.00  0.00    -0.341 N 
ATOM     31  H22 UNL     1      -5.353  74.789  26.280  1.00  0.00     0.167 HD
ATOM     32  H21 UNL     1      -6.813  74.935  25.194  1.00  0.00     0.167 HD
ENDBRANCH  25  30
ENDBRANCH   1  25
TORSDOF 10
ENDMDL
MODEL 3
REMARK VINA RESULT: -6.095000123      2.724      6.050
REMARK  10 active torsions:
REMARK  status: ('A' for Active; 'I' for Inactive)
REMARK    1  A    between atoms: N1_1  and  S1_4 
REMARK    2  A    between atoms: S1_4  and  N2_5 
REMARK    3  A    between atoms: S1_4  and  C1_9 
REMARK    4  A    between atoms: C4_12  and  C5_13 
REMARK    5  A    between atoms: C5_13  and  C6_14 
REMARK    6  A    between atoms: C6_14  and  C7_15 
REMARK       I    between atoms: C7_15  and  N3_17 
REMARK    7  A    between atoms: N3_17  and  N4_19 
REMARK    8  A    between atoms: N4_19  and  C8_21 
REMARK    9  A    between atoms: C9_23  and  N5_24 
REMARK   10  A    between atoms: N5_24  and  N6_26 
ROOT
HETATM    1  C1  UNL     1      -9.265  69.956  27.740  1.00  0.00     0.125 C 
HETATM    2  C2  UNL     1      -9.915  70.792  26.848  1.00  0.00     0.030 C 
HETATM    3  C3  UNL     1      -9.385  71.803  26.077  1.00  0.00     0.012 C 
HETATM    4  C4  UNL     1      -8.132  72.377  26.058  1.00  0.00    -0.012 C 
HETATM    5  C9  UNL     1      -7.082  71.976  26.856  1.00  0.00     0.128 C 
HETATM    6  N7  UNL     1      -7.025  70.991  27.783  1.00  0.00    -0.307 N 
ATOM      7  H7  UNL     1      -6.115  70.864  28.226  1.00  0.00     0.170 HD
HETATM    8  C10 UNL     1      -8.000  70.146  28.212  1.00  0.00     0.268 C 
HETATM    9  O4  UNL     1      -7.705  69.414  29.205  1.00  0.00    -0.267 OA
ENDROOT
BRANCH   4  10
HETATM   10  C5  UNL     1      -7.845  73.476  25.156  1.00  0.00     0.052 C 
BRANCH  10  11
HETATM   11  C6  UNL     1      -7.277  73.159  23.823  1.00  0.00     0.109 C 
BRANCH  11  12
HETATM   12  C7  UNL     1      -8.417  72.696  22.949  1.00  0.00     0.236 C 
HETATM   13  O2  UNL     1      -9.463  73.383  22.821  1.00  0.00    -0.272 OA
HETATM   14  N3  UNL     1      -8.329  71.475  22.255  1.00  0.00    -0.268 N 
ATOM     15  H3  UNL     1      -7.492  70.899  22.343  1.00  0.00     0.190 HD
BRANCH  14  16
HETATM   16  N4  UNL     1      -9.386  71.050  21.448  1.00  0.00    -0.275 N 
ATOM     17  H4  UNL     1     -10.069  71.736  21.125  1.00  0.00     0.189 HD
BRANCH  16  18
HETATM   18  C8  UNL     1      -9.538  69.709  21.067  1.00  0.00     0.368 C 
HETATM   19  O3  UNL     1      -8.539  68.982  20.838  1.00  0.00    -0.282 OA
ENDBRANCH  16  18
ENDBRANCH  14  16
ENDBRANCH  11  12
ENDBRANCH  10  11
ENDBRANCH   4  10
BRANCH   5  20
HETATM   20  N5  UNL     1      -5.991  72.632  26.704  1.00  0.00    -0.292 N 
ATOM     21  H5  UNL     1      -5.471  72.564  25.829  1.00  0.00     0.188 HD
BRANCH  20  22
HETATM   22  N6  UNL     1      -5.523  73.432  27.733  1.00  0.00    -0.344 N 
ATOM     23  H62 UNL     1      -5.571  73.087  28.692  1.00  0.00     0.176 HD
ATOM     24  H61 UNL     1      -5.138  74.352  27.521  1.00  0.00     0.176 HD
ENDBRANCH  20  22
ENDBRANCH   5  20
BRANCH   1  25
HETATM   25  S1  UNL     1     -10.131  68.539  28.312  1.00  0.00     0.136 S 
HETATM   26  O1  UNL     1     -11.394  68.356  27.553  1.00  0.00    -0.224 OA
BRANCH  25  27
HETATM   27  N1  UNL     1      -9.230  67.269  28.195  1.00  0.00    -0.341 N 
ATOM     28  H12 UNL     1      -8.222  67.241  28.349  1.00  0.00     0.167 HD
ATOM     29  H11 UNL     1      -9.834  66.488  27.938  1.00  0.00     0.167 HD
ENDBRANCH  25  27
BRANCH  25  30
HETATM   30  N2  UNL     1     -10.512  68.751  29.984  1.00  0.00    -0.341 N 
ATOM     31  H22 UNL     1      -9.979  68.371  30.766  1.00  0.00     0.167 HD
ATOM     32  H21 UNL     1     -11.357  69.319  30.035  1.00  0.00     0.167 HD
ENDBRANCH  25  30
ENDBRANCH   1  25
TORSDOF 10
ENDMDL
MODEL 4
REMARK VINA RESULT: -6.034043794      4.303      5.595
REMARK  10 active torsions:
REMARK  status: ('A' for Active; 'I' for Inactive)
REMARK    1  A    between atoms: N1_1  and  S1_4 
REMARK    2  A    between atoms: S1_4  and  N2_5 
REMARK    3  A    between atoms: S1_4  and  C1_9 
REMARK    4  A    between atoms: C4_12  and  C5_13 
REMARK    5  A    between atoms: C5_13  and  C6_14 
REMARK    6  A    between atoms: C6_14  and  C7_15 
REMARK       I    between atoms: C7_15  and  N3_17 
REMARK    7  A    between atoms: N3_17  and  N4_19 
REMARK    8  A    between atoms: N4_19  and  C8_21 
REMARK    9  A    between atoms: C9_23  and  N5_24 
REMARK   10  A    between atoms: N5_24  and  N6_26 
ROOT
HETATM    1  C1  UNL     1     -12.229  69.025  19.353  1.00  0.00     0.125 C 
HETATM    2  C2  UNL     1     -12.869  70.235  19.142  1.00  0.00     0.030 C 
HETATM    3  C3  UNL     1     -12.463  71.496  19.516  1.00  0.00     0.012 C 
HETATM    4  C4  UNL     1     -11.421  71.923  20.311  1.00  0.00    -0.012 C 
HETATM    5  C9  UNL     1     -10.493  71.085  20.892  1.00  0.00     0.128 C 
HETATM    6  N7  UNL     1     -10.384  69.737  20.829  1.00  0.00    -0.307 N 
ATOM      7  H7  UNL     1      -9.585  69.343  21.324  1.00  0.00     0.170 HD
HETATM    8  C10 UNL     1     -11.181  68.830  20.203  1.00  0.00     0.268 C 
HETATM    9  O4  UNL     1     -10.924  67.610  20.434  1.00  0.00    -0.267 OA
ENDROOT
BRANCH   4  10
HETATM   10  C5  UNL     1     -11.239  73.337  20.582  1.00  0.00     0.052 C 
BRANCH  10  11
HETATM   11  C6  UNL     1     -12.446  74.165  20.823  1.00  0.00     0.109 C 
BRANCH  11  12
HETATM   12  C7  UNL     1     -11.972  75.544  21.211  1.00  0.00     0.236 C 
HETATM   13  O2  UNL     1     -12.775  76.418  21.627  1.00  0.00    -0.272 OA
HETATM   14  N3  UNL     1     -10.609  75.881  21.111  1.00  0.00    -0.268 N 
ATOM     15  H3  UNL     1      -9.937  75.191  20.776  1.00  0.00     0.190 HD
BRANCH  14  16
HETATM   16  N4  UNL     1     -10.175  77.159  21.470  1.00  0.00    -0.275 N 
ATOM     17  H4  UNL     1     -10.794  77.954  21.314  1.00  0.00     0.189 HD
BRANCH  16  18
HETATM   18  C8  UNL     1      -8.912  77.382  22.040  1.00  0.00     0.368 C 
HETATM   19  O3  UNL     1      -8.343  76.495  22.723  1.00  0.00    -0.282 OA
ENDBRANCH  16  18
ENDBRANCH  14  16
ENDBRANCH  11  12
ENDBRANCH  10  11
ENDBRANCH   4  10
BRANCH   5  20
HETATM   20  N5  UNL     1      -9.597  71.662  21.603  1.00  0.00    -0.292 N 
ATOM     21  H5  UNL     1      -9.734  72.622  21.920  1.00  0.00     0.188 HD
BRANCH  20  22
HETATM   22  N6  UNL     1      -8.442  70.976  21.939  1.00  0.00    -0.344 N 
ATOM     23  H62 UNL     1      -8.501  70.190  22.587  1.00  0.00     0.176 HD
ATOM     24  H61 UNL     1      -7.550  71.262  21.537  1.00  0.00     0.176 HD
ENDBRANCH  20  22
ENDBRANCH   5  20
BRANCH   1  25
HETATM   25  S1  UNL     1     -12.808  67.627  18.460  1.00  0.00     0.136 S 
HETATM   26  O1  UNL     1     -14.078  67.945  17.758  1.00  0.00    -0.224 OA
BRANCH  25  27
HETATM   27  N1  UNL     1     -11.724  67.146  17.444  1.00  0.00    -0.341 N 
ATOM     28  H12 UNL     1     -10.974  66.486  17.648  1.00  0.00     0.167 HD
ATOM     29  H11 UNL     1     -11.910  67.611  16.555  1.00  0.00     0.167 HD
ENDBRANCH  25  27
BRANCH  25  30
HETATM   30  N2  UNL     1     -13.093  66.332  19.567  1.00  0.00    -0.341 N 
ATOM     31  H22 UNL     1     -13.583  65.465  19.350  1.00  0.00     0.167 HD
ATOM     32  H21 UNL     1     -12.683  66.600  20.462  1.00  0.00     0.167 HD
ENDBRANCH  25  30
ENDBRANCH   1  25
TORSDOF 10
ENDMDL
MODEL 5
REMARK VINA RESULT: -6.026426226      3.669      6.847
REMARK  10 active torsions:
REMARK  status: ('A' for Active; 'I' for Inactive)
REMARK    1  A    between atoms: N1_1  and  S1_4 
REMARK    2  A    between atoms: S1_4  and  N2_5 
REMARK    3  A    between atoms: S1_4  and  C1_9 
REMARK    4  A    between atoms: C4_12  and  C5_13 
REMARK    5  A    between atoms: C5_13  and  C6_14 
REMARK    6  A    between atoms: C6_14  and  C7_15 
REMARK       I    between atoms: C7_15  and  N3_17 
REMARK    7  A    between atoms: N3_17  and  N4_19 
REMARK    8  A    between atoms: N4_19  and  C8_21 
REMARK    9  A    between atoms: C9_23  and  N5_24 
REMARK   10  A    between atoms: N5_24  and  N6_26 
ROOT
HETATM    1  C1  UNL     1     -10.612  74.827  22.102  1.00  0.00     0.125 C 
HETATM    2  C2  UNL     1     -11.199  73.781  21.409  1.00  0.00     0.030 C 
HETATM    3  C3  UNL     1     -10.835  72.453  21.392  1.00  0.00     0.012 C 
HETATM    4  C4  UNL     1      -9.739  71.798  21.911  1.00  0.00    -0.012 C 
HETATM    5  C9  UNL     1      -8.742  72.410  22.639  1.00  0.00     0.128 C 
HETATM    6  N7  UNL     1      -8.604  73.708  22.999  1.00  0.00    -0.307 N 
ATOM      7  H7  UNL     1      -7.785  73.914  23.571  1.00  0.00     0.170 HD
HETATM    8  C10 UNL     1      -9.394  74.777  22.712  1.00  0.00     0.268 C 
HETATM    9  O4  UNL     1      -8.942  75.910  23.057  1.00  0.00    -0.267 OA
ENDROOT
BRANCH   4  10
HETATM   10  C5  UNL     1      -9.579  70.370  21.711  1.00  0.00     0.052 C 
BRANCH  10  11
HETATM   11  C6  UNL     1     -10.515  69.455  22.407  1.00  0.00     0.109 C 
BRANCH  11  12
HETATM   12  C7  UNL     1     -10.909  68.382  21.422  1.00  0.00     0.236 C 
HETATM   13  O2  UNL     1     -10.520  67.194  21.559  1.00  0.00    -0.272 OA
HETATM   14  N3  UNL     1     -11.726  68.695  20.320  1.00  0.00    -0.268 N 
ATOM     15  H3  UNL     1     -12.055  69.652  20.186  1.00  0.00     0.190 HD
BRANCH  14  16
HETATM   16  N4  UNL     1     -12.088  67.699  19.410  1.00  0.00    -0.275 N 
ATOM     17  H4  UNL     1     -12.329  66.773  19.761  1.00  0.00     0.189 HD
BRANCH  16  18
HETATM   18  C8  UNL     1     -12.130  67.935  18.028  1.00  0.00     0.368 C 
HETATM   19  O3  UNL     1     -11.784  67.050  17.208  1.00  0.00    -0.282 OA
ENDBRANCH  16  18
ENDBRANCH  14  16
ENDBRANCH  11  12
ENDBRANCH  10  11
ENDBRANCH   4  10
BRANCH   5  20
HETATM   20  N5  UNL     1      -7.797  71.641  23.037  1.00  0.00    -0.292 N 
ATOM     21  H5  UNL     1      -8.008  70.698  23.366  1.00  0.00     0.188 HD
BRANCH  20  22
HETATM   22  N6  UNL     1      -6.489  72.095  23.017  1.00  0.00    -0.344 N 
ATOM     23  H62 UNL     1      -5.996  72.229  23.900  1.00  0.00     0.176 HD
ATOM     24  H61 UNL     1      -6.036  72.289  22.125  1.00  0.00     0.176 HD
ENDBRANCH  20  22
ENDBRANCH   5  20
BRANCH   1  25
HETATM   25  S1  UNL     1     -11.500  76.339  22.207  1.00  0.00     0.136 S 
HETATM   26  O1  UNL     1     -12.802  76.230  21.500  1.00  0.00    -0.224 OA
BRANCH  25  27
HETATM   27  N1  UNL     1     -11.717  76.737  23.701  1.00  0.00    -0.341 N 
ATOM     28  H12 UNL     1     -11.373  77.589  24.142  1.00  0.00     0.167 HD
ATOM     29  H11 UNL     1     -12.260  75.994  24.140  1.00  0.00     0.167 HD
ENDBRANCH  25  27
BRANCH  25  30
HETATM   30  N2  UNL     1     -10.567  77.590  21.467  1.00  0.00    -0.341 N 
ATOM     31  H22 UNL     1     -10.110  78.358  21.959  1.00  0.00     0.167 HD
ATOM     32  H21 UNL     1     -10.563  77.415  20.462  1.00  0.00     0.167 HD
ENDBRANCH  25  30
ENDBRANCH   1  25
TORSDOF 10
ENDMDL
