MODEL 1
REMARK VINA RESULT: -5.618761600      0.000      0.000
REMARK  8 active torsions:
REMARK  status: ('A' for Active; 'I' for Inactive)
REMARK    1  A    between atoms: N1_2  and  C2_4 
REMARK    2  A    between atoms: C3_7  and  N3_8 
REMARK    3  A    between atoms: N3_8  and  N4_10 
REMARK    4  A    between atoms: N6_16  and  C5_18 
REMARK    5  A    between atoms: C5_18  and  C6_19 
REMARK    6  A    between atoms: C6_19  and  N7_20 
REMARK       I    between atoms: N7_20  and  C7_22 
REMARK    7  A    between atoms: C7_22  and  C8_24 
REMARK    8  A    between atoms: C8_24  and  N8_25 
ROOT
HETATM    1  C2  UNL     1      -7.986  73.700  23.342  1.00  0.00     0.706 A 
HETATM    2  N2  UNL     1      -7.796  72.425  22.931  1.00  0.00    -0.020 N 
ATOM      3  H2  UNL     1      -6.891  71.967  23.035  1.00  0.00     0.203 HD
HETATM    4  C3  UNL     1      -8.832  71.785  22.386  1.00  0.00     0.725 A 
HETATM    5  N5  UNL     1     -10.025  72.384  22.248  1.00  0.00    -0.020 N 
ATOM      6  H5  UNL     1     -10.789  71.856  21.825  1.00  0.00     0.203 HD
HETATM    7  C4  UNL     1     -10.258  73.649  22.642  1.00  0.00     0.707 A 
HETATM    8  N6  UNL     1     -11.381  74.263  22.550  1.00  0.00    -0.224 N 
ATOM      9  H6  UNL     1     -11.463  75.226  22.874  1.00  0.00     0.177 HD
HETATM   10  N10 UNL     1      -9.179  74.288  23.200  1.00  0.00    -0.022 N 
ATOM     11  H10 UNL     1      -9.291  75.250  23.519  1.00  0.00     0.203 HD
ENDROOT
BRANCH   8  12
HETATM   12  C5  UNL     1     -12.524  73.593  21.990  1.00  0.00     0.157 C 
BRANCH  12  13
HETATM   13  C6  UNL     1     -12.561  73.805  20.482  1.00  0.00     0.143 C 
BRANCH  13  14
HETATM   14  N7  UNL     1     -13.067  72.594  19.878  1.00  0.00    -0.358 N 
HETATM   15  C7  UNL     1     -12.149  71.666  19.350  1.00  0.00     0.246 C 
HETATM   16  O1  UNL     1     -10.882  71.922  19.406  1.00  0.00    -0.272 OA
ATOM     17  H7  UNL     1     -14.071  72.415  19.836  1.00  0.00     0.162 HD
BRANCH  15  18
HETATM   18  C8  UNL     1     -12.606  70.414  18.730  1.00  0.00     0.376 C 
BRANCH  18  19
HETATM   19  N8  UNL     1     -11.679  69.335  19.012  1.00  0.00     0.114 N 
HETATM   20  C9  UNL     1     -12.038  68.757  20.324  1.00  0.00     0.276 C 
HETATM   21  C10 UNL     1     -13.504  68.352  20.352  1.00  0.00     0.049 C 
HETATM   22  C11 UNL     1     -13.822  67.465  19.160  1.00  0.00     0.117 C 
HETATM   23  N9  UNL     1     -12.584  67.158  18.518  1.00  0.00    -0.398 N 
HETATM   24  C12 UNL     1     -11.851  68.268  18.005  1.00  0.00     0.391 C 
ATOM     25  H9  UNL     1     -12.244  66.200  18.432  1.00  0.00     0.154 HD
ENDBRANCH  18  19
ENDBRANCH  15  18
ENDBRANCH  13  14
ENDBRANCH  12  13
ENDBRANCH   8  12
BRANCH   4  26
HETATM   26  N3  UNL     1      -8.691  70.577  21.992  1.00  0.00    -0.138 N 
ATOM     27  H3  UNL     1      -8.518  69.876  22.712  1.00  0.00     0.205 HD
BRANCH  26  28
HETATM   28  N4  UNL     1      -8.749  70.128  20.690  1.00  0.00    -0.331 N 
ATOM     29  H42 UNL     1      -9.686  69.984  20.315  1.00  0.00     0.177 HD
ATOM     30  H41 UNL     1      -7.954  69.930  20.081  1.00  0.00     0.177 HD
ENDBRANCH  26  28
ENDBRANCH   4  26
BRANCH   1  31
HETATM   31  N1  UNL     1      -6.977  74.342  23.878  1.00  0.00    -0.229 N 
HETATM   32  C1  UNL     1      -5.634  73.849  23.777  1.00  0.00     0.165 C 
ATOM     33  H1  UNL     1      -7.151  75.213  24.379  1.00  0.00     0.177 HD
ENDBRANCH   1  31
TORSDOF 8
ENDMDL
MODEL 2
REMARK VINA RESULT: -5.582363154      1.661      6.982
REMARK  8 active torsions:
REMARK  status: ('A' for Active; 'I' for Inactive)
REMARK    1  A    between atoms: N1_2  and  C2_4 
REMARK    2  A    between atoms: C3_7  and  N3_8 
REMARK    3  A    between atoms: N3_8  and  N4_10 
REMARK    4  A    between atoms: N6_16  and  C5_18 
REMARK    5  A    between atoms: C5_18  and  C6_19 
REMARK    6  A    between atoms: C6_19  and  N7_20 
REMARK       I    between atoms: N7_20  and  C7_22 
REMARK    7  A    between atoms: C7_22  and  C8_24 
REMARK    8  A    between atoms: C8_24  and  N8_25 
ROOT
HETATM    1  C2  UNL     1     -12.128  69.717  19.376  1.00  0.00     0.706 A 
HETATM    2  N2  UNL     1     -10.935  69.406  19.935  1.00  0.00    -0.020 N 
ATOM      3  H2  UNL     1     -10.645  68.435  20.048  1.00  0.00     0.203 HD
HETATM    4  C3  UNL     1     -10.151  70.409  20.331  1.00  0.00     0.725 A 
HETATM    5  N5  UNL     1     -10.530  71.688  20.183  1.00  0.00    -0.020 N 
ATOM      6  H5  UNL     1      -9.899  72.423  20.501  1.00  0.00     0.203 HD
HETATM    7  C4  UNL     1     -11.706  72.044  19.633  1.00  0.00     0.707 A 
HETATM    8  N6  UNL     1     -12.109  73.247  19.451  1.00  0.00    -0.224 N 
ATOM      9  H6  UNL     1     -13.020  73.421  19.027  1.00  0.00     0.177 HD
HETATM   10  N10 UNL     1     -12.496  70.995  19.232  1.00  0.00    -0.022 N 
ATOM     11  H10 UNL     1     -13.401  71.199  18.807  1.00  0.00     0.203 HD
ENDROOT
BRANCH   8  12
HETATM   12  C5  UNL     1     -11.277  74.353  19.845  1.00  0.00     0.157 C 
BRANCH  12  13
HETATM   13  C6  UNL     1     -11.572  74.734  21.290  1.00  0.00     0.143 C 
BRANCH  13  14
HETATM   14  N7  UNL     1     -10.322  75.103  21.913  1.00  0.00    -0.358 N 
HETATM   15  C7  UNL     1      -9.663  74.156  22.721  1.00  0.00     0.246 C 
HETATM   16  O1  UNL     1     -10.194  72.990  22.896  1.00  0.00    -0.272 OA
ATOM     17  H7  UNL     1      -9.924  76.032  21.769  1.00  0.00     0.162 HD
BRANCH  15  18
HETATM   18  C8  UNL     1      -8.385  74.474  23.375  1.00  0.00     0.376 C 
BRANCH  18  19
HETATM   19  N8  UNL     1      -8.026  73.440  24.325  1.00  0.00     0.114 N 
HETATM   20  C9  UNL     1      -6.622  73.053  24.070  1.00  0.00     0.276 C 
HETATM   21  C10 UNL     1      -5.715  74.275  24.093  1.00  0.00     0.049 C 
HETATM   22  C11 UNL     1      -5.932  75.060  25.374  1.00  0.00     0.117 C 
HETATM   23  N9  UNL     1      -6.785  74.279  26.212  1.00  0.00    -0.398 N 
HETATM   24  C12 UNL     1      -8.082  73.994  25.694  1.00  0.00     0.391 C 
ATOM     25  H9  UNL     1      -6.484  73.945  27.127  1.00  0.00     0.154 HD
ENDBRANCH  18  19
ENDBRANCH  15  18
ENDBRANCH  13  14
ENDBRANCH  12  13
ENDBRANCH   8  12
BRANCH   4  26
HETATM   26  N3  UNL     1      -9.015  70.152  20.859  1.00  0.00    -0.138 N 
ATOM     27  H3  UNL     1      -8.529  69.322  20.520  1.00  0.00     0.205 HD
BRANCH  26  28
HETATM   28  N4  UNL     1      -8.382  70.885  21.838  1.00  0.00    -0.331 N 
ATOM     29  H42 UNL     1      -8.959  71.140  22.641  1.00  0.00     0.177 HD
ATOM     30  H41 UNL     1      -7.409  71.190  21.834  1.00  0.00     0.177 HD
ENDBRANCH  26  28
ENDBRANCH   4  26
BRANCH   1  31
HETATM   31  N1  UNL     1     -12.910  68.742  18.983  1.00  0.00    -0.229 N 
HETATM   32  C1  UNL     1     -12.440  67.712  18.102  1.00  0.00     0.165 C 
ATOM     33  H1  UNL     1     -13.875  68.714  19.311  1.00  0.00     0.177 HD
ENDBRANCH   1  31
TORSDOF 8
ENDMDL
MODEL 3
REMARK VINA RESULT: -5.504519800      1.791      6.940
REMARK  8 active torsions:
REMARK  status: ('A' for Active; 'I' for Inactive)
REMARK    1  A    between atoms: N1_2  and  C2_4 
REMARK    2  A    between atoms: C3_7  and  N3_8 
REMARK    3  A    between atoms: N3_8  and  N4_10 
REMARK    4  A    between atoms: N6_16  and  C5_18 
REMARK    5  A    between atoms: C5_18  and  C6_19 
REMARK    6  A    between atoms: C6_19  and  N7_20 
REMARK       I    between atoms: N7_20  and  C7_22 
REMARK    7  A    between atoms: C7_22  and  C8_24 
REMARK    8  A    between atoms: C8_24  and  N8_25 
ROOT
HETATM    1  C2  UNL     1     -11.324  69.090  19.575  1.00  0.00     0.706 A 
HETATM    2  N2  UNL     1     -10.220  69.047  20.356  1.00  0.00    -0.020 N 
ATOM      3  H2  UNL     1      -9.787  68.159  20.608  1.00  0.00     0.203 HD
HETATM    4  C3  UNL     1      -9.715  70.204  20.786  1.00  0.00     0.725 A 
HETATM    5  N5  UNL     1     -10.281  71.375  20.456  1.00  0.00    -0.020 N 
ATOM      6  H5  UNL     1      -9.861  72.236  20.807  1.00  0.00     0.203 HD
HETATM    7  C4  UNL     1     -11.378  71.465  19.682  1.00  0.00     0.707 A 
HETATM    8  N6  UNL     1     -11.949  72.556  19.322  1.00  0.00    -0.224 N 
ATOM      9  H6  UNL     1     -12.781  72.526  18.733  1.00  0.00     0.177 HD
HETATM   10  N10 UNL     1     -11.880  70.262  19.251  1.00  0.00    -0.022 N 
ATOM     11  H10 UNL     1     -12.712  70.263  18.660  1.00  0.00     0.203 HD
ENDROOT
BRANCH   8  12
HETATM   12  C5  UNL     1     -11.415  73.822  19.747  1.00  0.00     0.157 C 
BRANCH  12  13
HETATM   13  C6  UNL     1     -12.146  74.299  20.995  1.00  0.00     0.143 C 
BRANCH  13  14
HETATM   14  N7  UNL     1     -11.164  74.859  21.895  1.00  0.00    -0.358 N 
HETATM   15  C7  UNL     1     -10.574  74.019  22.860  1.00  0.00     0.246 C 
HETATM   16  O1  UNL     1     -10.931  72.777  22.926  1.00  0.00    -0.272 OA
ATOM     17  H7  UNL     1     -10.903  75.843  21.833  1.00  0.00     0.162 HD
BRANCH  15  18
HETATM   18  C8  UNL     1      -9.564  74.532  23.798  1.00  0.00     0.376 C 
BRANCH  18  19
HETATM   19  N8  UNL     1      -8.372  74.950  23.086  1.00  0.00     0.114 N 
HETATM   20  C9  UNL     1      -8.232  76.412  23.251  1.00  0.00     0.276 C 
HETATM   21  C10 UNL     1      -8.255  76.793  24.724  1.00  0.00     0.049 C 
HETATM   22  C11 UNL     1      -7.235  75.970  25.490  1.00  0.00     0.117 C 
HETATM   23  N9  UNL     1      -6.465  75.246  24.529  1.00  0.00    -0.398 N 
HETATM   24  C12 UNL     1      -7.187  74.327  23.712  1.00  0.00     0.391 C 
ATOM     25  H9  UNL     1      -5.459  75.378  24.433  1.00  0.00     0.154 HD
ENDBRANCH  18  19
ENDBRANCH  15  18
ENDBRANCH  13  14
ENDBRANCH  12  13
ENDBRANCH   8  12
BRANCH   4  26
HETATM   26  N3  UNL     1      -8.669  70.202  21.522  1.00  0.00    -0.138 N 
ATOM     27  H3  UNL     1      -8.136  69.334  21.560  1.00  0.00     0.205 HD
BRANCH  26  28
HETATM   28  N4  UNL     1      -8.191  71.257  22.268  1.00  0.00    -0.331 N 
ATOM     29  H42 UNL     1      -7.183  71.265  22.426  1.00  0.00     0.177 HD
ATOM     30  H41 UNL     1      -8.743  72.015  22.670  1.00  0.00     0.177 HD
ENDBRANCH  26  28
ENDBRANCH   4  26
BRANCH   1  31
HETATM   31  N1  UNL     1     -11.832  67.961  19.146  1.00  0.00    -0.229 N 
HETATM   32  C1  UNL     1     -13.099  67.914  18.476  1.00  0.00     0.165 C 
ATOM     33  H1  UNL     1     -11.314  67.094  19.292  1.00  0.00     0.177 HD
ENDBRANCH   1  31
TORSDOF 8
ENDMDL
MODEL 4
REMARK VINA RESULT: -5.335801547      3.064      4.223
REMARK  8 active torsions:
REMARK  status: ('A' for Active; 'I' for Inactive)
REMARK    1  A    between atoms: N1_2  and  C2_4 
REMARK    2  A    between atoms: C3_7  and  N3_8 
REMARK    3  A    between atoms: N3_8  and  N4_10 
REMARK    4  A    between atoms: N6_16  and  C5_18 
REMARK    5  A    between atoms: C5_18  and  C6_19 
REMARK    6  A    between atoms: C6_19  and  N7_20 
REMARK       I    between atoms: N7_20  and  C7_22 
REMARK    7  A    between atoms: C7_22  and  C8_24 
REMARK    8  A    between atoms: C8_24  and  N8_25 
ROOT
HETATM    1  C2  UNL     1      -6.128  73.959  27.123  1.00  0.00     0.706 A 
HETATM    2  N2  UNL     1      -6.427  72.988  28.017  1.00  0.00    -0.020 N 
ATOM      3  H2  UNL     1      -6.002  72.977  28.944  1.00  0.00     0.203 HD
HETATM    4  C3  UNL     1      -7.296  72.046  27.649  1.00  0.00     0.725 A 
HETATM    5  N5  UNL     1      -7.859  72.058  26.430  1.00  0.00    -0.020 N 
ATOM      6  H5  UNL     1      -8.518  71.318  26.190  1.00  0.00     0.203 HD
HETATM    7  C4  UNL     1      -7.591  73.003  25.510  1.00  0.00     0.707 A 
HETATM    8  N6  UNL     1      -8.113  73.072  24.340  1.00  0.00    -0.224 N 
ATOM      9  H6  UNL     1      -7.847  73.826  23.707  1.00  0.00     0.177 HD
HETATM   10  N10 UNL     1      -6.695  73.962  25.911  1.00  0.00    -0.022 N 
ATOM     11  H10 UNL     1      -6.450  74.706  25.258  1.00  0.00     0.203 HD
ENDROOT
BRANCH   8  12
HETATM   12  C5  UNL     1      -9.072  72.086  23.919  1.00  0.00     0.157 C 
BRANCH  12  13
HETATM   13  C6  UNL     1      -8.646  71.484  22.587  1.00  0.00     0.143 C 
BRANCH  13  14
HETATM   14  N7  UNL     1      -9.773  70.755  22.052  1.00  0.00    -0.358 N 
HETATM   15  C7  UNL     1      -9.544  69.496  21.461  1.00  0.00     0.246 C 
HETATM   16  O1  UNL     1      -8.338  69.031  21.401  1.00  0.00    -0.272 OA
ATOM     17  H7  UNL     1     -10.715  71.143  22.101  1.00  0.00     0.162 HD
BRANCH  15  18
HETATM   18  C8  UNL     1     -10.653  68.706  20.906  1.00  0.00     0.376 C 
BRANCH  18  19
HETATM   19  N8  UNL     1     -11.791  69.555  20.616  1.00  0.00     0.114 N 
HETATM   20  C9  UNL     1     -11.942  69.630  19.147  1.00  0.00     0.276 C 
HETATM   21  C10 UNL     1     -12.024  68.236  18.543  1.00  0.00     0.049 C 
HETATM   22  C11 UNL     1     -13.096  67.425  19.249  1.00  0.00     0.117 C 
HETATM   23  N9  UNL     1     -13.795  68.314  20.121  1.00  0.00    -0.398 N 
HETATM   24  C12 UNL     1     -13.018  68.926  21.147  1.00  0.00     0.391 C 
ATOM     25  H9  UNL     1     -14.793  68.500  20.016  1.00  0.00     0.154 HD
ENDBRANCH  18  19
ENDBRANCH  15  18
ENDBRANCH  13  14
ENDBRANCH  12  13
ENDBRANCH   8  12
BRANCH   4  26
HETATM   26  N3  UNL     1      -7.606  71.116  28.470  1.00  0.00    -0.138 N 
ATOM     27  H3  UNL     1      -7.853  71.404  29.416  1.00  0.00     0.205 HD
BRANCH  26  28
HETATM   28  N4  UNL     1      -7.639  69.765  28.203  1.00  0.00    -0.331 N 
ATOM     29  H42 UNL     1      -7.185  69.168  28.894  1.00  0.00     0.177 HD
ATOM     30  H41 UNL     1      -8.068  69.318  27.392  1.00  0.00     0.177 HD
ENDBRANCH  26  28
ENDBRANCH   4  26
BRANCH   1  31
HETATM   31  N1  UNL     1      -5.275  74.890  27.471  1.00  0.00    -0.229 N 
HETATM   32  C1  UNL     1      -5.128  76.096  26.708  1.00  0.00     0.165 C 
ATOM     33  H1  UNL     1      -4.702  74.754  28.303  1.00  0.00     0.177 HD
ENDBRANCH   1  31
TORSDOF 8
ENDMDL
MODEL 5
REMARK VINA RESULT: -5.335226847      2.198      3.446
REMARK  8 active torsions:
REMARK  status: ('A' for Active; 'I' for Inactive)
REMARK    1  A    between atoms: N1_2  and  C2_4 
REMARK    2  A    between atoms: C3_7  and  N3_8 
REMARK    3  A    between atoms: N3_8  and  N4_10 
REMARK    4  A    between atoms: N6_16  and  C5_18 
REMARK    5  A    between atoms: C5_18  and  C6_19 
REMARK    6  A    between atoms: C6_19  and  N7_20 
REMARK       I    between atoms: N7_20  and  C7_22 
REMARK    7  A    between atoms: C7_22  and  C8_24 
REMARK    8  A    between atoms: C8_24  and  N8_25 
ROOT
HETATM    1  C2  UNL     1      -6.440  75.709  25.571  1.00  0.00     0.706 A 
HETATM    2  N2  UNL     1      -5.819  74.637  25.028  1.00  0.00    -0.020 N 
ATOM      3  H2  UNL     1      -4.972  74.251  25.446  1.00  0.00     0.203 HD
HETATM    4  C3  UNL     1      -6.348  74.099  23.929  1.00  0.00     0.725 A 
HETATM    5  N5  UNL     1      -7.463  74.603  23.376  1.00  0.00    -0.020 N 
ATOM      6  H5  UNL     1      -7.833  74.160  22.535  1.00  0.00     0.203 HD
HETATM    7  C4  UNL     1      -8.113  75.667  23.881  1.00  0.00     0.707 A 
HETATM    8  N6  UNL     1      -9.189  76.178  23.405  1.00  0.00    -0.224 N 
ATOM      9  H6  UNL     1      -9.612  76.989  23.856  1.00  0.00     0.177 HD
HETATM   10  N10 UNL     1      -7.550  76.204  25.013  1.00  0.00    -0.022 N 
ATOM     11  H10 UNL     1      -7.997  77.013  25.445  1.00  0.00     0.203 HD
ENDROOT
BRANCH   8  12
HETATM   12  C5  UNL     1      -9.801  75.607  22.235  1.00  0.00     0.157 C 
BRANCH  12  13
HETATM   13  C6  UNL     1     -10.906  74.644  22.646  1.00  0.00     0.143 C 
BRANCH  13  14
HETATM   14  N7  UNL     1     -10.786  73.458  21.830  1.00  0.00    -0.358 N 
HETATM   15  C7  UNL     1     -10.090  72.348  22.348  1.00  0.00     0.246 C 
HETATM   16  O1  UNL     1      -9.569  72.419  23.530  1.00  0.00    -0.272 OA
ATOM     17  H7  UNL     1     -11.196  73.426  20.896  1.00  0.00     0.162 HD
BRANCH  15  18
HETATM   18  C8  UNL     1      -9.942  71.113  21.565  1.00  0.00     0.376 C 
BRANCH  18  19
HETATM   19  N8  UNL     1     -10.675  70.025  22.182  1.00  0.00     0.114 N 
HETATM   20  C9  UNL     1     -12.070  70.082  21.697  1.00  0.00     0.276 C 
HETATM   21  C10 UNL     1     -12.110  70.088  20.175  1.00  0.00     0.049 C 
HETATM   22  C11 UNL     1     -11.296  68.928  19.629  1.00  0.00     0.117 C 
HETATM   23  N9  UNL     1     -10.922  68.112  20.739  1.00  0.00    -0.398 N 
HETATM   24  C12 UNL     1     -10.110  68.737  21.731  1.00  0.00     0.391 C 
ATOM     25  H9  UNL     1     -11.217  67.139  20.818  1.00  0.00     0.154 HD
ENDBRANCH  18  19
ENDBRANCH  15  18
ENDBRANCH  13  14
ENDBRANCH  12  13
ENDBRANCH   8  12
BRANCH   4  26
HETATM   26  N3  UNL     1      -5.791  73.082  23.391  1.00  0.00    -0.138 N 
ATOM     27  H3  UNL     1      -4.784  73.137  23.240  1.00  0.00     0.205 HD
BRANCH  26  28
HETATM   28  N4  UNL     1      -6.415  71.919  22.998  1.00  0.00    -0.331 N 
ATOM     29  H42 UNL     1      -6.647  71.856  22.006  1.00  0.00     0.177 HD
ATOM     30  H41 UNL     1      -6.661  71.130  23.596  1.00  0.00     0.177 HD
ENDBRANCH  26  28
ENDBRANCH   4  26
BRANCH   1  31
HETATM   31  N1  UNL     1      -5.930  76.249  26.651  1.00  0.00    -0.229 N 
HETATM   32  C1  UNL     1      -4.533  76.559  26.747  1.00  0.00     0.165 C 
ATOM     33  H1  UNL     1      -6.541  76.454  27.441  1.00  0.00     0.177 HD
ENDBRANCH   1  31
TORSDOF 8
ENDMDL
