MODEL 1
REMARK VINA RESULT: -6.639262615      0.000      0.000
REMARK  8 active torsions:
REMARK  status: ('A' for Active; 'I' for Inactive)
REMARK       I    between atoms: C1_4  and  N3_6 
REMARK    1  A    between atoms: N3_6  and  C2_8 
REMARK    2  A    between atoms: C2_8  and  C3_9 
REMARK    3  A    between atoms: C3_9  and  C4_10 
REMARK    4  A    between atoms: C4_10  and  N4_11 
REMARK    5  A    between atoms: C7_15  and  C8_16 
REMARK    6  A    between atoms: C8_16  and  S1_17 
REMARK    7  A    between atoms: S1_17  and  C9_19 
REMARK    8  A    between atoms: C9_19  and  O3_20 
ROOT
HETATM    1  N4  UNL     1     -10.474  71.700  22.278  1.00  0.00    -0.277 N 
HETATM    2  C5  UNL     1     -11.791  71.624  21.963  1.00  0.00     0.252 C 
HETATM    3  O1  UNL     1     -12.558  72.326  22.662  1.00  0.00    -0.268 OA
HETATM    4  C6  UNL     1     -12.408  70.878  20.975  1.00  0.00     0.100 C 
HETATM    5  C7  UNL     1     -11.830  70.183  19.906  1.00  0.00     0.029 C 
HETATM    6  N5  UNL     1     -10.559  69.739  19.879  1.00  0.00    -0.322 N 
ATOM      7  H5  UNL     1     -10.302  69.206  19.048  1.00  0.00     0.169 HD
HETATM    8  C10 UNL     1      -9.569  69.896  20.796  1.00  0.00     0.314 C 
HETATM    9  O4  UNL     1      -8.609  69.074  20.742  1.00  0.00    -0.262 OA
HETATM   10  C11 UNL     1      -9.531  70.874  21.774  1.00  0.00     0.318 C 
HETATM   11  O5  UNL     1      -8.410  71.050  22.315  1.00  0.00    -0.262 OA
ENDROOT
BRANCH   1  12
HETATM   12  C4  UNL     1     -10.059  72.729  23.214  1.00  0.00     0.137 C 
BRANCH  12  13
HETATM   13  C3  UNL     1      -9.749  74.033  22.516  1.00  0.00     0.040 C 
BRANCH  13  14
HETATM   14  C2  UNL     1      -8.541  74.620  23.259  1.00  0.00     0.124 C 
BRANCH  14  15
HETATM   15  N3  UNL     1      -7.580  73.575  23.471  1.00  0.00    -0.365 N 
HETATM   16  C1  UNL     1      -6.240  73.937  23.819  1.00  0.00     0.181 C 
HETATM   17  N1  UNL     1      -5.291  73.221  23.332  1.00  0.00    -0.374 N 
HETATM   18  N2  UNL     1      -5.957  75.036  24.662  1.00  0.00    -0.064 NA
ATOM     19  H12 UNL     1      -4.336  73.478  23.581  1.00  0.00     0.158 HD
ATOM     20  H11 UNL     1      -5.494  72.427  22.724  1.00  0.00     0.158 HD
ATOM     21  H3  UNL     1      -7.846  72.595  23.375  1.00  0.00     0.162 HD
ENDBRANCH  14  15
ENDBRANCH  13  14
ENDBRANCH  12  13
ENDBRANCH   1  12
BRANCH   5  22
HETATM   22  C8  UNL     1     -12.697  69.936  18.750  1.00  0.00     0.168 C 
BRANCH  22  23
HETATM   23  S1  UNL     1     -12.805  68.247  18.266  1.00  0.00     0.044 S 
HETATM   24  O2  UNL     1     -11.276  67.824  17.652  1.00  0.00    -0.256 OA
BRANCH  23  25
HETATM   25  C9  UNL     1     -13.050  67.185  19.691  1.00  0.00     0.272 C 
BRANCH  25  26
HETATM   26  O3  UNL     1     -12.994  65.852  19.335  1.00  0.00    -0.389 OA
ATOM     27  H3  UNL     1     -12.597  65.330  20.023  1.00  0.00     0.210 HD
ENDBRANCH  25  26
ENDBRANCH  23  25
ENDBRANCH  22  23
ENDBRANCH   5  22
TORSDOF 8
ENDMDL
MODEL 2
REMARK VINA RESULT: -6.491396760      3.072      7.137
REMARK  8 active torsions:
REMARK  status: ('A' for Active; 'I' for Inactive)
REMARK       I    between atoms: C1_4  and  N3_6 
REMARK    1  A    between atoms: N3_6  and  C2_8 
REMARK    2  A    between atoms: C2_8  and  C3_9 
REMARK    3  A    between atoms: C3_9  and  C4_10 
REMARK    4  A    between atoms: C4_10  and  N4_11 
REMARK    5  A    between atoms: C7_15  and  C8_16 
REMARK    6  A    between atoms: C8_16  and  S1_17 
REMARK    7  A    between atoms: S1_17  and  C9_19 
REMARK    8  A    between atoms: C9_19  and  O3_20 
ROOT
HETATM    1  N4  UNL     1     -11.202  71.139  19.967  1.00  0.00    -0.277 N 
HETATM    2  C5  UNL     1     -11.127  72.450  20.307  1.00  0.00     0.252 C 
HETATM    3  O1  UNL     1     -11.836  73.229  19.628  1.00  0.00    -0.268 OA
HETATM    4  C6  UNL     1     -10.375  73.049  21.301  1.00  0.00     0.100 C 
HETATM    5  C7  UNL     1      -9.670  72.453  22.354  1.00  0.00     0.029 C 
HETATM    6  N5  UNL     1      -9.223  71.183  22.352  1.00  0.00    -0.322 N 
ATOM      7  H5  UNL     1      -8.683  70.911  23.173  1.00  0.00     0.169 HD
HETATM    8  C10 UNL     1      -9.385  70.210  21.418  1.00  0.00     0.314 C 
HETATM    9  O4  UNL     1      -8.560  69.251  21.447  1.00  0.00    -0.262 OA
HETATM   10  C11 UNL     1     -10.370  70.189  20.446  1.00  0.00     0.318 C 
HETATM   11  O5  UNL     1     -10.548  69.078  19.885  1.00  0.00    -0.262 OA
ENDROOT
BRANCH   1  12
HETATM   12  C4  UNL     1     -12.237  70.739  19.031  1.00  0.00     0.137 C 
BRANCH  12  13
HETATM   13  C3  UNL     1     -13.556  70.487  19.725  1.00  0.00     0.040 C 
BRANCH  13  14
HETATM   14  C2  UNL     1     -14.088  69.174  19.132  1.00  0.00     0.124 C 
BRANCH  14  15
HETATM   15  N3  UNL     1     -13.434  68.077  19.787  1.00  0.00    -0.365 N 
HETATM   16  C1  UNL     1     -12.898  67.020  18.984  1.00  0.00     0.181 C 
HETATM   17  N1  UNL     1     -12.986  65.826  19.448  1.00  0.00    -0.374 N 
HETATM   18  N2  UNL     1     -12.296  67.267  17.729  1.00  0.00    -0.064 NA
ATOM     19  H12 UNL     1     -12.604  65.072  18.876  1.00  0.00     0.158 HD
ATOM     20  H11 UNL     1     -13.420  65.648  20.354  1.00  0.00     0.158 HD
ATOM     21  H3  UNL     1     -13.352  68.051  20.804  1.00  0.00     0.162 HD
ENDBRANCH  14  15
ENDBRANCH  13  14
ENDBRANCH  12  13
ENDBRANCH   1  12
BRANCH   5  22
HETATM   22  C8  UNL     1      -9.416  73.298  23.524  1.00  0.00     0.168 C 
BRANCH  22  23
HETATM   23  S1  UNL     1      -7.826  74.050  23.550  1.00  0.00     0.044 S 
HETATM   24  O2  UNL     1      -7.848  75.181  24.820  1.00  0.00    -0.256 OA
BRANCH  23  25
HETATM   25  C9  UNL     1      -6.560  72.861  24.002  1.00  0.00     0.272 C 
BRANCH  25  26
HETATM   26  O3  UNL     1      -6.299  71.990  22.964  1.00  0.00    -0.389 OA
ATOM     27  H3  UNL     1      -6.557  71.103  23.186  1.00  0.00     0.210 HD
ENDBRANCH  25  26
ENDBRANCH  23  25
ENDBRANCH  22  23
ENDBRANCH   5  22
TORSDOF 8
ENDMDL
MODEL 3
REMARK VINA RESULT: -6.109640354      0.956      1.381
REMARK  8 active torsions:
REMARK  status: ('A' for Active; 'I' for Inactive)
REMARK       I    between atoms: C1_4  and  N3_6 
REMARK    1  A    between atoms: N3_6  and  C2_8 
REMARK    2  A    between atoms: C2_8  and  C3_9 
REMARK    3  A    between atoms: C3_9  and  C4_10 
REMARK    4  A    between atoms: C4_10  and  N4_11 
REMARK    5  A    between atoms: C7_15  and  C8_16 
REMARK    6  A    between atoms: C8_16  and  S1_17 
REMARK    7  A    between atoms: S1_17  and  C9_19 
REMARK    8  A    between atoms: C9_19  and  O3_20 
ROOT
HETATM    1  N4  UNL     1     -10.297  71.443  22.811  1.00  0.00    -0.277 N 
HETATM    2  C5  UNL     1     -11.621  71.153  22.864  1.00  0.00     0.252 C 
HETATM    3  O1  UNL     1     -12.267  71.733  23.769  1.00  0.00    -0.268 OA
HETATM    4  C6  UNL     1     -12.360  70.307  22.059  1.00  0.00     0.100 C 
HETATM    5  C7  UNL     1     -11.997  69.700  20.850  1.00  0.00     0.029 C 
HETATM    6  N5  UNL     1     -10.729  69.465  20.464  1.00  0.00    -0.322 N 
ATOM      7  H5  UNL     1     -10.630  68.970  19.577  1.00  0.00     0.169 HD
HETATM    8  C10 UNL     1      -9.563  69.789  21.080  1.00  0.00     0.314 C 
HETATM    9  O4  UNL     1      -8.537  69.131  20.739  1.00  0.00    -0.262 OA
HETATM   10  C11 UNL     1      -9.411  70.772  22.042  1.00  0.00     0.318 C 
HETATM   11  O5  UNL     1      -8.227  71.132  22.262  1.00  0.00    -0.262 OA
ENDROOT
BRANCH   1  12
HETATM   12  C4  UNL     1      -9.807  72.536  23.630  1.00  0.00     0.137 C 
BRANCH  12  13
HETATM   13  C3  UNL     1      -9.781  73.842  22.870  1.00  0.00     0.040 C 
BRANCH  13  14
HETATM   14  C2  UNL     1      -8.481  74.539  23.296  1.00  0.00     0.124 C 
BRANCH  14  15
HETATM   15  N3  UNL     1      -7.470  73.540  23.500  1.00  0.00    -0.365 N 
HETATM   16  C1  UNL     1      -6.147  73.964  23.844  1.00  0.00     0.181 C 
HETATM   17  N1  UNL     1      -5.168  73.295  23.351  1.00  0.00    -0.374 N 
HETATM   18  N2  UNL     1      -5.914  75.073  24.689  1.00  0.00    -0.064 NA
ATOM     19  H12 UNL     1      -4.225  73.596  23.596  1.00  0.00     0.158 HD
ATOM     20  H11 UNL     1      -5.336  72.494  22.741  1.00  0.00     0.158 HD
ATOM     21  H3  UNL     1      -7.691  72.549  23.403  1.00  0.00     0.162 HD
ENDBRANCH  14  15
ENDBRANCH  13  14
ENDBRANCH  12  13
ENDBRANCH   1  12
BRANCH   5  22
HETATM   22  C8  UNL     1     -13.098  69.304  19.968  1.00  0.00     0.168 C 
BRANCH  22  23
HETATM   23  S1  UNL     1     -13.034  67.631  19.426  1.00  0.00     0.044 S 
HETATM   24  O2  UNL     1     -14.639  67.165  19.110  1.00  0.00    -0.256 OA
BRANCH  23  25
HETATM   25  C9  UNL     1     -12.186  67.497  17.850  1.00  0.00     0.272 C 
BRANCH  25  26
HETATM   26  O3  UNL     1     -11.395  68.604  17.614  1.00  0.00    -0.389 OA
ATOM     27  H3  UNL     1     -11.925  69.371  17.431  1.00  0.00     0.210 HD
ENDBRANCH  25  26
ENDBRANCH  23  25
ENDBRANCH  22  23
ENDBRANCH   5  22
TORSDOF 8
ENDMDL
MODEL 4
REMARK VINA RESULT: -6.054224836      1.348      1.435
REMARK  8 active torsions:
REMARK  status: ('A' for Active; 'I' for Inactive)
REMARK       I    between atoms: C1_4  and  N3_6 
REMARK    1  A    between atoms: N3_6  and  C2_8 
REMARK    2  A    between atoms: C2_8  and  C3_9 
REMARK    3  A    between atoms: C3_9  and  C4_10 
REMARK    4  A    between atoms: C4_10  and  N4_11 
REMARK    5  A    between atoms: C7_15  and  C8_16 
REMARK    6  A    between atoms: C8_16  and  S1_17 
REMARK    7  A    between atoms: S1_17  and  C9_19 
REMARK    8  A    between atoms: C9_19  and  O3_20 
ROOT
HETATM    1  N4  UNL     1     -10.217  71.058  23.064  1.00  0.00    -0.277 N 
HETATM    2  C5  UNL     1     -11.458  70.606  23.371  1.00  0.00     0.252 C 
HETATM    3  O1  UNL     1     -11.971  71.089  24.407  1.00  0.00    -0.268 OA
HETATM    4  C6  UNL     1     -12.239  69.684  22.699  1.00  0.00     0.100 C 
HETATM    5  C7  UNL     1     -12.059  69.141  21.421  1.00  0.00     0.029 C 
HETATM    6  N5  UNL     1     -10.877  69.070  20.780  1.00  0.00    -0.322 N 
ATOM      7  H5  UNL     1     -10.902  68.602  19.874  1.00  0.00     0.169 HD
HETATM    8  C10 UNL     1      -9.657  69.530  21.161  1.00  0.00     0.314 C 
HETATM    9  O4  UNL     1      -8.651  69.009  20.598  1.00  0.00    -0.262 OA
HETATM   10  C11 UNL     1      -9.432  70.513  22.110  1.00  0.00     0.318 C 
HETATM   11  O5  UNL     1      -8.280  71.014  22.101  1.00  0.00    -0.262 OA
ENDROOT
BRANCH   1  12
HETATM   12  C4  UNL     1      -9.705  72.194  23.809  1.00  0.00     0.137 C 
BRANCH  12  13
HETATM   13  C3  UNL     1      -9.905  73.493  23.062  1.00  0.00     0.040 C 
BRANCH  13  14
HETATM   14  C2  UNL     1      -8.621  74.302  23.296  1.00  0.00     0.124 C 
BRANCH  14  15
HETATM   15  N3  UNL     1      -7.534  73.387  23.506  1.00  0.00    -0.365 N 
HETATM   16  C1  UNL     1      -6.242  73.918  23.818  1.00  0.00     0.181 C 
HETATM   17  N1  UNL     1      -5.222  73.313  23.324  1.00  0.00    -0.374 N 
HETATM   18  N2  UNL     1      -6.081  75.062  24.632  1.00  0.00    -0.064 NA
ATOM     19  H12 UNL     1      -4.301  73.692  23.546  1.00  0.00     0.158 HD
ATOM     20  H11 UNL     1      -5.338  72.488  22.735  1.00  0.00     0.158 HD
ATOM     21  H3  UNL     1      -7.680  72.380  23.435  1.00  0.00     0.162 HD
ENDBRANCH  14  15
ENDBRANCH  13  14
ENDBRANCH  12  13
ENDBRANCH   1  12
BRANCH   5  22
HETATM   22  C8  UNL     1     -13.261  68.621  20.763  1.00  0.00     0.168 C 
BRANCH  22  23
HETATM   23  S1  UNL     1     -13.088  68.356  19.032  1.00  0.00     0.044 S 
HETATM   24  O2  UNL     1     -12.442  66.793  18.846  1.00  0.00    -0.256 OA
BRANCH  23  25
HETATM   25  C9  UNL     1     -14.691  68.300  18.227  1.00  0.00     0.272 C 
BRANCH  25  26
HETATM   26  O3  UNL     1     -15.401  67.179  18.605  1.00  0.00    -0.389 OA
ATOM     27  H3  UNL     1     -15.492  67.132  19.550  1.00  0.00     0.210 HD
ENDBRANCH  25  26
ENDBRANCH  23  25
ENDBRANCH  22  23
ENDBRANCH   5  22
TORSDOF 8
ENDMDL
MODEL 5
REMARK VINA RESULT: -6.041073269      3.923      4.935
REMARK  8 active torsions:
REMARK  status: ('A' for Active; 'I' for Inactive)
REMARK       I    between atoms: C1_4  and  N3_6 
REMARK    1  A    between atoms: N3_6  and  C2_8 
REMARK    2  A    between atoms: C2_8  and  C3_9 
REMARK    3  A    between atoms: C3_9  and  C4_10 
REMARK    4  A    between atoms: C4_10  and  N4_11 
REMARK    5  A    between atoms: C7_15  and  C8_16 
REMARK    6  A    between atoms: C8_16  and  S1_17 
REMARK    7  A    between atoms: S1_17  and  C9_19 
REMARK    8  A    between atoms: C9_19  and  O3_20 
ROOT
HETATM    1  N4  UNL     1      -8.476  72.343  25.534  1.00  0.00    -0.277 N 
HETATM    2  C5  UNL     1      -9.596  71.678  25.158  1.00  0.00     0.252 C 
HETATM    3  O1  UNL     1     -10.412  71.427  26.076  1.00  0.00    -0.268 OA
HETATM    4  C6  UNL     1      -9.966  71.235  23.901  1.00  0.00     0.100 C 
HETATM    5  C7  UNL     1      -9.401  71.544  22.658  1.00  0.00     0.029 C 
HETATM    6  N5  UNL     1      -8.137  71.969  22.476  1.00  0.00    -0.322 N 
ATOM      7  H5  UNL     1      -7.860  72.105  21.503  1.00  0.00     0.169 HD
HETATM    8  C10 UNL     1      -7.176  72.244  23.396  1.00  0.00     0.314 C 
HETATM    9  O4  UNL     1      -5.979  72.242  22.986  1.00  0.00    -0.262 OA
HETATM   10  C11 UNL     1      -7.404  72.524  24.732  1.00  0.00     0.318 C 
HETATM   11  O5  UNL     1      -6.440  73.050  25.343  1.00  0.00    -0.262 OA
ENDROOT
BRANCH   1  12
HETATM   12  C4  UNL     1      -8.431  72.892  26.877  1.00  0.00     0.137 C 
BRANCH  12  13
HETATM   13  C3  UNL     1      -7.554  72.068  27.792  1.00  0.00     0.040 C 
BRANCH  13  14
HETATM   14  C2  UNL     1      -8.419  71.760  29.023  1.00  0.00     0.124 C 
BRANCH  14  15
HETATM   15  N3  UNL     1      -9.344  70.715  28.684  1.00  0.00    -0.365 N 
HETATM   16  C1  UNL     1      -8.827  69.415  28.382  1.00  0.00     0.181 C 
HETATM   17  N1  UNL     1      -9.418  68.747  27.457  1.00  0.00    -0.374 N 
HETATM   18  N2  UNL     1      -7.712  68.877  29.063  1.00  0.00    -0.064 NA
ATOM     19  H12 UNL     1      -9.051  67.820  27.242  1.00  0.00     0.158 HD
ATOM     20  H11 UNL     1     -10.224  69.136  26.965  1.00  0.00     0.158 HD
ATOM     21  H3  UNL     1     -10.347  70.896  28.659  1.00  0.00     0.162 HD
ENDBRANCH  14  15
ENDBRANCH  13  14
ENDBRANCH  12  13
ENDBRANCH   1  12
BRANCH   5  22
HETATM   22  C8  UNL     1     -10.274  71.379  21.491  1.00  0.00     0.168 C 
BRANCH  22  23
HETATM   23  S1  UNL     1     -10.114  69.830  20.672  1.00  0.00     0.044 S 
HETATM   24  O2  UNL     1      -8.535  69.281  20.984  1.00  0.00    -0.256 OA
BRANCH  23  25
HETATM   25  C9  UNL     1     -11.194  68.600  21.408  1.00  0.00     0.272 C 
BRANCH  25  26
HETATM   26  O3  UNL     1     -10.553  67.384  21.531  1.00  0.00    -0.389 OA
ATOM     27  H3  UNL     1      -9.705  67.483  21.948  1.00  0.00     0.210 HD
ENDBRANCH  25  26
ENDBRANCH  23  25
ENDBRANCH  22  23
ENDBRANCH   5  22
TORSDOF 8
ENDMDL
