MODEL 1
REMARK VINA RESULT: -5.865741198      0.000      0.000
REMARK  11 active torsions:
REMARK  status: ('A' for Active; 'I' for Inactive)
REMARK    1  A    between atoms: O1_2  and  C2_3 
REMARK    2  A    between atoms: C2_3  and  O2_4 
REMARK    3  A    between atoms: C2_3  and  N1_6 
REMARK    4  A    between atoms: N1_6  and  O3_7 
REMARK    5  A    between atoms: N1_6  and  N2_9 
REMARK    6  A    between atoms: N3_10  and  O4_11 
REMARK    7  A    between atoms: O4_11  and  N4_12 
REMARK    8  A    between atoms: C3_16  and  N6_17 
REMARK    9  A    between atoms: C4_23  and  C6_25 
REMARK   10  A    between atoms: C9_29  and  O6_30 
REMARK   11  A    between atoms: C11_34  and  C12_35 
ROOT
HETATM    1  N2  UNL     1      13.915  14.658   4.168  1.00  0.00    -0.147 N 
HETATM    2  N3  UNL     1      14.202  13.584   3.420  1.00  0.00    -0.053 N 
HETATM    3  N5  UNL     1      14.789  12.508   4.048  1.00  0.00    -0.037 NA
HETATM    4  C3  UNL     1      14.328  12.336   5.406  1.00  0.00     0.398 C 
HETATM    5  N7  UNL     1      13.133  13.071   5.690  1.00  0.00    -0.348 N 
ATOM      6  H7  UNL     1      12.309  12.621   6.090  1.00  0.00     0.159 HD
HETATM    7  C4  UNL     1      13.154  14.466   5.384  1.00  0.00     0.189 C 
HETATM    8  C5  UNL     1      11.749  14.930   5.066  1.00  0.00     0.074 C 
ENDROOT
BRANCH   7   9
HETATM    9  C6  UNL     1      13.701  15.349   6.424  1.00  0.00     0.125 A 
HETATM   10  O5  UNL     1      14.377  16.444   6.044  1.00  0.00    -0.311 OA
HETATM   11  C7  UNL     1      14.911  17.316   6.841  1.00  0.00     0.086 A 
HETATM   12  C8  UNL     1      15.653  18.517   6.361  1.00  0.00     0.079 C 
HETATM   13  C9  UNL     1      14.812  17.162   8.206  1.00  0.00     0.147 A 
HETATM   14  C10 UNL     1      14.142  16.075   8.676  1.00  0.00     0.227 A 
HETATM   15  O7  UNL     1      14.045  15.923   9.916  1.00  0.00    -0.284 OA
HETATM   16  C11 UNL     1      13.578  15.152   7.756  1.00  0.00     0.127 A 
BRANCH  13  17
HETATM   17  O6  UNL     1      15.391  18.109   9.072  1.00  0.00    -0.355 OA
ATOM     18  H6  UNL     1      14.842  18.655   9.623  1.00  0.00     0.218 HD
ENDBRANCH  13  17
BRANCH  16  19
HETATM   19  C12 UNL     1      12.945  14.037   8.368  1.00  0.00     0.216 C 
HETATM   20  O8  UNL     1      11.759  13.853   8.607  1.00  0.00    -0.644 OA
HETATM   21  O9  UNL     1      13.747  12.935   8.792  1.00  0.00    -0.644 OA
ENDBRANCH  16  19
ENDBRANCH   7   9
BRANCH   1  22
HETATM   22  N1  UNL     1      14.323  15.875   3.803  1.00  0.00    -0.012 NA
BRANCH  22  23
HETATM   23  C2  UNL     1      15.744  15.848   3.399  1.00  0.00     0.390 C 
BRANCH  23  24
HETATM   24  O1  UNL     1      15.841  15.435   2.094  1.00  0.00    -0.351 OA
HETATM   25  C1  UNL     1      17.061  14.940   1.711  1.00  0.00     0.206 C 
ENDBRANCH  23  24
BRANCH  23  26
HETATM   26  O2  UNL     1      16.529  15.108   4.266  1.00  0.00    -0.356 OA
ATOM     27  H2  UNL     1      16.633  14.204   3.997  1.00  0.00     0.214 HD
ENDBRANCH  23  26
ENDBRANCH  22  23
BRANCH  22  28
HETATM   28  O3  UNL     1      13.699  16.474   2.760  1.00  0.00    -0.188 OA
HETATM   29  S1  UNL     1      13.486  18.145   2.943  1.00  0.00     0.120 SA
ENDBRANCH  22  28
ENDBRANCH   1  22
BRANCH   2  30
HETATM   30  O4  UNL     1      13.256  13.160   2.568  1.00  0.00    -0.127 OA
BRANCH  30  31
HETATM   31  N4  UNL     1      13.132  13.938   1.473  1.00  0.00    -0.283 N 
ATOM     32  H42 UNL     1      13.484  14.895   1.440  1.00  0.00     0.186 HD
ATOM     33  H41 UNL     1      12.658  13.475   0.698  1.00  0.00     0.186 HD
ENDBRANCH  30  31
ENDBRANCH   2  30
BRANCH   4  34
HETATM   34  N6  UNL     1      14.026  10.927   5.566  1.00  0.00    -0.043 N 
ATOM     35  H63 UNL     1      13.412  10.561   4.838  1.00  0.00     0.278 HD
ATOM     36  H62 UNL     1      14.823  10.319   5.378  1.00  0.00     0.278 HD
ATOM     37  H61 UNL     1      13.648  10.814   6.507  1.00  0.00     0.278 HD
ENDBRANCH   4  34
TORSDOF 11
ENDMDL
MODEL 2
REMARK VINA RESULT: -5.799237287      1.049      1.228
REMARK  11 active torsions:
REMARK  status: ('A' for Active; 'I' for Inactive)
REMARK    1  A    between atoms: O1_2  and  C2_3 
REMARK    2  A    between atoms: C2_3  and  O2_4 
REMARK    3  A    between atoms: C2_3  and  N1_6 
REMARK    4  A    between atoms: N1_6  and  O3_7 
REMARK    5  A    between atoms: N1_6  and  N2_9 
REMARK    6  A    between atoms: N3_10  and  O4_11 
REMARK    7  A    between atoms: O4_11  and  N4_12 
REMARK    8  A    between atoms: C3_16  and  N6_17 
REMARK    9  A    between atoms: C4_23  and  C6_25 
REMARK   10  A    between atoms: C9_29  and  O6_30 
REMARK   11  A    between atoms: C11_34  and  C12_35 
ROOT
HETATM    1  N2  UNL     1      14.258  14.672   4.193  1.00  0.00    -0.147 N 
HETATM    2  N3  UNL     1      14.844  13.905   3.264  1.00  0.00    -0.053 N 
HETATM    3  N5  UNL     1      15.994  13.238   3.621  1.00  0.00    -0.037 NA
HETATM    4  C3  UNL     1      15.989  12.816   5.001  1.00  0.00     0.398 C 
HETATM    5  N7  UNL     1      14.687  12.856   5.595  1.00  0.00    -0.348 N 
ATOM      6  H7  UNL     1      14.288  12.046   6.070  1.00  0.00     0.159 HD
HETATM    7  C4  UNL     1      13.974  14.090   5.487  1.00  0.00     0.189 C 
HETATM    8  C5  UNL     1      12.487  13.811   5.494  1.00  0.00     0.074 C 
ENDROOT
BRANCH   7   9
HETATM    9  C6  UNL     1      14.255  15.093   6.525  1.00  0.00     0.125 A 
HETATM   10  O5  UNL     1      14.881  16.225   6.168  1.00  0.00    -0.311 OA
HETATM   11  C7  UNL     1      15.191  17.199   6.965  1.00  0.00     0.086 A 
HETATM   12  C8  UNL     1      15.889  18.436   6.512  1.00  0.00     0.079 C 
HETATM   13  C9  UNL     1      14.879  17.127   8.305  1.00  0.00     0.147 A 
HETATM   14  C10 UNL     1      14.243  16.009   8.750  1.00  0.00     0.227 A 
HETATM   15  O7  UNL     1      13.954  15.931   9.967  1.00  0.00    -0.284 OA
HETATM   16  C11 UNL     1      13.929  14.973   7.831  1.00  0.00     0.127 A 
BRANCH  13  17
HETATM   17  O6  UNL     1      15.214  18.185   9.171  1.00  0.00    -0.355 OA
ATOM     18  H6  UNL     1      16.124  18.413   9.321  1.00  0.00     0.218 HD
ENDBRANCH  13  17
BRANCH  16  19
HETATM   19  C12 UNL     1      13.308  13.841   8.424  1.00  0.00     0.216 C 
HETATM   20  O8  UNL     1      13.797  12.768   8.745  1.00  0.00    -0.644 OA
HETATM   21  O9  UNL     1      11.912  13.895   8.717  1.00  0.00    -0.644 OA
ENDBRANCH  16  19
ENDBRANCH   7   9
BRANCH   1  22
HETATM   22  N1  UNL     1      13.947  15.943   3.933  1.00  0.00    -0.012 NA
BRANCH  22  23
HETATM   23  C2  UNL     1      15.035  16.604   3.185  1.00  0.00     0.390 C 
BRANCH  23  24
HETATM   24  O1  UNL     1      14.895  16.340   1.844  1.00  0.00    -0.351 OA
HETATM   25  C1  UNL     1      16.027  16.484   1.083  1.00  0.00     0.206 C 
ENDBRANCH  23  24
BRANCH  23  26
HETATM   26  O2  UNL     1      16.289  16.284   3.675  1.00  0.00    -0.356 OA
ATOM     27  H2  UNL     1      16.686  15.543   3.234  1.00  0.00     0.214 HD
ENDBRANCH  23  26
ENDBRANCH  22  23
BRANCH  22  28
HETATM   28  O3  UNL     1      12.842  16.193   3.190  1.00  0.00    -0.188 OA
HETATM   29  S1  UNL     1      11.748  17.269   3.909  1.00  0.00     0.120 SA
ENDBRANCH  22  28
ENDBRANCH   1  22
BRANCH   2  30
HETATM   30  O4  UNL     1      14.048  13.098   2.545  1.00  0.00    -0.127 OA
BRANCH  30  31
HETATM   31  N4  UNL     1      13.246  13.761   1.687  1.00  0.00    -0.283 N 
ATOM     32  H42 UNL     1      12.361  14.177   1.977  1.00  0.00     0.186 HD
ATOM     33  H41 UNL     1      13.613  13.801   0.737  1.00  0.00     0.186 HD
ENDBRANCH  30  31
ENDBRANCH   2  30
BRANCH   4  34
HETATM   34  N6  UNL     1      16.436  11.437   5.016  1.00  0.00    -0.043 N 
ATOM     35  H63 UNL     1      15.679  10.766   4.884  1.00  0.00     0.278 HD
ATOM     36  H62 UNL     1      16.979  11.180   4.192  1.00  0.00     0.278 HD
ATOM     37  H61 UNL     1      16.944  11.303   5.891  1.00  0.00     0.278 HD
ENDBRANCH   4  34
TORSDOF 11
ENDMDL
MODEL 3
REMARK VINA RESULT: -5.689161597      2.478      4.729
REMARK  11 active torsions:
REMARK  status: ('A' for Active; 'I' for Inactive)
REMARK    1  A    between atoms: O1_2  and  C2_3 
REMARK    2  A    between atoms: C2_3  and  O2_4 
REMARK    3  A    between atoms: C2_3  and  N1_6 
REMARK    4  A    between atoms: N1_6  and  O3_7 
REMARK    5  A    between atoms: N1_6  and  N2_9 
REMARK    6  A    between atoms: N3_10  and  O4_11 
REMARK    7  A    between atoms: O4_11  and  N4_12 
REMARK    8  A    between atoms: C3_16  and  N6_17 
REMARK    9  A    between atoms: C4_23  and  C6_25 
REMARK   10  A    between atoms: C9_29  and  O6_30 
REMARK   11  A    between atoms: C11_34  and  C12_35 
ROOT
HETATM    1  N2  UNL     1      13.857  14.931   6.215  1.00  0.00    -0.147 N 
HETATM    2  N3  UNL     1      14.977  14.301   5.837  1.00  0.00    -0.053 N 
HETATM    3  N5  UNL     1      14.940  12.928   5.754  1.00  0.00    -0.037 NA
HETATM    4  C3  UNL     1      13.655  12.431   5.322  1.00  0.00     0.398 C 
HETATM    5  N7  UNL     1      12.828  13.444   4.740  1.00  0.00    -0.348 N 
ATOM      6  H7  UNL     1      12.404  13.327   3.819  1.00  0.00     0.159 HD
HETATM    7  C4  UNL     1      12.626  14.626   5.517  1.00  0.00     0.189 C 
HETATM    8  C5  UNL     1      12.379  15.796   4.591  1.00  0.00     0.074 C 
ENDROOT
BRANCH   7   9
HETATM    9  C6  UNL     1      11.531  14.579   6.495  1.00  0.00     0.125 A 
HETATM   10  O5  UNL     1      11.837  14.427   7.793  1.00  0.00    -0.311 OA
HETATM   11  C7  UNL     1      10.985  14.374   8.768  1.00  0.00     0.086 A 
HETATM   12  C8  UNL     1      11.384  14.202  10.195  1.00  0.00     0.079 C 
HETATM   13  C9  UNL     1       9.634  14.474   8.518  1.00  0.00     0.147 A 
HETATM   14  C10 UNL     1       9.238  14.630   7.225  1.00  0.00     0.227 A 
HETATM   15  O7  UNL     1       8.012  14.723   6.984  1.00  0.00    -0.284 OA
HETATM   16  C11 UNL     1      10.216  14.682   6.197  1.00  0.00     0.127 A 
BRANCH  13  17
HETATM   17  O6  UNL     1       8.708  14.417   9.577  1.00  0.00    -0.355 OA
ATOM     18  H6  UNL     1       7.778  14.506   9.407  1.00  0.00     0.218 HD
ENDBRANCH  13  17
BRANCH  16  19
HETATM   19  C12 UNL     1       9.675  14.800   4.889  1.00  0.00     0.216 C 
HETATM   20  O8  UNL     1       9.182  15.775   4.339  1.00  0.00    -0.644 OA
HETATM   21  O9  UNL     1       9.676  13.655   4.036  1.00  0.00    -0.644 OA
ENDBRANCH  16  19
ENDBRANCH   7   9
BRANCH   1  22
HETATM   22  N1  UNL     1      13.873  15.816   7.213  1.00  0.00    -0.012 NA
BRANCH  22  23
HETATM   23  C2  UNL     1      15.032  15.581   8.099  1.00  0.00     0.390 C 
BRANCH  23  24
HETATM   24  O1  UNL     1      14.601  15.467   9.397  1.00  0.00    -0.351 OA
HETATM   25  C1  UNL     1      15.041  14.362  10.080  1.00  0.00     0.206 C 
ENDBRANCH  23  24
BRANCH  23  26
HETATM   26  O2  UNL     1      16.027  16.529   7.935  1.00  0.00    -0.356 OA
ATOM     27  H2  UNL     1      16.650  16.305   7.255  1.00  0.00     0.214 HD
ENDBRANCH  23  26
ENDBRANCH  22  23
BRANCH  22  28
HETATM   28  O3  UNL     1      13.963  17.132   6.902  1.00  0.00    -0.188 OA
HETATM   29  S1  UNL     1      12.752  18.095   7.594  1.00  0.00     0.120 SA
ENDBRANCH  22  28
ENDBRANCH   1  22
BRANCH   2  30
HETATM   30  O4  UNL     1      15.639  14.808   4.784  1.00  0.00    -0.127 OA
BRANCH  30  31
HETATM   31  N4  UNL     1      16.015  16.092   4.955  1.00  0.00    -0.283 N 
ATOM     32  H42 UNL     1      15.905  16.796   4.225  1.00  0.00     0.186 HD
ATOM     33  H41 UNL     1      16.413  16.280   5.875  1.00  0.00     0.186 HD
ENDBRANCH  30  31
ENDBRANCH   2  30
BRANCH   4  34
HETATM   34  N6  UNL     1      13.917  11.437   4.298  1.00  0.00    -0.043 N 
ATOM     35  H63 UNL     1      13.073  11.110   3.828  1.00  0.00     0.278 HD
ATOM     36  H62 UNL     1      14.382  11.819   3.475  1.00  0.00     0.278 HD
ATOM     37  H61 UNL     1      14.445  10.688   4.747  1.00  0.00     0.278 HD
ENDBRANCH   4  34
TORSDOF 11
ENDMDL
MODEL 4
REMARK VINA RESULT: -5.645247712      2.830      4.820
REMARK  11 active torsions:
REMARK  status: ('A' for Active; 'I' for Inactive)
REMARK    1  A    between atoms: O1_2  and  C2_3 
REMARK    2  A    between atoms: C2_3  and  O2_4 
REMARK    3  A    between atoms: C2_3  and  N1_6 
REMARK    4  A    between atoms: N1_6  and  O3_7 
REMARK    5  A    between atoms: N1_6  and  N2_9 
REMARK    6  A    between atoms: N3_10  and  O4_11 
REMARK    7  A    between atoms: O4_11  and  N4_12 
REMARK    8  A    between atoms: C3_16  and  N6_17 
REMARK    9  A    between atoms: C4_23  and  C6_25 
REMARK   10  A    between atoms: C9_29  and  O6_30 
REMARK   11  A    between atoms: C11_34  and  C12_35 
ROOT
HETATM    1  N2  UNL     1      13.436  15.666   6.956  1.00  0.00    -0.147 N 
HETATM    2  N3  UNL     1      14.271  15.271   5.986  1.00  0.00    -0.053 N 
HETATM    3  N5  UNL     1      14.166  13.972   5.544  1.00  0.00    -0.037 NA
HETATM    4  C3  UNL     1      12.808  13.484   5.566  1.00  0.00     0.398 C 
HETATM    5  N7  UNL     1      11.838  14.529   5.692  1.00  0.00    -0.348 N 
ATOM      6  H7  UNL     1      11.058  14.620   5.039  1.00  0.00     0.159 HD
HETATM    7  C4  UNL     1      12.018  15.438   6.779  1.00  0.00     0.189 C 
HETATM    8  C5  UNL     1      11.429  16.782   6.409  1.00  0.00     0.074 C 
ENDROOT
BRANCH   7   9
HETATM    9  C6  UNL     1      11.443  15.028   8.068  1.00  0.00     0.125 A 
HETATM   10  O5  UNL     1      12.244  14.993   9.144  1.00  0.00    -0.311 OA
HETATM   11  C7  UNL     1      11.884  14.659  10.343  1.00  0.00     0.086 A 
HETATM   12  C8  UNL     1      12.820  14.639  11.504  1.00  0.00     0.079 C 
HETATM   13  C9  UNL     1      10.580  14.296  10.602  1.00  0.00     0.147 A 
HETATM   14  C10 UNL     1       9.702  14.303   9.563  1.00  0.00     0.227 A 
HETATM   15  O7  UNL     1       8.512  13.975   9.784  1.00  0.00    -0.284 OA
HETATM   16  C11 UNL     1      10.153  14.678   8.269  1.00  0.00     0.127 A 
BRANCH  13  17
HETATM   17  O6  UNL     1      10.188  13.934  11.904  1.00  0.00    -0.355 OA
ATOM     18  H6  UNL     1      10.740  13.370  12.433  1.00  0.00     0.218 HD
ENDBRANCH  13  17
BRANCH  16  19
HETATM   19  C12 UNL     1       9.154  14.602   7.262  1.00  0.00     0.216 C 
HETATM   20  O8  UNL     1       8.925  13.703   6.465  1.00  0.00    -0.644 OA
HETATM   21  O9  UNL     1       8.251  15.696   7.101  1.00  0.00    -0.644 OA
ENDBRANCH  16  19
ENDBRANCH   7   9
BRANCH   1  22
HETATM   22  N1  UNL     1      13.899  16.253   8.061  1.00  0.00    -0.012 NA
BRANCH  22  23
HETATM   23  C2  UNL     1      15.315  15.897   8.285  1.00  0.00     0.390 C 
BRANCH  23  24
HETATM   24  O1  UNL     1      15.465  15.387   9.551  1.00  0.00    -0.351 OA
HETATM   25  C1  UNL     1      15.538  14.021   9.643  1.00  0.00     0.206 C 
ENDBRANCH  23  24
BRANCH  23  26
HETATM   26  O2  UNL     1      16.177  16.945   8.013  1.00  0.00    -0.356 OA
ATOM     27  H2  UNL     1      16.216  17.588   8.710  1.00  0.00     0.214 HD
ENDBRANCH  23  26
ENDBRANCH  22  23
BRANCH  22  28
HETATM   28  O3  UNL     1      13.891  17.606   8.120  1.00  0.00    -0.188 OA
HETATM   29  S1  UNL     1      13.193  18.238   9.529  1.00  0.00     0.120 SA
ENDBRANCH  22  28
ENDBRANCH   1  22
BRANCH   2  30
HETATM   30  O4  UNL     1      14.434  16.100   4.943  1.00  0.00    -0.127 OA
BRANCH  30  31
HETATM   31  N4  UNL     1      15.034  17.263   5.270  1.00  0.00    -0.283 N 
ATOM     32  H42 UNL     1      15.853  17.614   4.775  1.00  0.00     0.186 HD
ATOM     33  H41 UNL     1      14.588  17.744   6.051  1.00  0.00     0.186 HD
ENDBRANCH  30  31
ENDBRANCH   2  30
BRANCH   4  34
HETATM   34  N6  UNL     1      12.582  12.827   4.293  1.00  0.00    -0.043 N 
ATOM     35  H63 UNL     1      12.707  11.815   4.333  1.00  0.00     0.278 HD
ATOM     36  H62 UNL     1      11.603  12.822   4.009  1.00  0.00     0.278 HD
ATOM     37  H61 UNL     1      13.195  13.282   3.616  1.00  0.00     0.278 HD
ENDBRANCH   4  34
TORSDOF 11
ENDMDL
MODEL 5
REMARK VINA RESULT: -5.607022550      3.153      5.301
REMARK  11 active torsions:
REMARK  status: ('A' for Active; 'I' for Inactive)
REMARK    1  A    between atoms: O1_2  and  C2_3 
REMARK    2  A    between atoms: C2_3  and  O2_4 
REMARK    3  A    between atoms: C2_3  and  N1_6 
REMARK    4  A    between atoms: N1_6  and  O3_7 
REMARK    5  A    between atoms: N1_6  and  N2_9 
REMARK    6  A    between atoms: N3_10  and  O4_11 
REMARK    7  A    between atoms: O4_11  and  N4_12 
REMARK    8  A    between atoms: C3_16  and  N6_17 
REMARK    9  A    between atoms: C4_23  and  C6_25 
REMARK   10  A    between atoms: C9_29  and  O6_30 
REMARK   11  A    between atoms: C11_34  and  C12_35 
ROOT
HETATM    1  N2  UNL     1      13.850  16.430   7.277  1.00  0.00    -0.147 N 
HETATM    2  N3  UNL     1      14.340  17.629   6.938  1.00  0.00    -0.053 N 
HETATM    3  N5  UNL     1      13.819  18.734   7.572  1.00  0.00    -0.037 NA
HETATM    4  C3  UNL     1      13.453  18.469   8.943  1.00  0.00     0.398 C 
HETATM    5  N7  UNL     1      14.023  17.258   9.452  1.00  0.00    -0.348 N 
ATOM      6  H7  UNL     1      14.559  17.241  10.321  1.00  0.00     0.159 HD
HETATM    7  C4  UNL     1      13.803  16.076   8.680  1.00  0.00     0.189 C 
HETATM    8  C5  UNL     1      14.952  15.116   8.899  1.00  0.00     0.074 C 
ENDROOT
BRANCH   7   9
HETATM    9  C6  UNL     1      12.550  15.356   8.942  1.00  0.00     0.125 A 
HETATM   10  O5  UNL     1      11.695  15.168   7.925  1.00  0.00    -0.311 OA
HETATM   11  C7  UNL     1      10.558  14.550   7.998  1.00  0.00     0.086 A 
HETATM   12  C8  UNL     1       9.647  14.371   6.832  1.00  0.00     0.079 C 
HETATM   13  C9  UNL     1      10.132  14.019   9.196  1.00  0.00     0.147 A 
HETATM   14  C10 UNL     1      10.941  14.167  10.280  1.00  0.00     0.227 A 
HETATM   15  O7  UNL     1      10.565  13.688  11.375  1.00  0.00    -0.284 OA
HETATM   16  C11 UNL     1      12.176  14.854  10.140  1.00  0.00     0.127 A 
BRANCH  13  17
HETATM   17  O6  UNL     1       8.898  13.347   9.277  1.00  0.00    -0.355 OA
ATOM     18  H6  UNL     1       8.668  12.856  10.057  1.00  0.00     0.218 HD
ENDBRANCH  13  17
BRANCH  16  19
HETATM   19  C12 UNL     1      12.908  14.982  11.351  1.00  0.00     0.216 C 
HETATM   20  O8  UNL     1      13.792  14.268  11.802  1.00  0.00    -0.644 OA
HETATM   21  O9  UNL     1      12.623  16.082  12.215  1.00  0.00    -0.644 OA
ENDBRANCH  16  19
ENDBRANCH   7   9
BRANCH   1  22
HETATM   22  N1  UNL     1      13.411  15.582   6.345  1.00  0.00    -0.012 NA
BRANCH  22  23
HETATM   23  C2  UNL     1      12.976  16.314   5.138  1.00  0.00     0.390 C 
BRANCH  23  24
HETATM   24  O1  UNL     1      11.682  15.967   4.834  1.00  0.00    -0.351 OA
HETATM   25  C1  UNL     1      11.498  15.341   3.628  1.00  0.00     0.206 C 
ENDBRANCH  23  24
BRANCH  23  26
HETATM   26  O2  UNL     1      13.848  16.155   4.076  1.00  0.00    -0.356 OA
ATOM     27  H2  UNL     1      14.373  16.927   3.904  1.00  0.00     0.214 HD
ENDBRANCH  23  26
ENDBRANCH  22  23
BRANCH  22  28
HETATM   28  O3  UNL     1      14.273  14.651   5.869  1.00  0.00    -0.188 OA
HETATM   29  S1  UNL     1      13.671  13.067   5.895  1.00  0.00     0.120 SA
ENDBRANCH  22  28
ENDBRANCH   1  22
BRANCH   2  30
HETATM   30  O4  UNL     1      15.675  17.741   6.842  1.00  0.00    -0.127 OA
BRANCH  30  31
HETATM   31  N4  UNL     1      16.187  17.134   5.752  1.00  0.00    -0.283 N 
ATOM     32  H42 UNL     1      16.759  16.292   5.813  1.00  0.00     0.186 HD
ATOM     33  H41 UNL     1      15.944  17.599   4.877  1.00  0.00     0.186 HD
ENDBRANCH  30  31
ENDBRANCH   2  30
BRANCH   4  34
HETATM   34  N6  UNL     1      13.978  19.567   9.733  1.00  0.00    -0.043 N 
ATOM     35  H63 UNL     1      14.276  20.362   9.169  1.00  0.00     0.278 HD
ATOM     36  H62 UNL     1      13.263  20.054  10.272  1.00  0.00     0.278 HD
ATOM     37  H61 UNL     1      14.724  19.180  10.311  1.00  0.00     0.278 HD
ENDBRANCH   4  34
TORSDOF 11
ENDMDL
