MODEL 1
REMARK VINA RESULT: -7.335892350      0.000      0.000
REMARK  11 active torsions:
REMARK  status: ('A' for Active; 'I' for Inactive)
REMARK       I    between atoms: C2_2  and  N1_4 
REMARK    1  A    between atoms: N1_4  and  C3_6 
REMARK    2  A    between atoms: C4_7  and  C5_8 
REMARK    3  A    between atoms: C5_8  and  O2_9 
REMARK    4  A    between atoms: C5_8  and  N2_11 
REMARK    5  A    between atoms: N2_11  and  O3_13 
REMARK    6  A    between atoms: C6_15  and  C7_16 
REMARK    7  A    between atoms: N5_21  and  C8_22 
REMARK    8  A    between atoms: C8_22  and  S1_23 
REMARK    9  A    between atoms: S1_23  and  C9_24 
REMARK   10  A    between atoms: C10_27  and  N7_28 
REMARK   11  A    between atoms: C11_33  and  N9_34 
ROOT
HETATM    1  C7  UNL     1      12.495  13.286   4.930  1.00  0.00     0.167 A 
HETATM    2  N3  UNL     1      13.132  12.173   4.622  1.00  0.00    -0.267 N 
ATOM      3  H3  UNL     1      13.493  11.509   5.308  1.00  0.00     0.190 HD
HETATM    4  N4  UNL     1      13.243  12.026   3.333  1.00  0.00    -0.224 N 
ATOM      5  H4  UNL     1      13.695  11.244   2.860  1.00  0.00     0.210 HD
HETATM    6  N5  UNL     1      12.663  13.073   2.732  1.00  0.00    -0.208 N 
HETATM    7  N11 UNL     1      12.209  13.836   3.698  1.00  0.00    -0.264 N 
ATOM      8  H11 UNL     1      11.713  14.716   3.557  1.00  0.00     0.190 HD
ENDROOT
BRANCH   1   9
HETATM    9  C6  UNL     1      12.124  13.899   6.201  1.00  0.00     0.113 A 
HETATM   10  C4  UNL     1      12.709  14.016   7.413  1.00  0.00     0.094 A 
HETATM   11  C3  UNL     1      11.851  14.802   8.252  1.00  0.00     0.141 A 
HETATM   12  N13 UNL     1      10.812  15.107   7.512  1.00  0.00    -0.280 N 
HETATM   13  N12 UNL     1      10.948  14.596   6.321  1.00  0.00    -0.293 N 
HETATM   14  C12 UNL     1       9.629  15.874   7.862  1.00  0.00     0.179 C 
ATOM     15  H12 UNL     1      10.265  14.701   5.570  1.00  0.00     0.187 HD
BRANCH  10  16
HETATM   16  C5  UNL     1      14.001  13.506   7.827  1.00  0.00     0.176 C 
BRANCH  16  17
HETATM   17  O2  UNL     1      14.014  12.938   9.123  1.00  0.00    -0.344 OA
ATOM     18  H2  UNL     1      14.607  13.364   9.730  1.00  0.00     0.219 HD
ENDBRANCH  16  17
BRANCH  16  19
HETATM   19  N2  UNL     1      15.209  14.027   7.361  1.00  0.00    -0.247 N 
ATOM     20  H2  UNL     1      15.654  14.848   7.773  1.00  0.00     0.196 HD
BRANCH  19  21
HETATM   21  O3  UNL     1      15.743  13.344   6.309  1.00  0.00    -0.288 OA
ATOM     22  H3  UNL     1      16.161  13.896   5.659  1.00  0.00     0.244 HD
ENDBRANCH  19  21
ENDBRANCH  16  19
ENDBRANCH  10  16
BRANCH  11  23
HETATM   23  N1  UNL     1      12.193  15.081   9.589  1.00  0.00    -0.311 N 
HETATM   24  C2  UNL     1      11.803  14.579  10.811  1.00  0.00     0.219 C 
HETATM   25  C1  UNL     1      12.456  15.139  12.073  1.00  0.00     0.117 C 
HETATM   26  O1  UNL     1      10.974  13.712  11.049  1.00  0.00    -0.274 OA
ATOM     27  H1  UNL     1      12.886  15.825   9.672  1.00  0.00     0.170 HD
ENDBRANCH  11  23
ENDBRANCH   1   9
BRANCH   6  28
HETATM   28  C8  UNL     1      12.581  13.269   1.299  1.00  0.00     0.253 C 
BRANCH  28  29
HETATM   29  S1  UNL     1      14.121  13.846   0.581  1.00  0.00    -0.069 SA
BRANCH  29  30
HETATM   30  C9  UNL     1      15.384  13.990   1.820  1.00  0.00     0.176 A 
HETATM   31  N6  UNL     1      16.434  13.159   1.894  1.00  0.00    -0.170 N 
HETATM   32  C10 UNL     1      17.384  13.297   2.855  1.00  0.00     0.692 A 
ATOM     33  H6  UNL     1      16.521  12.405   1.213  1.00  0.00     0.186 HD
HETATM   34  N8  UNL     1      17.260  14.295   3.750  1.00  0.00    -0.023 N 
HETATM   35  C11 UNL     1      16.227  15.135   3.698  1.00  0.00     0.692 A 
ATOM     36  H8  UNL     1      17.966  14.409   4.478  1.00  0.00     0.203 HD
HETATM   37  N10 UNL     1      15.299  14.971   2.730  1.00  0.00    -0.170 N 
ATOM     38  H10 UNL     1      14.509  15.615   2.691  1.00  0.00     0.186 HD
BRANCH  32  39
HETATM   39  N7  UNL     1      18.405  12.525   2.966  1.00  0.00    -0.234 N 
ATOM     40  H72 UNL     1      19.252  12.792   2.464  1.00  0.00     0.174 HD
ATOM     41  H71 UNL     1      18.413  11.671   3.524  1.00  0.00     0.174 HD
ENDBRANCH  32  39
BRANCH  35  42
HETATM   42  N9  UNL     1      16.118  16.090   4.564  1.00  0.00    -0.234 N 
ATOM     43  H92 UNL     1      16.948  16.548   4.942  1.00  0.00     0.174 HD
ATOM     44  H91 UNL     1      15.197  16.398   4.877  1.00  0.00     0.174 HD
ENDBRANCH  35  42
ENDBRANCH  29  30
ENDBRANCH  28  29
ENDBRANCH   6  28
TORSDOF 11
ENDMDL
MODEL 2
REMARK VINA RESULT: -7.291730437      0.184      1.476
REMARK  11 active torsions:
REMARK  status: ('A' for Active; 'I' for Inactive)
REMARK       I    between atoms: C2_2  and  N1_4 
REMARK    1  A    between atoms: N1_4  and  C3_6 
REMARK    2  A    between atoms: C4_7  and  C5_8 
REMARK    3  A    between atoms: C5_8  and  O2_9 
REMARK    4  A    between atoms: C5_8  and  N2_11 
REMARK    5  A    between atoms: N2_11  and  O3_13 
REMARK    6  A    between atoms: C6_15  and  C7_16 
REMARK    7  A    between atoms: N5_21  and  C8_22 
REMARK    8  A    between atoms: C8_22  and  S1_23 
REMARK    9  A    between atoms: S1_23  and  C9_24 
REMARK   10  A    between atoms: C10_27  and  N7_28 
REMARK   11  A    between atoms: C11_33  and  N9_34 
ROOT
HETATM    1  C7  UNL     1      12.375  13.369   4.991  1.00  0.00     0.167 A 
HETATM    2  N3  UNL     1      12.999  12.258   4.651  1.00  0.00    -0.267 N 
ATOM      3  H3  UNL     1      13.366  11.578   5.318  1.00  0.00     0.190 HD
HETATM    4  N4  UNL     1      13.089  12.137   3.358  1.00  0.00    -0.224 N 
ATOM      5  H4  UNL     1      13.529  11.361   2.861  1.00  0.00     0.210 HD
HETATM    6  N5  UNL     1      12.507  13.200   2.787  1.00  0.00    -0.208 N 
HETATM    7  N11 UNL     1      12.074  13.946   3.776  1.00  0.00    -0.264 N 
ATOM      8  H11 UNL     1      11.582  14.832   3.661  1.00  0.00     0.190 HD
ENDROOT
BRANCH   1   9
HETATM    9  C6  UNL     1      12.028  13.959   6.281  1.00  0.00     0.113 A 
HETATM   10  C4  UNL     1      12.641  14.063   7.480  1.00  0.00     0.094 A 
HETATM   11  C3  UNL     1      11.795  14.826   8.351  1.00  0.00     0.141 A 
HETATM   12  N13 UNL     1      10.735  15.132   7.641  1.00  0.00    -0.280 N 
HETATM   13  N12 UNL     1      10.849  14.640   6.440  1.00  0.00    -0.293 N 
HETATM   14  C12 UNL     1       9.554  15.881   8.031  1.00  0.00     0.179 C 
ATOM     15  H12 UNL     1      10.147  14.750   5.707  1.00  0.00     0.187 HD
BRANCH  10  16
HETATM   16  C5  UNL     1      13.947  13.560   7.855  1.00  0.00     0.176 C 
BRANCH  16  17
HETATM   17  O2  UNL     1      13.997  12.969   9.140  1.00  0.00    -0.344 OA
ATOM     18  H2  UNL     1      13.177  12.582   9.424  1.00  0.00     0.219 HD
ENDBRANCH  16  17
BRANCH  16  19
HETATM   19  N2  UNL     1      15.139  14.103   7.372  1.00  0.00    -0.247 N 
ATOM     20  H2  UNL     1      15.586  14.919   7.790  1.00  0.00     0.196 HD
BRANCH  19  21
HETATM   21  O3  UNL     1      15.653  13.448   6.292  1.00  0.00    -0.288 OA
ATOM     22  H3  UNL     1      15.121  13.514   5.508  1.00  0.00     0.244 HD
ENDBRANCH  19  21
ENDBRANCH  16  19
ENDBRANCH  10  16
BRANCH  11  23
HETATM   23  N1  UNL     1      12.166  15.089   9.684  1.00  0.00    -0.311 N 
HETATM   24  C2  UNL     1      11.789  14.583  10.909  1.00  0.00     0.219 C 
HETATM   25  C1  UNL     1      12.475  15.120  12.163  1.00  0.00     0.117 C 
HETATM   26  O1  UNL     1      10.950  13.729  11.155  1.00  0.00    -0.274 OA
ATOM     27  H1  UNL     1      12.874  15.819   9.760  1.00  0.00     0.170 HD
ENDBRANCH  11  23
ENDBRANCH   1   9
BRANCH   6  28
HETATM   28  C8  UNL     1      12.405  13.426   1.360  1.00  0.00     0.253 C 
BRANCH  28  29
HETATM   29  S1  UNL     1      13.938  14.007   0.630  1.00  0.00    -0.069 SA
BRANCH  29  30
HETATM   30  C9  UNL     1      15.193  14.211   1.868  1.00  0.00     0.176 A 
HETATM   31  N6  UNL     1      15.138  15.159   2.815  1.00  0.00    -0.170 N 
HETATM   32  C10 UNL     1      16.115  15.289   3.750  1.00  0.00     0.692 A 
ATOM     33  H6  UNL     1      14.344  15.799   2.834  1.00  0.00     0.186 HD
HETATM   34  N8  UNL     1      17.160  14.440   3.718  1.00  0.00    -0.023 N 
HETATM   35  C11 UNL     1      17.238  13.488   2.788  1.00  0.00     0.692 A 
ATOM     36  H8  UNL     1      17.900  14.526   4.413  1.00  0.00     0.203 HD
HETATM   37  N10 UNL     1      16.249  13.385   1.872  1.00  0.00    -0.170 N 
ATOM     38  H10 UNL     1      16.310  12.657   1.161  1.00  0.00     0.186 HD
BRANCH  32  39
HETATM   39  N7  UNL     1      16.106  16.181   4.674  1.00  0.00    -0.234 N 
ATOM     40  H72 UNL     1      16.271  15.868   5.631  1.00  0.00     0.174 HD
ATOM     41  H71 UNL     1      15.946  17.174   4.503  1.00  0.00     0.174 HD
ENDBRANCH  32  39
BRANCH  35  42
HETATM   42  N9  UNL     1      18.246  12.677   2.766  1.00  0.00    -0.234 N 
ATOM     43  H92 UNL     1      18.135  11.717   2.438  1.00  0.00     0.174 HD
ATOM     44  H91 UNL     1      19.166  12.991   3.076  1.00  0.00     0.174 HD
ENDBRANCH  35  42
ENDBRANCH  29  30
ENDBRANCH  28  29
ENDBRANCH   6  28
TORSDOF 11
ENDMDL
MODEL 3
REMARK VINA RESULT: -7.207424264      1.419      1.874
REMARK  11 active torsions:
REMARK  status: ('A' for Active; 'I' for Inactive)
REMARK       I    between atoms: C2_2  and  N1_4 
REMARK    1  A    between atoms: N1_4  and  C3_6 
REMARK    2  A    between atoms: C4_7  and  C5_8 
REMARK    3  A    between atoms: C5_8  and  O2_9 
REMARK    4  A    between atoms: C5_8  and  N2_11 
REMARK    5  A    between atoms: N2_11  and  O3_13 
REMARK    6  A    between atoms: C6_15  and  C7_16 
REMARK    7  A    between atoms: N5_21  and  C8_22 
REMARK    8  A    between atoms: C8_22  and  S1_23 
REMARK    9  A    between atoms: S1_23  and  C9_24 
REMARK   10  A    between atoms: C10_27  and  N7_28 
REMARK   11  A    between atoms: C11_33  and  N9_34 
ROOT
HETATM    1  C7  UNL     1      12.423  13.340   5.085  1.00  0.00     0.167 A 
HETATM    2  N3  UNL     1      11.862  13.249   3.895  1.00  0.00    -0.267 N 
ATOM      3  H3  UNL     1      10.959  13.658   3.653  1.00  0.00     0.190 HD
HETATM    4  N4  UNL     1      12.605  12.573   3.066  1.00  0.00    -0.224 N 
ATOM      5  H4  UNL     1      12.379  12.374   2.092  1.00  0.00     0.210 HD
HETATM    6  N5  UNL     1      13.715  12.184   3.706  1.00  0.00    -0.208 N 
HETATM    7  N11 UNL     1      13.606  12.648   4.929  1.00  0.00    -0.264 N 
ATOM      8  H11 UNL     1      14.301  12.515   5.664  1.00  0.00     0.190 HD
ENDROOT
BRANCH   1   9
HETATM    9  C6  UNL     1      12.009  13.973   6.334  1.00  0.00     0.113 A 
HETATM   10  C4  UNL     1      12.579  14.164   7.544  1.00  0.00     0.094 A 
HETATM   11  C3  UNL     1      11.672  14.927   8.351  1.00  0.00     0.141 A 
HETATM   12  N13 UNL     1      10.622  15.147   7.596  1.00  0.00    -0.280 N 
HETATM   13  N12 UNL     1      10.795  14.605   6.424  1.00  0.00    -0.293 N 
HETATM   14  C12 UNL     1       9.395  15.856   7.914  1.00  0.00     0.179 C 
ATOM     15  H12 UNL     1      10.112  14.646   5.667  1.00  0.00     0.187 HD
BRANCH  10  16
HETATM   16  C5  UNL     1      13.895  13.742   7.980  1.00  0.00     0.176 C 
BRANCH  16  17
HETATM   17  O2  UNL     1      13.885  12.845   9.075  1.00  0.00    -0.344 OA
ATOM     18  H2  UNL     1      13.526  13.209   9.875  1.00  0.00     0.219 HD
ENDBRANCH  16  17
BRANCH  16  19
HETATM   19  N2  UNL     1      15.035  14.534   7.832  1.00  0.00    -0.247 N 
ATOM     20  H2  UNL     1      15.131  15.237   7.099  1.00  0.00     0.196 HD
BRANCH  19  21
HETATM   21  O3  UNL     1      16.010  14.284   8.752  1.00  0.00    -0.288 OA
ATOM     22  H3  UNL     1      15.881  14.724   9.585  1.00  0.00     0.244 HD
ENDBRANCH  19  21
ENDBRANCH  16  19
ENDBRANCH  10  16
BRANCH  11  23
HETATM   23  N1  UNL     1      11.988  15.270   9.680  1.00  0.00    -0.311 N 
HETATM   24  C2  UNL     1      11.728  14.708  10.910  1.00  0.00     0.219 C 
HETATM   25  C1  UNL     1      12.296  15.384  12.157  1.00  0.00     0.117 C 
HETATM   26  O1  UNL     1      11.081  13.703  11.168  1.00  0.00    -0.274 OA
ATOM     27  H1  UNL     1      12.533  16.129   9.746  1.00  0.00     0.170 HD
ENDBRANCH  11  23
ENDBRANCH   1   9
BRANCH   6  28
HETATM   28  C8  UNL     1      14.787  11.409   3.116  1.00  0.00     0.253 C 
BRANCH  28  29
HETATM   29  S1  UNL     1      16.384  12.219   3.230  1.00  0.00    -0.069 SA
BRANCH  29  30
HETATM   30  C9  UNL     1      16.214  13.979   3.075  1.00  0.00     0.176 A 
HETATM   31  N6  UNL     1      16.116  14.603   1.891  1.00  0.00    -0.170 N 
HETATM   32  C10 UNL     1      15.986  15.952   1.807  1.00  0.00     0.692 A 
ATOM     33  H6  UNL     1      16.139  14.050   1.034  1.00  0.00     0.186 HD
HETATM   34  N8  UNL     1      15.957  16.673   2.943  1.00  0.00    -0.023 N 
HETATM   35  C11 UNL     1      16.052  16.079   4.132  1.00  0.00     0.692 A 
ATOM     36  H8  UNL     1      15.860  17.687   2.894  1.00  0.00     0.203 HD
HETATM   37  N10 UNL     1      16.180  14.734   4.182  1.00  0.00    -0.170 N 
ATOM     38  H10 UNL     1      16.252  14.279   5.093  1.00  0.00     0.186 HD
BRANCH  32  39
HETATM   39  N7  UNL     1      15.890  16.593   0.697  1.00  0.00    -0.234 N 
ATOM     40  H72 UNL     1      16.563  16.368  -0.036  1.00  0.00     0.174 HD
ATOM     41  H71 UNL     1      15.183  17.305   0.513  1.00  0.00     0.174 HD
ENDBRANCH  32  39
BRANCH  35  42
HETATM   42  N9  UNL     1      16.023  16.781   5.218  1.00  0.00    -0.234 N 
ATOM     43  H92 UNL     1      15.727  17.757   5.200  1.00  0.00     0.174 HD
ATOM     44  H91 UNL     1      16.295  16.364   6.108  1.00  0.00     0.174 HD
ENDBRANCH  35  42
ENDBRANCH  29  30
ENDBRANCH  28  29
ENDBRANCH   6  28
TORSDOF 11
ENDMDL
MODEL 4
REMARK VINA RESULT: -7.199767609      1.409      2.076
REMARK  11 active torsions:
REMARK  status: ('A' for Active; 'I' for Inactive)
REMARK       I    between atoms: C2_2  and  N1_4 
REMARK    1  A    between atoms: N1_4  and  C3_6 
REMARK    2  A    between atoms: C4_7  and  C5_8 
REMARK    3  A    between atoms: C5_8  and  O2_9 
REMARK    4  A    between atoms: C5_8  and  N2_11 
REMARK    5  A    between atoms: N2_11  and  O3_13 
REMARK    6  A    between atoms: C6_15  and  C7_16 
REMARK    7  A    between atoms: N5_21  and  C8_22 
REMARK    8  A    between atoms: C8_22  and  S1_23 
REMARK    9  A    between atoms: S1_23  and  C9_24 
REMARK   10  A    between atoms: C10_27  and  N7_28 
REMARK   11  A    between atoms: C11_33  and  N9_34 
ROOT
HETATM    1  C7  UNL     1      12.416  13.351   5.079  1.00  0.00     0.167 A 
HETATM    2  N3  UNL     1      11.869  13.302   3.880  1.00  0.00    -0.267 N 
ATOM      3  H3  UNL     1      10.984  13.747   3.635  1.00  0.00     0.190 HD
HETATM    4  N4  UNL     1      12.599  12.615   3.049  1.00  0.00    -0.224 N 
ATOM      5  H4  UNL     1      12.380  12.442   2.068  1.00  0.00     0.210 HD
HETATM    6  N5  UNL     1      13.686  12.175   3.697  1.00  0.00    -0.208 N 
HETATM    7  N11 UNL     1      13.576  12.621   4.926  1.00  0.00    -0.264 N 
ATOM      8  H11 UNL     1      14.256  12.450   5.667  1.00  0.00     0.190 HD
ENDROOT
BRANCH   1   9
HETATM    9  C6  UNL     1      12.007  13.975   6.334  1.00  0.00     0.113 A 
HETATM   10  C4  UNL     1      12.583  14.159   7.542  1.00  0.00     0.094 A 
HETATM   11  C3  UNL     1      11.678  14.915   8.359  1.00  0.00     0.141 A 
HETATM   12  N13 UNL     1      10.624  15.138   7.611  1.00  0.00    -0.280 N 
HETATM   13  N12 UNL     1      10.792  14.603   6.435  1.00  0.00    -0.293 N 
HETATM   14  C12 UNL     1       9.397  15.842   7.940  1.00  0.00     0.179 C 
ATOM     15  H12 UNL     1      10.105  14.647   5.682  1.00  0.00     0.187 HD
BRANCH  10  16
HETATM   16  C5  UNL     1      13.902  13.739   7.970  1.00  0.00     0.176 C 
BRANCH  16  17
HETATM   17  O2  UNL     1      13.899  12.821   9.047  1.00  0.00    -0.344 OA
ATOM     18  H2  UNL     1      13.931  11.909   8.783  1.00  0.00     0.219 HD
ENDBRANCH  16  17
BRANCH  16  19
HETATM   19  N2  UNL     1      15.037  14.540   7.835  1.00  0.00    -0.247 N 
ATOM     20  H2  UNL     1      15.128  15.257   7.114  1.00  0.00     0.196 HD
BRANCH  19  21
HETATM   21  O3  UNL     1      16.014  14.282   8.751  1.00  0.00    -0.288 OA
ATOM     22  H3  UNL     1      16.466  15.057   9.066  1.00  0.00     0.244 HD
ENDBRANCH  19  21
ENDBRANCH  16  19
ENDBRANCH  10  16
BRANCH  11  23
HETATM   23  N1  UNL     1      12.000  15.251   9.688  1.00  0.00    -0.311 N 
HETATM   24  C2  UNL     1      11.727  14.694  10.918  1.00  0.00     0.219 C 
HETATM   25  C1  UNL     1      12.309  15.357  12.166  1.00  0.00     0.117 C 
HETATM   26  O1  UNL     1      11.058  13.704  11.175  1.00  0.00    -0.274 OA
ATOM     27  H1  UNL     1      12.564  16.098   9.756  1.00  0.00     0.170 HD
ENDBRANCH  11  23
ENDBRANCH   1   9
BRANCH   6  28
HETATM   28  C8  UNL     1      14.738  11.374   3.106  1.00  0.00     0.253 C 
BRANCH  28  29
HETATM   29  S1  UNL     1      16.348  12.164   3.181  1.00  0.00    -0.069 SA
BRANCH  29  30
HETATM   30  C9  UNL     1      16.189  13.931   3.136  1.00  0.00     0.176 A 
HETATM   31  N6  UNL     1      16.164  14.691   4.241  1.00  0.00    -0.170 N 
HETATM   32  C10 UNL     1      16.043  16.042   4.172  1.00  0.00     0.692 A 
ATOM     33  H6  UNL     1      16.238  14.244   5.154  1.00  0.00     0.186 HD
HETATM   34  N8  UNL     1      15.945  16.624   2.962  1.00  0.00    -0.023 N 
HETATM   35  C11 UNL     1      15.968  15.892   1.849  1.00  0.00     0.692 A 
ATOM     36  H8  UNL     1      15.853  17.638   2.896  1.00  0.00     0.203 HD
HETATM   37  N10 UNL     1      16.091  14.550   1.950  1.00  0.00    -0.170 N 
ATOM     38  H10 UNL     1      16.109  13.990   1.098  1.00  0.00     0.186 HD
BRANCH  32  39
HETATM   39  N7  UNL     1      16.013  16.810   5.202  1.00  0.00    -0.234 N 
ATOM     40  H72 UNL     1      16.779  16.729   5.871  1.00  0.00     0.174 HD
ATOM     41  H71 UNL     1      15.273  17.489   5.382  1.00  0.00     0.174 HD
ENDBRANCH  32  39
BRANCH  35  42
HETATM   42  N9  UNL     1      15.874  16.461   0.691  1.00  0.00    -0.234 N 
ATOM     43  H92 UNL     1      15.270  17.272   0.556  1.00  0.00     0.174 HD
ATOM     44  H91 UNL     1      16.406  16.104  -0.103  1.00  0.00     0.174 HD
ENDBRANCH  35  42
ENDBRANCH  29  30
ENDBRANCH  28  29
ENDBRANCH   6  28
TORSDOF 11
ENDMDL
MODEL 5
REMARK VINA RESULT: -7.169368731      2.212      3.283
REMARK  11 active torsions:
REMARK  status: ('A' for Active; 'I' for Inactive)
REMARK       I    between atoms: C2_2  and  N1_4 
REMARK    1  A    between atoms: N1_4  and  C3_6 
REMARK    2  A    between atoms: C4_7  and  C5_8 
REMARK    3  A    between atoms: C5_8  and  O2_9 
REMARK    4  A    between atoms: C5_8  and  N2_11 
REMARK    5  A    between atoms: N2_11  and  O3_13 
REMARK    6  A    between atoms: C6_15  and  C7_16 
REMARK    7  A    between atoms: N5_21  and  C8_22 
REMARK    8  A    between atoms: C8_22  and  S1_23 
REMARK    9  A    between atoms: S1_23  and  C9_24 
REMARK   10  A    between atoms: C10_27  and  N7_28 
REMARK   11  A    between atoms: C11_33  and  N9_34 
ROOT
HETATM    1  C7  UNL     1      14.918  16.567   5.461  1.00  0.00     0.167 A 
HETATM    2  N3  UNL     1      16.145  16.623   4.981  1.00  0.00    -0.267 N 
ATOM      3  H3  UNL     1      16.974  16.810   5.546  1.00  0.00     0.190 HD
HETATM    4  N4  UNL     1      16.167  16.411   3.697  1.00  0.00    -0.224 N 
ATOM      5  H4  UNL     1      17.001  16.405   3.109  1.00  0.00     0.210 HD
HETATM    6  N5  UNL     1      14.913  16.202   3.276  1.00  0.00    -0.208 N 
HETATM    7  N11 UNL     1      14.156  16.295   4.344  1.00  0.00    -0.264 N 
ATOM      8  H11 UNL     1      13.142  16.183   4.347  1.00  0.00     0.190 HD
ENDROOT
BRANCH   1   9
HETATM    9  C6  UNL     1      14.366  16.733   6.802  1.00  0.00     0.113 A 
HETATM   10  C4  UNL     1      13.801  15.909   7.712  1.00  0.00     0.094 A 
HETATM   11  C3  UNL     1      13.514  16.674   8.891  1.00  0.00     0.141 A 
HETATM   12  N13 UNL     1      13.913  17.896   8.629  1.00  0.00    -0.280 N 
HETATM   13  N12 UNL     1      14.409  17.953   7.426  1.00  0.00    -0.293 N 
HETATM   14  C12 UNL     1      13.846  19.082   9.465  1.00  0.00     0.179 C 
ATOM     15  H12 UNL     1      14.785  18.802   7.001  1.00  0.00     0.187 HD
BRANCH  10  16
HETATM   16  C5  UNL     1      13.558  14.486   7.590  1.00  0.00     0.176 C 
BRANCH  16  17
HETATM   17  O2  UNL     1      12.205  14.110   7.759  1.00  0.00    -0.344 OA
ATOM     18  H2  UNL     1      11.628  14.402   7.064  1.00  0.00     0.219 HD
ENDBRANCH  16  17
BRANCH  16  19
HETATM   19  N2  UNL     1      14.518  13.521   7.901  1.00  0.00    -0.247 N 
ATOM     20  H2  UNL     1      14.361  12.521   7.773  1.00  0.00     0.196 HD
BRANCH  19  21
HETATM   21  O3  UNL     1      15.684  14.032   8.391  1.00  0.00    -0.288 OA
ATOM     22  H3  UNL     1      16.408  14.005   7.777  1.00  0.00     0.244 HD
ENDBRANCH  19  21
ENDBRANCH  16  19
ENDBRANCH  10  16
BRANCH  11  23
HETATM   23  N1  UNL     1      12.902  16.083  10.014  1.00  0.00    -0.311 N 
HETATM   24  C2  UNL     1      13.282  15.126  10.928  1.00  0.00     0.219 C 
HETATM   25  C1  UNL     1      12.319  14.775  12.061  1.00  0.00     0.117 C 
HETATM   26  O1  UNL     1      14.321  14.483  10.972  1.00  0.00    -0.274 OA
ATOM     27  H1  UNL     1      11.966  16.447  10.190  1.00  0.00     0.170 HD
ENDBRANCH  11  23
ENDBRANCH   1   9
BRANCH   6  28
HETATM   28  C8  UNL     1      14.530  15.930   1.907  1.00  0.00     0.253 C 
BRANCH  28  29
HETATM   29  S1  UNL     1      13.919  14.260   1.666  1.00  0.00    -0.069 SA
BRANCH  29  30
HETATM   30  C9  UNL     1      14.778  13.114   2.714  1.00  0.00     0.176 A 
HETATM   31  N6  UNL     1      16.089  12.856   2.596  1.00  0.00    -0.170 N 
HETATM   32  C10 UNL     1      16.717  11.973   3.415  1.00  0.00     0.692 A 
ATOM     33  H6  UNL     1      16.627  13.334   1.873  1.00  0.00     0.186 HD
HETATM   34  N8  UNL     1      15.999  11.347   4.366  1.00  0.00    -0.023 N 
HETATM   35  C11 UNL     1      14.696  11.585   4.505  1.00  0.00     0.692 A 
ATOM     36  H8  UNL     1      16.458  10.681   4.987  1.00  0.00     0.203 HD
HETATM   37  N10 UNL     1      14.100  12.469   3.675  1.00  0.00    -0.170 N 
ATOM     38  H10 UNL     1      13.102  12.652   3.783  1.00  0.00     0.186 HD
BRANCH  32  39
HETATM   39  N7  UNL     1      17.969  11.694   3.339  1.00  0.00    -0.234 N 
ATOM     40  H72 UNL     1      18.253  10.989   2.658  1.00  0.00     0.174 HD
ATOM     41  H71 UNL     1      18.685  12.135   3.915  1.00  0.00     0.174 HD
ENDBRANCH  32  39
BRANCH  35  42
HETATM   42  N9  UNL     1      14.014  10.978   5.423  1.00  0.00    -0.234 N 
ATOM     43  H92 UNL     1      14.366  10.917   6.379  1.00  0.00     0.174 HD
ATOM     44  H91 UNL     1      13.115  10.553   5.199  1.00  0.00     0.174 HD
ENDBRANCH  35  42
ENDBRANCH  29  30
ENDBRANCH  28  29
ENDBRANCH   6  28
TORSDOF 11
ENDMDL
