MODEL 1
REMARK VINA RESULT: -7.259035393      0.000      0.000
REMARK  11 active torsions:
REMARK  status: ('A' for Active; 'I' for Inactive)
REMARK    1  A    between atoms: O1_2  and  C2_3 
REMARK    2  A    between atoms: C2_3  and  C3_4 
REMARK    3  A    between atoms: C3_4  and  O2_5 
REMARK    4  A    between atoms: O2_5  and  N1_6 
REMARK    5  A    between atoms: C4_7  and  N2_8 
REMARK    6  A    between atoms: N2_8  and  C5_10 
REMARK    7  A    between atoms: C7_25  and  N9_26 
REMARK    8  A    between atoms: C8_31  and  C9_32 
REMARK    9  A    between atoms: C9_32  and  O4_34 
REMARK   10  A    between atoms: O4_34  and  C11_35 
REMARK   11  A    between atoms: C13_41  and  N13_42 
ROOT
HETATM    1  N1  UNL     1      14.705  15.836   7.415  1.00  0.00    -0.035 N 
HETATM    2  C4  UNL     1      15.558  16.970   7.243  1.00  0.00     0.737 C 
HETATM    3  N6  UNL     1      16.102  17.526   6.226  1.00  0.00    -0.128 N 
ATOM      4  H6  UNL     1      16.656  18.336   6.503  1.00  0.00     0.205 HD
HETATM    5  N7  UNL     1      16.146  17.335   4.850  1.00  0.00    -0.269 N 
ATOM      6  H7  UNL     1      16.700  18.037   4.360  1.00  0.00     0.189 HD
HETATM    7  C6  UNL     1      15.578  16.362   3.989  1.00  0.00     0.164 A 
HETATM    8  N8  UNL     1      15.975  16.663   2.740  1.00  0.00    -0.173 N 
ATOM      9  H8  UNL     1      16.574  17.472   2.576  1.00  0.00     0.186 HD
HETATM   10  C7  UNL     1      15.586  15.903   1.716  1.00  0.00     0.677 A 
HETATM   11  N10 UNL     1      14.811  14.858   1.952  1.00  0.00    -0.191 N 
ATOM     12  H10 UNL     1      14.535  14.302   1.143  1.00  0.00     0.184 HD
HETATM   13  C8  UNL     1      14.345  14.449   3.152  1.00  0.00     0.086 A 
HETATM   14  C12 UNL     1      14.758  15.248   4.197  1.00  0.00     0.103 A 
HETATM   15  N12 UNL     1      14.187  14.697   5.364  1.00  0.00    -0.340 N 
ATOM     16  H12 UNL     1      13.312  14.227   5.130  1.00  0.00     0.163 HD
HETATM   17  C13 UNL     1      14.434  14.582   6.776  1.00  0.00     0.432 C 
ENDROOT
BRANCH   2  18
HETATM   18  N2  UNL     1      15.902  17.653   8.436  1.00  0.00    -0.016 N 
ATOM     19  H2  UNL     1      15.970  17.144   9.317  1.00  0.00     0.203 HD
BRANCH  18  20
HETATM   20  C5  UNL     1      16.126  18.918   8.401  1.00  0.00     0.734 A 
HETATM   21  N3  UNL     1      17.315  19.563   8.464  1.00  0.00    -0.108 N 
HETATM   22  N4  UNL     1      17.032  20.844   8.392  1.00  0.00    -0.167 N 
ATOM     23  H3  UNL     1      18.240  19.142   8.550  1.00  0.00     0.207 HD
HETATM   24  O3  UNL     1      15.771  21.063   8.290  1.00  0.00    -0.126 OA
ATOM     25  H4  UNL     1      17.735  21.582   8.414  1.00  0.00     0.219 HD
HETATM   26  N5  UNL     1      15.207  19.871   8.295  1.00  0.00    -0.068 N 
ATOM     27  H5  UNL     1      14.203  19.704   8.227  1.00  0.00     0.216 HD
ENDBRANCH  18  20
ENDBRANCH   2  18
BRANCH   1  28
HETATM   28  O2  UNL     1      13.935  16.018   8.508  1.00  0.00    -0.259 OA
BRANCH  28  29
HETATM   29  C3  UNL     1      12.754  15.293   8.448  1.00  0.00     0.228 C 
BRANCH  29  30
HETATM   30  C2  UNL     1      12.450  14.606   9.742  1.00  0.00     0.195 C 
BRANCH  30  31
HETATM   31  O1  UNL     1      11.582  13.551   9.607  1.00  0.00    -0.394 OA
HETATM   32  C1  UNL     1      10.248  13.886   9.528  1.00  0.00     0.201 C 
ENDBRANCH  30  31
ENDBRANCH  29  30
ENDBRANCH  28  29
ENDBRANCH   1  28
BRANCH  17  33
HETATM   33  N13 UNL     1      15.502  13.622   7.073  1.00  0.00    -0.038 N 
ATOM     34 3H13 UNL     1      15.762  13.634   8.059  1.00  0.00     0.279 HD
ATOM     35 2H13 UNL     1      15.175  12.657   7.015  1.00  0.00     0.279 HD
ATOM     36 1H13 UNL     1      16.305  13.790   6.466  1.00  0.00     0.279 HD
ENDBRANCH  17  33
BRANCH  13  37
HETATM   37  C9  UNL     1      13.507  13.295   3.386  1.00  0.00     0.182 C 
HETATM   38  C10 UNL     1      12.740  13.152   2.015  1.00  0.00     0.047 C 
BRANCH  37  39
HETATM   39  O4  UNL     1      14.134  12.036   3.399  1.00  0.00    -0.295 OA
BRANCH  39  40
HETATM   40  C11 UNL     1      14.531  11.333   4.491  1.00  0.00     0.373 C 
HETATM   41  N11 UNL     1      13.821  11.355   5.720  1.00  0.00    -0.032 NA
HETATM   42  O5  UNL     1      15.568  10.647   4.381  1.00  0.00    -0.242 OA
ENDBRANCH  39  40
ENDBRANCH  37  39
ENDBRANCH  13  37
BRANCH  10  43
HETATM   43  N9  UNL     1      15.990  16.227   0.524  1.00  0.00    -0.234 N 
ATOM     44  H92 UNL     1      16.649  15.661  -0.010  1.00  0.00     0.174 HD
ATOM     45  H91 UNL     1      15.628  17.086   0.111  1.00  0.00     0.174 HD
ENDBRANCH  10  43
TORSDOF 11
ENDMDL
MODEL 2
REMARK VINA RESULT: -7.098121179      3.098      7.953
REMARK  11 active torsions:
REMARK  status: ('A' for Active; 'I' for Inactive)
REMARK    1  A    between atoms: O1_2  and  C2_3 
REMARK    2  A    between atoms: C2_3  and  C3_4 
REMARK    3  A    between atoms: C3_4  and  O2_5 
REMARK    4  A    between atoms: O2_5  and  N1_6 
REMARK    5  A    between atoms: C4_7  and  N2_8 
REMARK    6  A    between atoms: N2_8  and  C5_10 
REMARK    7  A    between atoms: C7_25  and  N9_26 
REMARK    8  A    between atoms: C8_31  and  C9_32 
REMARK    9  A    between atoms: C9_32  and  O4_34 
REMARK   10  A    between atoms: O4_34  and  C11_35 
REMARK   11  A    between atoms: C13_41  and  N13_42 
ROOT
HETATM    1  N1  UNL     1      14.259  17.804   8.083  1.00  0.00    -0.035 N 
HETATM    2  C4  UNL     1      15.474  17.426   7.433  1.00  0.00     0.737 C 
HETATM    3  N6  UNL     1      16.681  17.853   7.485  1.00  0.00    -0.128 N 
ATOM      4  H6  UNL     1      17.287  17.320   6.862  1.00  0.00     0.205 HD
HETATM    5  N7  UNL     1      17.394  18.841   8.154  1.00  0.00    -0.269 N 
ATOM      6  H7  UNL     1      18.388  18.849   7.926  1.00  0.00     0.189 HD
HETATM    7  C6  UNL     1      17.021  19.840   9.089  1.00  0.00     0.164 A 
HETATM    8  N8  UNL     1      18.133  20.534   9.387  1.00  0.00    -0.173 N 
ATOM      9  H8  UNL     1      19.021  20.285   8.953  1.00  0.00     0.186 HD
HETATM   10  C7  UNL     1      18.074  21.548  10.251  1.00  0.00     0.677 A 
HETATM   11  N10 UNL     1      16.911  21.853  10.801  1.00  0.00    -0.191 N 
ATOM     12  H10 UNL     1      16.908  22.635  11.456  1.00  0.00     0.184 HD
HETATM   13  C8  UNL     1      15.727  21.240  10.588  1.00  0.00     0.086 A 
HETATM   14  C12 UNL     1      15.809  20.195   9.692  1.00  0.00     0.103 A 
HETATM   15  N12 UNL     1      14.507  19.662   9.587  1.00  0.00    -0.340 N 
ATOM     16  H12 UNL     1      14.002  19.814  10.460  1.00  0.00     0.163 HD
HETATM   17  C13 UNL     1      13.658  18.976   8.650  1.00  0.00     0.432 C 
ENDROOT
BRANCH   2  18
HETATM   18  N2  UNL     1      15.360  16.347   6.522  1.00  0.00    -0.016 N 
ATOM     19  H2  UNL     1      15.195  15.401   6.865  1.00  0.00     0.203 HD
BRANCH  18  20
HETATM   20  C5  UNL     1      15.467  16.566   5.260  1.00  0.00     0.734 A 
HETATM   21  N3  UNL     1      16.231  15.911   4.353  1.00  0.00    -0.108 N 
HETATM   22  N4  UNL     1      16.002  16.499   3.201  1.00  0.00    -0.167 N 
ATOM     23  H3  UNL     1      16.855  15.124   4.529  1.00  0.00     0.207 HD
HETATM   24  O3  UNL     1      15.164  17.466   3.300  1.00  0.00    -0.126 OA
ATOM     25  H4  UNL     1      16.442  16.218   2.324  1.00  0.00     0.219 HD
HETATM   26  N5  UNL     1      14.830  17.510   4.575  1.00  0.00    -0.068 N 
ATOM     27  H5  UNL     1      14.173  18.177   4.980  1.00  0.00     0.216 HD
ENDBRANCH  18  20
ENDBRANCH   2  18
BRANCH   1  28
HETATM   28  O2  UNL     1      13.452  16.728   8.182  1.00  0.00    -0.259 OA
BRANCH  28  29
HETATM   29  C3  UNL     1      13.225  16.359   9.499  1.00  0.00     0.228 C 
BRANCH  29  30
HETATM   30  C2  UNL     1      13.714  14.975   9.787  1.00  0.00     0.195 C 
BRANCH  30  31
HETATM   31  O1  UNL     1      13.772  14.686  11.129  1.00  0.00    -0.394 OA
HETATM   32  C1  UNL     1      12.647  15.012  11.855  1.00  0.00     0.201 C 
ENDBRANCH  30  31
ENDBRANCH  29  30
ENDBRANCH  28  29
ENDBRANCH   1  28
BRANCH  17  33
HETATM   33  N13 UNL     1      13.178  19.864   7.587  1.00  0.00    -0.038 N 
ATOM     34 3H13 UNL     1      12.162  19.833   7.494  1.00  0.00     0.279 HD
ATOM     35 2H13 UNL     1      13.277  20.847   7.838  1.00  0.00     0.279 HD
ATOM     36 1H13 UNL     1      13.647  19.646   6.707  1.00  0.00     0.279 HD
ENDBRANCH  17  33
BRANCH  13  37
HETATM   37  C9  UNL     1      14.465  21.601  11.193  1.00  0.00     0.182 C 
HETATM   38  C10 UNL     1      14.912  22.144  12.605  1.00  0.00     0.047 C 
BRANCH  37  39
HETATM   39  O4  UNL     1      13.834  22.765  10.720  1.00  0.00    -0.295 OA
BRANCH  39  40
HETATM   40  C11 UNL     1      12.955  22.855   9.688  1.00  0.00     0.373 C 
HETATM   41  N11 UNL     1      12.922  23.961   8.800  1.00  0.00    -0.032 NA
HETATM   42  O5  UNL     1      12.152  21.911   9.540  1.00  0.00    -0.242 OA
ENDBRANCH  39  40
ENDBRANCH  37  39
ENDBRANCH  13  37
BRANCH  10  43
HETATM   43  N9  UNL     1      19.170  22.193  10.514  1.00  0.00    -0.234 N 
ATOM     44  H92 UNL     1      20.015  21.735  10.855  1.00  0.00     0.174 HD
ATOM     45  H91 UNL     1      19.180  23.203  10.371  1.00  0.00     0.174 HD
ENDBRANCH  10  43
TORSDOF 11
ENDMDL
MODEL 3
REMARK VINA RESULT: -6.932491532      2.270      6.468
REMARK  11 active torsions:
REMARK  status: ('A' for Active; 'I' for Inactive)
REMARK    1  A    between atoms: O1_2  and  C2_3 
REMARK    2  A    between atoms: C2_3  and  C3_4 
REMARK    3  A    between atoms: C3_4  and  O2_5 
REMARK    4  A    between atoms: O2_5  and  N1_6 
REMARK    5  A    between atoms: C4_7  and  N2_8 
REMARK    6  A    between atoms: N2_8  and  C5_10 
REMARK    7  A    between atoms: C7_25  and  N9_26 
REMARK    8  A    between atoms: C8_31  and  C9_32 
REMARK    9  A    between atoms: C9_32  and  O4_34 
REMARK   10  A    between atoms: O4_34  and  C11_35 
REMARK   11  A    between atoms: C13_41  and  N13_42 
ROOT
HETATM    1  N1  UNL     1      14.559  14.257   4.836  1.00  0.00    -0.035 N 
HETATM    2  C4  UNL     1      15.506  15.200   4.331  1.00  0.00     0.737 C 
HETATM    3  N6  UNL     1      15.980  16.306   4.770  1.00  0.00    -0.128 N 
ATOM      4  H6  UNL     1      16.654  16.702   4.115  1.00  0.00     0.205 HD
HETATM    5  N7  UNL     1      15.833  17.116   5.889  1.00  0.00    -0.269 N 
ATOM      6  H7  UNL     1      16.428  17.943   5.873  1.00  0.00     0.189 HD
HETATM    7  C6  UNL     1      15.022  17.026   7.050  1.00  0.00     0.164 A 
HETATM    8  N8  UNL     1      15.282  18.113   7.797  1.00  0.00    -0.173 N 
ATOM      9  H8  UNL     1      15.962  18.802   7.475  1.00  0.00     0.186 HD
HETATM   10  C7  UNL     1      14.651  18.291   8.957  1.00  0.00     0.677 A 
HETATM   11  N10 UNL     1      13.772  17.387   9.354  1.00  0.00    -0.191 N 
ATOM     12  H10 UNL     1      13.311  17.559  10.246  1.00  0.00     0.184 HD
HETATM   13  C8  UNL     1      13.421  16.257   8.701  1.00  0.00     0.086 A 
HETATM   14  C12 UNL     1      14.085  16.092   7.504  1.00  0.00     0.103 A 
HETATM   15  N12 UNL     1      13.617  14.877   6.958  1.00  0.00    -0.340 N 
ATOM     16  H12 UNL     1      13.337  14.248   7.711  1.00  0.00     0.163 HD
HETATM   17  C13 UNL     1      13.405  14.237   5.688  1.00  0.00     0.432 C 
ENDROOT
BRANCH   2  18
HETATM   18  N2  UNL     1      16.066  14.876   3.070  1.00  0.00    -0.016 N 
ATOM     19  H2  UNL     1      16.495  13.963   2.918  1.00  0.00     0.203 HD
BRANCH  18  20
HETATM   20  C5  UNL     1      16.030  15.740   2.119  1.00  0.00     0.734 A 
HETATM   21  N3  UNL     1      14.955  16.183   1.424  1.00  0.00    -0.108 N 
HETATM   22  N4  UNL     1      15.422  17.055   0.560  1.00  0.00    -0.167 N 
ATOM     23  H3  UNL     1      13.983  15.899   1.547  1.00  0.00     0.207 HD
HETATM   24  O3  UNL     1      16.695  17.200   0.647  1.00  0.00    -0.126 OA
ATOM     25  H4  UNL     1      14.839  17.561  -0.106  1.00  0.00     0.219 HD
HETATM   26  N5  UNL     1      17.075  16.386   1.612  1.00  0.00    -0.068 N 
ATOM     27  H5  UNL     1      18.038  16.269   1.927  1.00  0.00     0.216 HD
ENDBRANCH  18  20
ENDBRANCH   2  18
BRANCH   1  28
HETATM   28  O2  UNL     1      14.850  13.030   4.358  1.00  0.00    -0.259 OA
BRANCH  28  29
HETATM   29  C3  UNL     1      15.415  12.209   5.323  1.00  0.00     0.228 C 
BRANCH  29  30
HETATM   30  C2  UNL     1      16.626  11.494   4.813  1.00  0.00     0.195 C 
BRANCH  30  31
HETATM   31  O1  UNL     1      16.905  11.767   3.495  1.00  0.00    -0.394 OA
HETATM   32  C1  UNL     1      18.216  12.088   3.220  1.00  0.00     0.201 C 
ENDBRANCH  30  31
ENDBRANCH  29  30
ENDBRANCH  28  29
ENDBRANCH   1  28
BRANCH  17  33
HETATM   33  N13 UNL     1      12.244  14.784   4.980  1.00  0.00    -0.038 N 
ATOM     34 3H13 UNL     1      12.418  15.729   4.636  1.00  0.00     0.279 HD
ATOM     35 2H13 UNL     1      12.091  14.323   4.083  1.00  0.00     0.279 HD
ATOM     36 1H13 UNL     1      11.417  14.743   5.576  1.00  0.00     0.279 HD
ENDBRANCH  17  33
BRANCH  13  37
HETATM   37  C9  UNL     1      12.448  15.288   9.150  1.00  0.00     0.182 C 
HETATM   38  C10 UNL     1      12.359  15.591  10.696  1.00  0.00     0.047 C 
BRANCH  37  39
HETATM   39  O4  UNL     1      11.102  15.527   8.819  1.00  0.00    -0.295 OA
BRANCH  39  40
HETATM   40  C11 UNL     1      10.217  14.636   8.301  1.00  0.00     0.373 C 
HETATM   41  N11 UNL     1       9.274  13.937   9.098  1.00  0.00    -0.032 NA
HETATM   42  O5  UNL     1      10.260  14.442   7.069  1.00  0.00    -0.242 OA
ENDBRANCH  39  40
ENDBRANCH  37  39
ENDBRANCH  13  37
BRANCH  10  43
HETATM   43  N9  UNL     1      14.930  19.354   9.650  1.00  0.00    -0.234 N 
ATOM     44  H92 UNL     1      14.528  20.269   9.447  1.00  0.00     0.174 HD
ATOM     45  H91 UNL     1      15.582  19.263  10.430  1.00  0.00     0.174 HD
ENDBRANCH  10  43
TORSDOF 11
ENDMDL
MODEL 4
REMARK VINA RESULT: -6.909143388      2.605      3.246
REMARK  11 active torsions:
REMARK  status: ('A' for Active; 'I' for Inactive)
REMARK    1  A    between atoms: O1_2  and  C2_3 
REMARK    2  A    between atoms: C2_3  and  C3_4 
REMARK    3  A    between atoms: C3_4  and  O2_5 
REMARK    4  A    between atoms: O2_5  and  N1_6 
REMARK    5  A    between atoms: C4_7  and  N2_8 
REMARK    6  A    between atoms: N2_8  and  C5_10 
REMARK    7  A    between atoms: C7_25  and  N9_26 
REMARK    8  A    between atoms: C8_31  and  C9_32 
REMARK    9  A    between atoms: C9_32  and  O4_34 
REMARK   10  A    between atoms: O4_34  and  C11_35 
REMARK   11  A    between atoms: C13_41  and  N13_42 
ROOT
HETATM    1  N1  UNL     1      12.986  14.548   6.760  1.00  0.00    -0.035 N 
HETATM    2  C4  UNL     1      13.794  15.617   7.255  1.00  0.00     0.737 C 
HETATM    3  N6  UNL     1      14.712  16.349   6.741  1.00  0.00    -0.128 N 
ATOM      4  H6  UNL     1      15.065  17.025   7.418  1.00  0.00     0.205 HD
HETATM    5  N7  UNL     1      15.360  16.479   5.519  1.00  0.00    -0.269 N 
ATOM      6  H7  UNL     1      16.051  17.228   5.503  1.00  0.00     0.189 HD
HETATM    7  C6  UNL     1      15.255  15.781   4.288  1.00  0.00     0.164 A 
HETATM    8  N8  UNL     1      16.150  16.330   3.448  1.00  0.00    -0.173 N 
ATOM      9  H8  UNL     1      16.735  17.104   3.761  1.00  0.00     0.186 HD
HETATM   10  C7  UNL     1      16.271  15.862   2.205  1.00  0.00     0.677 A 
HETATM   11  N10 UNL     1      15.503  14.857   1.822  1.00  0.00    -0.191 N 
ATOM     12  H10 UNL     1      15.626  14.528   0.864  1.00  0.00     0.184 HD
HETATM   13  C8  UNL     1      14.571  14.220   2.563  1.00  0.00     0.086 A 
HETATM   14  C12 UNL     1      14.461  14.719   3.844  1.00  0.00     0.103 A 
HETATM   15  N12 UNL     1      13.453  13.960   4.477  1.00  0.00    -0.340 N 
ATOM     16  H12 UNL     1      12.784  13.629   3.782  1.00  0.00     0.163 HD
HETATM   17  C13 UNL     1      13.060  13.501   5.783  1.00  0.00     0.432 C 
ENDROOT
BRANCH   2  18
HETATM   18  N2  UNL     1      13.561  15.976   8.606  1.00  0.00    -0.016 N 
ATOM     19  H2  UNL     1      12.986  16.788   8.828  1.00  0.00     0.203 HD
BRANCH  18  20
HETATM   20  C5  UNL     1      14.077  15.271   9.548  1.00  0.00     0.734 A 
HETATM   21  N3  UNL     1      15.299  14.689   9.590  1.00  0.00    -0.108 N 
HETATM   22  N4  UNL     1      15.366  14.081  10.753  1.00  0.00    -0.167 N 
ATOM     23  H3  UNL     1      16.019  14.717   8.869  1.00  0.00     0.207 HD
HETATM   24  O3  UNL     1      14.296  14.227  11.447  1.00  0.00    -0.126 OA
ATOM     25  H4  UNL     1      16.178  13.552  11.070  1.00  0.00     0.219 HD
HETATM   26  N5  UNL     1      13.495  14.965  10.703  1.00  0.00    -0.068 N 
ATOM     27  H5  UNL     1      12.558  15.260  10.976  1.00  0.00     0.216 HD
ENDBRANCH  18  20
ENDBRANCH   2  18
BRANCH   1  28
HETATM   28  O2  UNL     1      11.811  14.533   7.422  1.00  0.00    -0.259 OA
BRANCH  28  29
HETATM   29  C3  UNL     1      10.729  14.742   6.579  1.00  0.00     0.228 C 
BRANCH  29  30
HETATM   30  C2  UNL     1       9.423  14.607   7.296  1.00  0.00     0.195 C 
BRANCH  30  31
HETATM   31  O1  UNL     1       8.415  14.115   6.503  1.00  0.00    -0.394 OA
HETATM   32  C1  UNL     1       8.799  13.692   5.249  1.00  0.00     0.201 C 
ENDBRANCH  30  31
ENDBRANCH  29  30
ENDBRANCH  28  29
ENDBRANCH   1  28
BRANCH  17  33
HETATM   33  N13 UNL     1      13.919  12.416   6.267  1.00  0.00    -0.038 N 
ATOM     34 3H13 UNL     1      14.616  12.144   5.574  1.00  0.00     0.279 HD
ATOM     35 2H13 UNL     1      14.553  12.731   7.003  1.00  0.00     0.279 HD
ATOM     36 1H13 UNL     1      13.351  11.624   6.567  1.00  0.00     0.279 HD
ENDBRANCH  17  33
BRANCH  13  37
HETATM   37  C9  UNL     1      13.750  13.114   2.124  1.00  0.00     0.182 C 
HETATM   38  C10 UNL     1      13.833  13.237   0.554  1.00  0.00     0.047 C 
BRANCH  37  39
HETATM   39  O4  UNL     1      14.288  11.822   2.255  1.00  0.00    -0.295 OA
BRANCH  39  40
HETATM   40  C11 UNL     1      15.450  11.479   2.869  1.00  0.00     0.373 C 
HETATM   41  N11 UNL     1      15.496  10.922   4.173  1.00  0.00    -0.032 NA
HETATM   42  O5  UNL     1      16.507  11.676   2.236  1.00  0.00    -0.242 OA
ENDBRANCH  39  40
ENDBRANCH  37  39
ENDBRANCH  13  37
BRANCH  10  43
HETATM   43  N9  UNL     1      17.146  16.419   1.423  1.00  0.00    -0.234 N 
ATOM     44  H92 UNL     1      17.790  17.144   1.740  1.00  0.00     0.174 HD
ATOM     45  H91 UNL     1      17.186  16.115   0.451  1.00  0.00     0.174 HD
ENDBRANCH  10  43
TORSDOF 11
ENDMDL
MODEL 5
REMARK VINA RESULT: -6.886713935      2.370      7.289
REMARK  11 active torsions:
REMARK  status: ('A' for Active; 'I' for Inactive)
REMARK    1  A    between atoms: O1_2  and  C2_3 
REMARK    2  A    between atoms: C2_3  and  C3_4 
REMARK    3  A    between atoms: C3_4  and  O2_5 
REMARK    4  A    between atoms: O2_5  and  N1_6 
REMARK    5  A    between atoms: C4_7  and  N2_8 
REMARK    6  A    between atoms: N2_8  and  C5_10 
REMARK    7  A    between atoms: C7_25  and  N9_26 
REMARK    8  A    between atoms: C8_31  and  C9_32 
REMARK    9  A    between atoms: C9_32  and  O4_34 
REMARK   10  A    between atoms: O4_34  and  C11_35 
REMARK   11  A    between atoms: C13_41  and  N13_42 
ROOT
HETATM    1  N1  UNL     1      13.323  16.542   7.148  1.00  0.00    -0.035 N 
HETATM    2  C4  UNL     1      14.470  16.177   6.376  1.00  0.00     0.737 C 
HETATM    3  N6  UNL     1      15.681  16.591   6.335  1.00  0.00    -0.128 N 
ATOM      4  H6  UNL     1      16.222  16.076   5.640  1.00  0.00     0.205 HD
HETATM    5  N7  UNL     1      16.465  17.545   6.973  1.00  0.00    -0.269 N 
ATOM      6  H7  UNL     1      17.434  17.553   6.656  1.00  0.00     0.189 HD
HETATM    7  C6  UNL     1      16.190  18.511   7.975  1.00  0.00     0.164 A 
HETATM    8  N8  UNL     1      17.334  19.183   8.197  1.00  0.00    -0.173 N 
ATOM      9  H8  UNL     1      18.176  18.942   7.675  1.00  0.00     0.186 HD
HETATM   10  C7  UNL     1      17.366  20.163   9.100  1.00  0.00     0.677 A 
HETATM   11  N10 UNL     1      16.262  20.458   9.764  1.00  0.00    -0.191 N 
ATOM     12  H10 UNL     1      16.328  21.214  10.446  1.00  0.00     0.184 HD
HETATM   13  C8  UNL     1      15.056  19.864   9.636  1.00  0.00     0.086 A 
HETATM   14  C12 UNL     1      15.043  18.854   8.698  1.00  0.00     0.103 A 
HETATM   15  N12 UNL     1      13.730  18.338   8.691  1.00  0.00    -0.340 N 
ATOM     16  H12 UNL     1      13.308  18.460   9.612  1.00  0.00     0.163 HD
HETATM   17  C13 UNL     1      12.791  17.696   7.811  1.00  0.00     0.432 C 
ENDROOT
BRANCH   2  18
HETATM   18  N2  UNL     1      14.260  15.135   5.440  1.00  0.00    -0.016 N 
ATOM     19  H2  UNL     1      13.415  15.121   4.869  1.00  0.00     0.203 HD
BRANCH  18  20
HETATM   20  C5  UNL     1      15.141  14.207   5.314  1.00  0.00     0.734 A 
HETATM   21  N3  UNL     1      16.073  14.059   4.343  1.00  0.00    -0.108 N 
HETATM   22  N4  UNL     1      16.735  12.965   4.646  1.00  0.00    -0.167 N 
ATOM     23  H3  UNL     1      16.230  14.670   3.541  1.00  0.00     0.207 HD
HETATM   24  O3  UNL     1      16.302  12.411   5.720  1.00  0.00    -0.126 OA
ATOM     25  H4  UNL     1      17.506  12.597   4.090  1.00  0.00     0.219 HD
HETATM   26  N5  UNL     1      15.314  13.179   6.136  1.00  0.00    -0.068 N 
ATOM     27  H5  UNL     1      14.759  13.007   6.975  1.00  0.00     0.216 HD
ENDBRANCH  18  20
ENDBRANCH   2  18
BRANCH   1  28
HETATM   28  O2  UNL     1      12.514  15.471   7.279  1.00  0.00    -0.259 OA
BRANCH  28  29
HETATM   29  C3  UNL     1      12.411  15.046   8.596  1.00  0.00     0.228 C 
BRANCH  29  30
HETATM   30  C2  UNL     1      12.872  13.634   8.769  1.00  0.00     0.195 C 
BRANCH  30  31
HETATM   31  O1  UNL     1      14.232  13.521   8.928  1.00  0.00    -0.394 OA
HETATM   32  C1  UNL     1      14.816  14.473   9.734  1.00  0.00     0.201 C 
ENDBRANCH  30  31
ENDBRANCH  29  30
ENDBRANCH  28  29
ENDBRANCH   1  28
BRANCH  17  33
HETATM   33  N13 UNL     1      12.228  18.629   6.829  1.00  0.00    -0.038 N 
ATOM     34 3H13 UNL     1      12.906  18.878   6.109  1.00  0.00     0.279 HD
ATOM     35 2H13 UNL     1      11.532  18.181   6.233  1.00  0.00     0.279 HD
ATOM     36 1H13 UNL     1      11.853  19.452   7.301  1.00  0.00     0.279 HD
ENDBRANCH  17  33
BRANCH  13  37
HETATM   37  C9  UNL     1      13.858  20.213  10.367  1.00  0.00     0.182 C 
HETATM   38  C10 UNL     1      14.415  21.180  11.482  1.00  0.00     0.047 C 
BRANCH  37  39
HETATM   39  O4  UNL     1      12.966  21.109   9.750  1.00  0.00    -0.295 OA
BRANCH  39  40
HETATM   40  C11 UNL     1      13.172  21.806   8.603  1.00  0.00     0.373 C 
HETATM   41  N11 UNL     1      13.797  23.080   8.579  1.00  0.00    -0.032 NA
HETATM   42  O5  UNL     1      12.785  21.280   7.540  1.00  0.00    -0.242 OA
ENDBRANCH  39  40
ENDBRANCH  37  39
ENDBRANCH  13  37
BRANCH  10  43
HETATM   43  N9  UNL     1      18.490  20.787   9.286  1.00  0.00    -0.234 N 
ATOM     44  H92 UNL     1      19.383  20.305   9.377  1.00  0.00     0.174 HD
ATOM     45  H91 UNL     1      18.471  21.806   9.344  1.00  0.00     0.174 HD
ENDBRANCH  10  43
TORSDOF 11
ENDMDL
