MODEL 1
REMARK VINA RESULT: -6.410280780      0.000      0.000
REMARK  14 active torsions:
REMARK  status: ('A' for Active; 'I' for Inactive)
REMARK    1  A    between atoms: S1_2  and  O3_5 
REMARK    2  A    between atoms: O3_5  and  C2_6 
REMARK    3  A    between atoms: C2_6  and  C3_7 
REMARK    4  A    between atoms: C3_7  and  N1_8 
REMARK    5  A    between atoms: C4_9  and  O4_10 
REMARK    6  A    between atoms: C5_12  and  C6_13 
REMARK    7  A    between atoms: C6_13  and  N2_14 
REMARK    8  A    between atoms: C6_13  and  O5_18 
REMARK    9  A    between atoms: N3_20  and  N4_21 
REMARK   10  A    between atoms: C7_22  and  O6_23 
REMARK   11  A    between atoms: C8_25  and  O7_26 
REMARK   12  A    between atoms: C10_32  and  N6_33 
REMARK   13  A    between atoms: C11_36  and  N7_37 
REMARK   14  A    between atoms: N7_37  and  N8_39 
ROOT
HETATM    1  N1  UNL     1      13.136  18.850  11.924  1.00  0.00    -0.306 N 
HETATM    2  C4  UNL     1      13.780  17.674  11.929  1.00  0.00     0.174 A 
HETATM    3  C5  UNL     1      13.132  16.470  11.576  1.00  0.00     0.143 A 
HETATM    4  N3  UNL     1      11.857  16.469  11.228  1.00  0.00    -0.221 N 
HETATM    5  C10 UNL     1      11.196  17.662  11.221  1.00  0.00     0.168 A 
HETATM    6  C11 UNL     1      11.840  18.865  11.571  1.00  0.00     0.170 A 
ENDROOT
BRANCH   4   7
HETATM    7  N4  UNL     1      11.155  15.317  10.877  1.00  0.00    -0.194 N 
HETATM    8  C7  UNL     1      10.464  14.535  11.752  1.00  0.00     0.217 A 
HETATM    9  C8  UNL     1       9.932  13.444  11.060  1.00  0.00     0.196 A 
HETATM   10  N5  UNL     1      10.325  13.604   9.761  1.00  0.00    -0.309 N 
HETATM   11  C9  UNL     1      11.055  14.730   9.672  1.00  0.00     0.202 A 
ATOM     12  H5  UNL     1      10.102  12.976   8.990  1.00  0.00     0.170 HD
HETATM   13  S2  UNL     1      11.711  15.272   8.282  1.00  0.00    -0.038 SA
BRANCH   8  14
HETATM   14  O6  UNL     1      10.293  14.747  13.103  1.00  0.00    -0.342 OA
ATOM     15  H6  UNL     1       9.846  15.475  13.518  1.00  0.00     0.219 HD
ENDBRANCH   8  14
BRANCH   9  16
HETATM   16  O7  UNL     1       9.170  12.401  11.527  1.00  0.00    -0.343 OA
ATOM     17  H7  UNL     1       8.443  11.952  11.113  1.00  0.00     0.219 HD
ENDBRANCH   9  16
ENDBRANCH   4   7
BRANCH   3  18
HETATM   18  C6  UNL     1      13.957  15.254  11.609  1.00  0.00     0.373 C 
BRANCH  18  19
HETATM   19  N2  UNL     1      14.412  15.031  12.987  1.00  0.00    -0.047 N 
ATOM     20  H23 UNL     1      15.332  15.433  13.165  1.00  0.00     0.277 HD
ATOM     21  H22 UNL     1      13.884  15.579  13.666  1.00  0.00     0.277 HD
ATOM     22  H21 UNL     1      14.379  14.030  13.184  1.00  0.00     0.277 HD
ENDBRANCH  18  19
BRANCH  18  23
HETATM   23  O5  UNL     1      14.991  15.163  10.728  1.00  0.00    -0.365 OA
ATOM     24  H5  UNL     1      15.080  14.360  10.229  1.00  0.00     0.212 HD
ENDBRANCH  18  23
ENDBRANCH   3  18
BRANCH   5  25
HETATM   25  N6  UNL     1       9.957  17.639  10.879  1.00  0.00    -0.381 N 
ATOM     26  H62 UNL     1       9.359  16.843  11.100  1.00  0.00     0.157 HD
ATOM     27  H61 UNL     1       9.601  18.452  10.377  1.00  0.00     0.157 HD
ENDBRANCH   5  25
BRANCH   2  28
HETATM   28  O4  UNL     1      15.120  17.650  12.294  1.00  0.00    -0.344 OA
ATOM     29  H4  UNL     1      15.450  16.896  12.768  1.00  0.00     0.219 HD
ENDBRANCH   2  28
BRANCH   6  30
HETATM   30  N7  UNL     1      11.109  19.875  11.525  1.00  0.00    -0.289 N 
ATOM     31  H7  UNL     1      10.950  20.213  10.576  1.00  0.00     0.188 HD
BRANCH  30  32
HETATM   32  N8  UNL     1      10.488  20.609  12.460  1.00  0.00    -0.344 N 
ATOM     33  H82 UNL     1      10.783  20.354  13.403  1.00  0.00     0.176 HD
ATOM     34  H81 UNL     1       9.795  21.356  12.420  1.00  0.00     0.176 HD
ENDBRANCH  30  32
ENDBRANCH   6  30
BRANCH   1  35
HETATM   35  C3  UNL     1      13.892  20.025  12.297  1.00  0.00     0.160 C 
BRANCH  35  36
HETATM   36  C2  UNL     1      14.248  20.932  11.174  1.00  0.00     0.210 C 
BRANCH  36  37
HETATM   37  O3  UNL     1      15.429  20.418  10.597  1.00  0.00    -0.274 OA
BRANCH  37  38
HETATM   38  S1  UNL     1      16.205  21.571   9.687  1.00  0.00     0.261 S 
HETATM   39  C1  UNL     1      17.884  21.839  10.270  1.00  0.00     0.194 C 
HETATM   40  O1  UNL     1      15.484  22.887   9.895  1.00  0.00    -0.199 OA
HETATM   41  O2  UNL     1      16.241  21.201   8.246  1.00  0.00    -0.199 OA
ENDBRANCH  37  38
ENDBRANCH  36  37
ENDBRANCH  35  36
ENDBRANCH   1  35
TORSDOF 14
ENDMDL
MODEL 2
REMARK VINA RESULT: -6.246011720      1.697      2.888
REMARK  14 active torsions:
REMARK  status: ('A' for Active; 'I' for Inactive)
REMARK    1  A    between atoms: S1_2  and  O3_5 
REMARK    2  A    between atoms: O3_5  and  C2_6 
REMARK    3  A    between atoms: C2_6  and  C3_7 
REMARK    4  A    between atoms: C3_7  and  N1_8 
REMARK    5  A    between atoms: C4_9  and  O4_10 
REMARK    6  A    between atoms: C5_12  and  C6_13 
REMARK    7  A    between atoms: C6_13  and  N2_14 
REMARK    8  A    between atoms: C6_13  and  O5_18 
REMARK    9  A    between atoms: N3_20  and  N4_21 
REMARK   10  A    between atoms: C7_22  and  O6_23 
REMARK   11  A    between atoms: C8_25  and  O7_26 
REMARK   12  A    between atoms: C10_32  and  N6_33 
REMARK   13  A    between atoms: C11_36  and  N7_37 
REMARK   14  A    between atoms: N7_37  and  N8_39 
ROOT
HETATM    1  N1  UNL     1      13.503  18.942  11.857  1.00  0.00    -0.306 N 
HETATM    2  C4  UNL     1      12.377  18.995  11.131  1.00  0.00     0.174 A 
HETATM    3  C5  UNL     1      11.659  17.827  10.787  1.00  0.00     0.143 A 
HETATM    4  N3  UNL     1      12.084  16.638  11.174  1.00  0.00    -0.221 N 
HETATM    5  C10 UNL     1      13.229  16.578  11.912  1.00  0.00     0.168 A 
HETATM    6  C11 UNL     1      13.947  17.740  12.258  1.00  0.00     0.170 A 
ENDROOT
BRANCH   4   7
HETATM    7  N4  UNL     1      11.431  15.447  10.863  1.00  0.00    -0.194 N 
HETATM    8  C7  UNL     1      10.635  14.753  11.723  1.00  0.00     0.217 A 
HETATM    9  C8  UNL     1      10.194  13.588  11.090  1.00  0.00     0.196 A 
HETATM   10  N5  UNL     1      10.747  13.614   9.841  1.00  0.00    -0.309 N 
HETATM   11  C9  UNL     1      11.483  14.734   9.725  1.00  0.00     0.202 A 
ATOM     12  H5  UNL     1      10.622  12.905   9.120  1.00  0.00     0.170 HD
HETATM   13  S2  UNL     1      12.308  15.134   8.378  1.00  0.00    -0.038 SA
BRANCH   8  14
HETATM   14  O6  UNL     1      10.295  15.104  13.012  1.00  0.00    -0.342 OA
ATOM     15  H6  UNL     1       9.420  15.233  13.360  1.00  0.00     0.219 HD
ENDBRANCH   8  14
BRANCH   9  16
HETATM   16  O7  UNL     1       9.378  12.591  11.567  1.00  0.00    -0.343 OA
ATOM     17  H7  UNL     1       9.590  11.851  12.123  1.00  0.00     0.219 HD
ENDBRANCH   9  16
ENDBRANCH   4   7
BRANCH   3  18
HETATM   18  C6  UNL     1      10.433  18.027  10.002  1.00  0.00     0.373 C 
BRANCH  18  19
HETATM   19  N2  UNL     1      10.803  18.511   8.666  1.00  0.00    -0.047 N 
ATOM     20  H23 UNL     1      10.746  19.526   8.589  1.00  0.00     0.277 HD
ATOM     21  H22 UNL     1      11.800  18.411   8.476  1.00  0.00     0.277 HD
ATOM     22  H21 UNL     1      10.225  18.035   7.973  1.00  0.00     0.277 HD
ENDBRANCH  18  19
BRANCH  18  23
HETATM   23  O5  UNL     1       9.446  18.788  10.546  1.00  0.00    -0.365 OA
ATOM     24  H5  UNL     1       9.326  18.754  11.488  1.00  0.00     0.212 HD
ENDBRANCH  18  23
ENDBRANCH   3  18
BRANCH   5  25
HETATM   25  N6  UNL     1      13.625  15.411  12.279  1.00  0.00    -0.381 N 
ATOM     26  H62 UNL     1      14.534  15.044  11.997  1.00  0.00     0.157 HD
ATOM     27  H61 UNL     1      12.989  14.870  12.864  1.00  0.00     0.157 HD
ENDBRANCH   5  25
BRANCH   2  28
HETATM   28  O4  UNL     1      11.912  20.234  10.710  1.00  0.00    -0.344 OA
ATOM     29  H4  UNL     1      11.465  20.294   9.874  1.00  0.00     0.219 HD
ENDBRANCH   2  28
BRANCH   6  30
HETATM   30  N7  UNL     1      14.977  17.531  12.930  1.00  0.00    -0.289 N 
ATOM     31  H7  UNL     1      15.598  16.839  12.509  1.00  0.00     0.188 HD
BRANCH  30  32
HETATM   32  N8  UNL     1      15.442  18.023  14.088  1.00  0.00    -0.344 N 
ATOM     33  H82 UNL     1      15.361  17.348  14.848  1.00  0.00     0.176 HD
ATOM     34  H81 UNL     1      15.850  18.917  14.357  1.00  0.00     0.176 HD
ENDBRANCH  30  32
ENDBRANCH   6  30
BRANCH   1  35
HETATM   35  C3  UNL     1      14.160  20.195  12.158  1.00  0.00     0.160 C 
BRANCH  35  36
HETATM   36  C2  UNL     1      15.284  20.554  11.254  1.00  0.00     0.210 C 
BRANCH  36  37
HETATM   37  O3  UNL     1      14.727  21.292  10.187  1.00  0.00    -0.274 OA
BRANCH  37  38
HETATM   38  S1  UNL     1      15.913  21.941   9.222  1.00  0.00     0.261 S 
HETATM   39  C1  UNL     1      17.514  21.890  10.035  1.00  0.00     0.194 C 
HETATM   40  O1  UNL     1      15.598  23.410   9.027  1.00  0.00    -0.199 OA
HETATM   41  O2  UNL     1      16.005  21.235   7.916  1.00  0.00    -0.199 OA
ENDBRANCH  37  38
ENDBRANCH  36  37
ENDBRANCH  35  36
ENDBRANCH   1  35
TORSDOF 14
ENDMDL
MODEL 3
REMARK VINA RESULT: -6.107176899      2.087      2.378
REMARK  14 active torsions:
REMARK  status: ('A' for Active; 'I' for Inactive)
REMARK    1  A    between atoms: S1_2  and  O3_5 
REMARK    2  A    between atoms: O3_5  and  C2_6 
REMARK    3  A    between atoms: C2_6  and  C3_7 
REMARK    4  A    between atoms: C3_7  and  N1_8 
REMARK    5  A    between atoms: C4_9  and  O4_10 
REMARK    6  A    between atoms: C5_12  and  C6_13 
REMARK    7  A    between atoms: C6_13  and  N2_14 
REMARK    8  A    between atoms: C6_13  and  O5_18 
REMARK    9  A    between atoms: N3_20  and  N4_21 
REMARK   10  A    between atoms: C7_22  and  O6_23 
REMARK   11  A    between atoms: C8_25  and  O7_26 
REMARK   12  A    between atoms: C10_32  and  N6_33 
REMARK   13  A    between atoms: C11_36  and  N7_37 
REMARK   14  A    between atoms: N7_37  and  N8_39 
ROOT
HETATM    1  N1  UNL     1      13.063  18.880  12.009  1.00  0.00    -0.306 N 
HETATM    2  C4  UNL     1      13.722  17.712  12.005  1.00  0.00     0.174 A 
HETATM    3  C5  UNL     1      13.093  16.505  11.626  1.00  0.00     0.143 A 
HETATM    4  N3  UNL     1      11.823  16.493  11.263  1.00  0.00    -0.221 N 
HETATM    5  C10 UNL     1      11.147  17.678  11.265  1.00  0.00     0.168 A 
HETATM    6  C11 UNL     1      11.771  18.884  11.642  1.00  0.00     0.170 A 
ENDROOT
BRANCH   4   7
HETATM    7  N4  UNL     1      11.139  15.339  10.886  1.00  0.00    -0.194 N 
HETATM    8  C7  UNL     1      10.457  14.529  11.742  1.00  0.00     0.217 A 
HETATM    9  C8  UNL     1       9.944  13.444  11.026  1.00  0.00     0.196 A 
HETATM   10  N5  UNL     1      10.340  13.636   9.733  1.00  0.00    -0.309 N 
HETATM   11  C9  UNL     1      11.053  14.774   9.669  1.00  0.00     0.202 A 
ATOM     12  H5  UNL     1      10.130  13.019   8.948  1.00  0.00     0.170 HD
HETATM   13  S2  UNL     1      11.706  15.353   8.293  1.00  0.00    -0.038 SA
BRANCH   8  14
HETATM   14  O6  UNL     1      10.277  14.711  13.096  1.00  0.00    -0.342 OA
ATOM     15  H6  UNL     1       9.736  15.368  13.521  1.00  0.00     0.219 HD
ENDBRANCH   8  14
BRANCH   9  16
HETATM   16  O7  UNL     1       9.195  12.381  11.470  1.00  0.00    -0.343 OA
ATOM     17  H7  UNL     1       9.157  11.491  11.141  1.00  0.00     0.219 HD
ENDBRANCH   9  16
ENDBRANCH   4   7
BRANCH   3  18
HETATM   18  C6  UNL     1      13.933  15.299  11.650  1.00  0.00     0.373 C 
BRANCH  18  19
HETATM   19  N2  UNL     1      14.375  15.061  13.031  1.00  0.00    -0.047 N 
ATOM     20  H23 UNL     1      14.834  15.874  13.439  1.00  0.00     0.277 HD
ATOM     21  H22 UNL     1      13.594  14.996  13.684  1.00  0.00     0.277 HD
ATOM     22  H21 UNL     1      14.966  14.230  13.046  1.00  0.00     0.277 HD
ENDBRANCH  18  19
BRANCH  18  23
HETATM   23  O5  UNL     1      14.978  15.235  10.781  1.00  0.00    -0.365 OA
ATOM     24  H5  UNL     1      15.813  15.589  11.062  1.00  0.00     0.212 HD
ENDBRANCH  18  23
ENDBRANCH   3  18
BRANCH   5  25
HETATM   25  N6  UNL     1       9.912  17.645  10.908  1.00  0.00    -0.381 N 
ATOM     26  H62 UNL     1       9.230  17.071  11.404  1.00  0.00     0.157 HD
ATOM     27  H61 UNL     1       9.647  18.217  10.107  1.00  0.00     0.157 HD
ENDBRANCH   5  25
BRANCH   2  28
HETATM   28  O4  UNL     1      15.057  17.699  12.385  1.00  0.00    -0.344 OA
ATOM     29  H4  UNL     1      15.276  17.439  13.273  1.00  0.00     0.219 HD
ENDBRANCH   2  28
BRANCH   6  30
HETATM   30  N7  UNL     1      11.028  19.885  11.602  1.00  0.00    -0.289 N 
ATOM     31  H7  UNL     1      10.393  19.946  12.398  1.00  0.00     0.188 HD
BRANCH  30  32
HETATM   32  N8  UNL     1      10.887  20.897  10.734  1.00  0.00    -0.344 N 
ATOM     33  H82 UNL     1      11.397  20.729   9.866  1.00  0.00     0.176 HD
ATOM     34  H81 UNL     1      10.384  21.784  10.765  1.00  0.00     0.176 HD
ENDBRANCH  30  32
ENDBRANCH   6  30
BRANCH   1  35
HETATM   35  C3  UNL     1      13.799  20.058  12.410  1.00  0.00     0.160 C 
BRANCH  35  36
HETATM   36  C2  UNL     1      13.568  20.504  13.809  1.00  0.00     0.210 C 
BRANCH  36  37
HETATM   37  O3  UNL     1      14.350  19.667  14.635  1.00  0.00    -0.274 OA
BRANCH  37  38
HETATM   38  S1  UNL     1      15.892  20.262  14.805  1.00  0.00     0.261 S 
HETATM   39  C1  UNL     1      16.515  19.992  16.469  1.00  0.00     0.194 C 
HETATM   40  O1  UNL     1      15.830  21.766  14.628  1.00  0.00    -0.199 OA
HETATM   41  O2  UNL     1      16.829  19.646  13.827  1.00  0.00    -0.199 OA
ENDBRANCH  37  38
ENDBRANCH  36  37
ENDBRANCH  35  36
ENDBRANCH   1  35
TORSDOF 14
ENDMDL
MODEL 4
REMARK VINA RESULT: -6.049832586      1.862      3.175
REMARK  14 active torsions:
REMARK  status: ('A' for Active; 'I' for Inactive)
REMARK    1  A    between atoms: S1_2  and  O3_5 
REMARK    2  A    between atoms: O3_5  and  C2_6 
REMARK    3  A    between atoms: C2_6  and  C3_7 
REMARK    4  A    between atoms: C3_7  and  N1_8 
REMARK    5  A    between atoms: C4_9  and  O4_10 
REMARK    6  A    between atoms: C5_12  and  C6_13 
REMARK    7  A    between atoms: C6_13  and  N2_14 
REMARK    8  A    between atoms: C6_13  and  O5_18 
REMARK    9  A    between atoms: N3_20  and  N4_21 
REMARK   10  A    between atoms: C7_22  and  O6_23 
REMARK   11  A    between atoms: C8_25  and  O7_26 
REMARK   12  A    between atoms: C10_32  and  N6_33 
REMARK   13  A    between atoms: C11_36  and  N7_37 
REMARK   14  A    between atoms: N7_37  and  N8_39 
ROOT
HETATM    1  N1  UNL     1      13.209  19.362  13.174  1.00  0.00    -0.306 N 
HETATM    2  C4  UNL     1      11.950  19.365  12.714  1.00  0.00     0.174 A 
HETATM    3  C5  UNL     1      11.394  18.244  12.058  1.00  0.00     0.143 A 
HETATM    4  N3  UNL     1      12.110  17.149  11.875  1.00  0.00    -0.221 N 
HETATM    5  C10 UNL     1      13.392  17.139  12.340  1.00  0.00     0.168 A 
HETATM    6  C11 UNL     1      13.949  18.254  12.996  1.00  0.00     0.170 A 
ENDROOT
BRANCH   4   7
HETATM    7  N4  UNL     1      11.628  16.012  11.229  1.00  0.00    -0.194 N 
HETATM    8  C7  UNL     1      10.933  15.012  11.839  1.00  0.00     0.217 A 
HETATM    9  C8  UNL     1      10.659  14.015  10.899  1.00  0.00     0.196 A 
HETATM   10  N5  UNL     1      11.206  14.453   9.726  1.00  0.00    -0.309 N 
HETATM   11  C9  UNL     1      11.781  15.649   9.944  1.00  0.00     0.202 A 
ATOM     12  H5  UNL     1      11.183  13.956   8.836  1.00  0.00     0.170 HD
HETATM   13  S2  UNL     1      12.547  16.505   8.789  1.00  0.00    -0.038 SA
BRANCH   8  14
HETATM   14  O6  UNL     1      10.545  14.951  13.159  1.00  0.00    -0.342 OA
ATOM     15  H6  UNL     1      10.937  15.408  13.895  1.00  0.00     0.219 HD
ENDBRANCH   8  14
BRANCH   9  16
HETATM   16  O7  UNL     1       9.987  12.827  11.057  1.00  0.00    -0.343 OA
ATOM     17  H7  UNL     1       9.484  12.330  10.423  1.00  0.00     0.219 HD
ENDBRANCH   9  16
ENDBRANCH   4   7
BRANCH   3  18
HETATM   18  C6  UNL     1       9.998  18.375  11.618  1.00  0.00     0.373 C 
BRANCH  18  19
HETATM   19  N2  UNL     1       9.963  19.195  10.400  1.00  0.00    -0.047 N 
ATOM     20  H23 UNL     1      10.408  20.104  10.528  1.00  0.00     0.277 HD
ATOM     21  H22 UNL     1      10.581  18.838   9.671  1.00  0.00     0.277 HD
ATOM     22  H21 UNL     1       8.996  19.275  10.087  1.00  0.00     0.277 HD
ENDBRANCH  18  19
BRANCH  18  23
HETATM   23  O5  UNL     1       9.082  18.805  12.528  1.00  0.00    -0.365 OA
ATOM     24  H5  UNL     1       8.862  18.224  13.246  1.00  0.00     0.212 HD
ENDBRANCH  18  23
ENDBRANCH   3  18
BRANCH   5  25
HETATM   25  N6  UNL     1      14.071  16.063  12.153  1.00  0.00    -0.381 N 
ATOM     26  H62 UNL     1      13.915  15.471  11.337  1.00  0.00     0.157 HD
ATOM     27  H61 UNL     1      14.771  15.830  12.857  1.00  0.00     0.157 HD
ENDBRANCH   5  25
BRANCH   2  28
HETATM   28  O4  UNL     1      11.179  20.507  12.892  1.00  0.00    -0.344 OA
ATOM     29  H4  UNL     1      10.263  20.483  12.641  1.00  0.00     0.219 HD
ENDBRANCH   2  28
BRANCH   6  30
HETATM   30  N7  UNL     1      15.133  18.103  13.360  1.00  0.00    -0.289 N 
ATOM     31  H7  UNL     1      15.700  17.595  12.681  1.00  0.00     0.188 HD
BRANCH  30  32
HETATM   32  N8  UNL     1      15.816  18.466  14.455  1.00  0.00    -0.344 N 
ATOM     33  H82 UNL     1      15.448  18.025  15.298  1.00  0.00     0.176 HD
ATOM     34  H81 UNL     1      16.614  19.081  14.613  1.00  0.00     0.176 HD
ENDBRANCH  30  32
ENDBRANCH   6  30
BRANCH   1  35
HETATM   35  C3  UNL     1      13.681  20.558  13.835  1.00  0.00     0.160 C 
BRANCH  35  36
HETATM   36  C2  UNL     1      14.236  21.602  12.933  1.00  0.00     0.210 C 
BRANCH  36  37
HETATM   37  O3  UNL     1      15.471  21.111  12.456  1.00  0.00    -0.274 OA
BRANCH  37  38
HETATM   38  S1  UNL     1      15.601  21.309  10.811  1.00  0.00     0.261 S 
HETATM   39  C1  UNL     1      17.314  21.521  10.315  1.00  0.00     0.194 C 
HETATM   40  O1  UNL     1      14.904  22.604  10.445  1.00  0.00    -0.199 OA
HETATM   41  O2  UNL     1      15.016  20.158  10.071  1.00  0.00    -0.199 OA
ENDBRANCH  37  38
ENDBRANCH  36  37
ENDBRANCH  35  36
ENDBRANCH   1  35
TORSDOF 14
ENDMDL
MODEL 5
REMARK VINA RESULT: -6.011598970      3.050      7.401
REMARK  14 active torsions:
REMARK  status: ('A' for Active; 'I' for Inactive)
REMARK    1  A    between atoms: S1_2  and  O3_5 
REMARK    2  A    between atoms: O3_5  and  C2_6 
REMARK    3  A    between atoms: C2_6  and  C3_7 
REMARK    4  A    between atoms: C3_7  and  N1_8 
REMARK    5  A    between atoms: C4_9  and  O4_10 
REMARK    6  A    between atoms: C5_12  and  C6_13 
REMARK    7  A    between atoms: C6_13  and  N2_14 
REMARK    8  A    between atoms: C6_13  and  O5_18 
REMARK    9  A    between atoms: N3_20  and  N4_21 
REMARK   10  A    between atoms: C7_22  and  O6_23 
REMARK   11  A    between atoms: C8_25  and  O7_26 
REMARK   12  A    between atoms: C10_32  and  N6_33 
REMARK   13  A    between atoms: C11_36  and  N7_37 
REMARK   14  A    between atoms: N7_37  and  N8_39 
ROOT
HETATM    1  N1  UNL     1      13.154  18.099  11.035  1.00  0.00    -0.306 N 
HETATM    2  C4  UNL     1      13.258  19.418  10.816  1.00  0.00     0.174 A 
HETATM    3  C5  UNL     1      14.063  20.246  11.630  1.00  0.00     0.143 A 
HETATM    4  N3  UNL     1      14.743  19.737  12.642  1.00  0.00    -0.221 N 
HETATM    5  C10 UNL     1      14.641  18.396  12.871  1.00  0.00     0.168 A 
HETATM    6  C11 UNL     1      13.840  17.568  12.061  1.00  0.00     0.170 A 
ENDROOT
BRANCH   4   7
HETATM    7  N4  UNL     1      15.548  20.497  13.489  1.00  0.00    -0.194 N 
HETATM    8  C7  UNL     1      16.870  20.750  13.278  1.00  0.00     0.217 A 
HETATM    9  C8  UNL     1      17.363  21.495  14.352  1.00  0.00     0.196 A 
HETATM   10  N5  UNL     1      16.303  21.674  15.195  1.00  0.00    -0.309 N 
HETATM   11  C9  UNL     1      15.227  21.070  14.661  1.00  0.00     0.202 A 
ATOM     12  H5  UNL     1      16.325  22.180  16.080  1.00  0.00     0.170 HD
HETATM   13  S2  UNL     1      13.758  21.055  15.368  1.00  0.00    -0.038 SA
BRANCH   8  14
HETATM   14  O6  UNL     1      17.632  20.356  12.200  1.00  0.00    -0.342 OA
ATOM     15  H6  UNL     1      17.454  19.641  11.601  1.00  0.00     0.219 HD
ENDBRANCH   8  14
BRANCH   9  16
HETATM   16  O7  UNL     1      18.631  21.976  14.572  1.00  0.00    -0.343 OA
ATOM     17  H7  UNL     1      19.470  21.587  14.355  1.00  0.00     0.219 HD
ENDBRANCH   9  16
ENDBRANCH   4   7
BRANCH   3  18
HETATM   18  C6  UNL     1      14.101  21.670  11.271  1.00  0.00     0.373 C 
BRANCH  18  19
HETATM   19  N2  UNL     1      12.798  22.270  11.588  1.00  0.00    -0.047 N 
ATOM     20  H23 UNL     1      12.853  22.934  12.360  1.00  0.00     0.277 HD
ATOM     21  H22 UNL     1      12.481  22.918  10.867  1.00  0.00     0.277 HD
ATOM     22  H21 UNL     1      12.127  21.522  11.763  1.00  0.00     0.277 HD
ENDBRANCH  18  19
BRANCH  18  23
HETATM   23  O5  UNL     1      14.501  21.999  10.012  1.00  0.00    -0.365 OA
ATOM     24  H5  UNL     1      14.488  21.317   9.350  1.00  0.00     0.212 HD
ENDBRANCH  18  23
ENDBRANCH   3  18
BRANCH   5  25
HETATM   25  N6  UNL     1      15.311  17.922  13.860  1.00  0.00    -0.381 N 
ATOM     26  H62 UNL     1      16.309  18.104  13.964  1.00  0.00     0.157 HD
ATOM     27  H61 UNL     1      14.798  17.355  14.535  1.00  0.00     0.157 HD
ENDBRANCH   5  25
BRANCH   2  28
HETATM   28  O4  UNL     1      12.550  19.975   9.759  1.00  0.00    -0.344 OA
ATOM     29  H4  UNL     1      11.921  19.435   9.296  1.00  0.00     0.219 HD
ENDBRANCH   2  28
BRANCH   6  30
HETATM   30  N7  UNL     1      13.838  16.365  12.393  1.00  0.00    -0.289 N 
ATOM     31  H7  UNL     1      13.069  16.121  13.016  1.00  0.00     0.188 HD
BRANCH  30  32
HETATM   32  N8  UNL     1      14.635  15.326  12.104  1.00  0.00    -0.344 N 
ATOM     33  H82 UNL     1      14.495  14.547  12.748  1.00  0.00     0.176 HD
ATOM     34  H81 UNL     1      15.339  15.160  11.385  1.00  0.00     0.176 HD
ENDBRANCH  30  32
ENDBRANCH   6  30
BRANCH   1  35
HETATM   35  C3  UNL     1      12.306  17.340  10.142  1.00  0.00     0.160 C 
BRANCH  35  36
HETATM   36  C2  UNL     1      13.024  16.547   9.110  1.00  0.00     0.210 C 
BRANCH  36  37
HETATM   37  O3  UNL     1      13.025  15.207   9.558  1.00  0.00    -0.274 OA
BRANCH  37  38
HETATM   38  S1  UNL     1      14.105  14.286   8.693  1.00  0.00     0.261 S 
HETATM   39  C1  UNL     1      14.181  14.812   6.977  1.00  0.00     0.194 C 
HETATM   40  O1  UNL     1      13.580  12.865   8.664  1.00  0.00    -0.199 OA
HETATM   41  O2  UNL     1      15.469  14.341   9.283  1.00  0.00    -0.199 OA
ENDBRANCH  37  38
ENDBRANCH  36  37
ENDBRANCH  35  36
ENDBRANCH   1  35
TORSDOF 14
ENDMDL
