MODEL 1
REMARK VINA RESULT: -7.676821414      0.000      0.000
REMARK  9 active torsions:
REMARK  status: ('A' for Active; 'I' for Inactive)
REMARK    1  A    between atoms: C2_3  and  N2_4 
REMARK    2  A    between atoms: N3_6  and  C3_8 
REMARK    3  A    between atoms: C4_11  and  N5_12 
REMARK    4  A    between atoms: N6_14  and  O1_15 
REMARK    5  A    between atoms: C6_17  and  O2_18 
REMARK    6  A    between atoms: O2_18  and  N7_19 
REMARK    7  A    between atoms: C7_24  and  C8_25 
REMARK    8  A    between atoms: C8_25  and  C9_26 
REMARK       I    between atoms: C9_26  and  N9_28 
REMARK       I    between atoms: N9_28  and  C10_30 
REMARK    9  A    between atoms: C11_33  and  O5_34 
ROOT
HETATM    1  C3  UNL     1      11.693  14.344   6.647  1.00  0.00     0.135 A 
HETATM    2  N4  UNL     1      11.970  14.324   7.910  1.00  0.00    -0.320 N 
ATOM      3  H4  UNL     1      12.682  13.682   8.260  1.00  0.00     0.169 HD
HETATM    4  C4  UNL     1      11.344  15.123   8.748  1.00  0.00     0.166 A 
HETATM    5  S1  UNL     1      10.286  15.970   7.700  1.00  0.00    -0.053 SA
HETATM    6  C7  UNL     1      10.739  15.211   6.212  1.00  0.00     0.040 A 
ENDROOT
BRANCH   1   7
HETATM    7  N3  UNL     1      12.405  13.447   5.728  1.00  0.00    -0.283 N 
HETATM    8  N2  UNL     1      13.628  13.587   5.579  1.00  0.00    -0.280 N 
ATOM      9  H2  UNL     1      14.022  14.345   6.137  1.00  0.00     0.188 HD
ATOM     10  H3  UNL     1      11.901  12.719   5.219  1.00  0.00     0.188 HD
BRANCH   8  11
HETATM   11  C2  UNL     1      14.566  12.923   4.809  1.00  0.00     0.178 A 
HETATM   12  N1  UNL     1      15.457  13.536   3.996  1.00  0.00    -0.285 N 
HETATM   13  C1  UNL     1      15.597  14.965   3.784  1.00  0.00     0.163 C 
HETATM   14  C12 UNL     1      16.182  12.555   3.439  1.00  0.00     0.329 A 
HETATM   15  N11 UNL     1      15.759  11.353   3.888  1.00  0.00    -0.286 N 
HETATM   16  O6  UNL     1      17.121  12.762   2.613  1.00  0.00    -0.246 OA
HETATM   17  C11 UNL     1      14.742  11.551   4.752  1.00  0.00     0.191 A 
ATOM     18  H11 UNL     1      16.144  10.448   3.619  1.00  0.00     0.172 HD
BRANCH  17  19
HETATM   19  O5  UNL     1      14.032  10.560   5.432  1.00  0.00    -0.343 OA
ATOM     20  H5  UNL     1      13.143  10.262   5.278  1.00  0.00     0.219 HD
ENDBRANCH  17  19
ENDBRANCH   8  11
ENDBRANCH   1   7
BRANCH   6  21
HETATM   21  C8  UNL     1      10.175  15.473   4.852  1.00  0.00     0.153 C 
BRANCH  21  22
HETATM   22  C9  UNL     1       9.601  14.225   4.277  1.00  0.00     0.230 C 
HETATM   23  O3  UNL     1      10.297  13.440   3.570  1.00  0.00    -0.273 OA
HETATM   24  N9  UNL     1       8.249  13.909   4.530  1.00  0.00    -0.281 N 
HETATM   25  C10 UNL     1       7.700  12.708   4.005  1.00  0.00     0.335 C 
ATOM     26  H9  UNL     1       7.670  14.540   5.085  1.00  0.00     0.173 HD
HETATM   27  N10 UNL     1       6.345  12.349   4.257  1.00  0.00    -0.040 NA
HETATM   28  O4  UNL     1       8.424  11.962   3.316  1.00  0.00    -0.251 OA
ENDBRANCH  21  22
ENDBRANCH   6  21
BRANCH   4  29
HETATM   29  N5  UNL     1      11.504  15.248  10.171  1.00  0.00    -0.255 N 
HETATM   30  C5  UNL     1      10.798  16.151  11.018  1.00  0.00     0.272 C 
HETATM   31  N6  UNL     1      11.097  15.724  12.379  1.00  0.00    -0.132 NA
HETATM   32  C6  UNL     1      12.424  15.153  12.234  1.00  0.00     0.366 C 
HETATM   33  N8  UNL     1      12.399  14.500  10.919  1.00  0.00    -0.083 NA
BRANCH  31  34
HETATM   34  O1  UNL     1      10.201  14.754  12.745  1.00  0.00    -0.308 OA
ATOM     35  H1  UNL     1      10.638  14.131  13.315  1.00  0.00     0.237 HD
ENDBRANCH  31  34
BRANCH  32  36
HETATM   36  O2  UNL     1      13.347  16.186  12.123  1.00  0.00    -0.246 OA
BRANCH  36  37
HETATM   37  N7  UNL     1      14.618  15.768  12.289  1.00  0.00    -0.308 N 
ATOM     38  H72 UNL     1      15.046  15.654  13.208  1.00  0.00     0.184 HD
ATOM     39  H71 UNL     1      15.089  15.583  11.404  1.00  0.00     0.184 HD
ENDBRANCH  36  37
ENDBRANCH  32  36
ENDBRANCH   4  29
TORSDOF 9
ENDMDL
MODEL 2
REMARK VINA RESULT: -7.602442585      5.530      9.667
REMARK  9 active torsions:
REMARK  status: ('A' for Active; 'I' for Inactive)
REMARK    1  A    between atoms: C2_3  and  N2_4 
REMARK    2  A    between atoms: N3_6  and  C3_8 
REMARK    3  A    between atoms: C4_11  and  N5_12 
REMARK    4  A    between atoms: N6_14  and  O1_15 
REMARK    5  A    between atoms: C6_17  and  O2_18 
REMARK    6  A    between atoms: O2_18  and  N7_19 
REMARK    7  A    between atoms: C7_24  and  C8_25 
REMARK    8  A    between atoms: C8_25  and  C9_26 
REMARK       I    between atoms: C9_26  and  N9_28 
REMARK       I    between atoms: N9_28  and  C10_30 
REMARK    9  A    between atoms: C11_33  and  O5_34 
ROOT
HETATM    1  C3  UNL     1      12.736  19.440  10.881  1.00  0.00     0.135 A 
HETATM    2  N4  UNL     1      12.602  18.192  10.571  1.00  0.00    -0.320 N 
ATOM      3  H4  UNL     1      13.162  17.796   9.816  1.00  0.00     0.169 HD
HETATM    4  C4  UNL     1      11.750  17.426  11.220  1.00  0.00     0.166 A 
HETATM    5  S1  UNL     1      11.082  18.526  12.352  1.00  0.00    -0.053 SA
HETATM    6  C7  UNL     1      11.975  19.937  11.893  1.00  0.00     0.040 A 
ENDROOT
BRANCH   1   7
HETATM    7  N3  UNL     1      13.694  20.277  10.146  1.00  0.00    -0.283 N 
HETATM    8  N2  UNL     1      14.851  20.385  10.578  1.00  0.00    -0.280 N 
ATOM      9  H2  UNL     1      15.017  19.856  11.435  1.00  0.00     0.188 HD
ATOM     10  H3  UNL     1      13.411  20.762   9.294  1.00  0.00     0.188 HD
BRANCH   8  11
HETATM   11  C2  UNL     1      15.963  21.077  10.132  1.00  0.00     0.178 A 
HETATM   12  N1  UNL     1      17.085  21.271  10.863  1.00  0.00    -0.285 N 
HETATM   13  C1  UNL     1      17.330  20.803  12.215  1.00  0.00     0.163 C 
HETATM   14  C12 UNL     1      17.916  21.974  10.081  1.00  0.00     0.329 A 
HETATM   15  N11 UNL     1      17.335  22.218   8.886  1.00  0.00    -0.286 N 
HETATM   16  O6  UNL     1      19.074  22.341  10.444  1.00  0.00    -0.246 OA
HETATM   17  C11 UNL     1      16.104  21.666   8.887  1.00  0.00     0.191 A 
ATOM     18  H11 UNL     1      17.756  22.733   8.113  1.00  0.00     0.172 HD
BRANCH  17  19
HETATM   19  O5  UNL     1      15.184  21.698   7.837  1.00  0.00    -0.343 OA
ATOM     20  H5  UNL     1      15.317  22.007   6.948  1.00  0.00     0.219 HD
ENDBRANCH  17  19
ENDBRANCH   8  11
ENDBRANCH   1   7
BRANCH   6  21
HETATM   21  C8  UNL     1      11.870  21.308  12.481  1.00  0.00     0.153 C 
BRANCH  21  22
HETATM   22  C9  UNL     1      13.086  21.627  13.278  1.00  0.00     0.230 C 
HETATM   23  O3  UNL     1      14.047  22.285  12.784  1.00  0.00    -0.273 OA
HETATM   24  N9  UNL     1      13.168  21.188  14.616  1.00  0.00    -0.281 N 
HETATM   25  C10 UNL     1      14.315  21.511  15.391  1.00  0.00     0.335 C 
ATOM     26  H9  UNL     1      12.408  20.643  15.025  1.00  0.00     0.173 HD
HETATM   27  N10 UNL     1      14.421  21.100  16.751  1.00  0.00    -0.040 NA
HETATM   28  O4  UNL     1      15.237  22.165  14.864  1.00  0.00    -0.251 OA
ENDBRANCH  21  22
ENDBRANCH   6  21
BRANCH   4  29
HETATM   29  N5  UNL     1      11.456  16.032  11.027  1.00  0.00    -0.255 N 
HETATM   30  C5  UNL     1      11.785  14.974  11.923  1.00  0.00     0.272 C 
HETATM   31  N6  UNL     1      11.055  13.810  11.437  1.00  0.00    -0.132 NA
HETATM   32  C6  UNL     1      10.987  14.068  10.009  1.00  0.00     0.366 C 
HETATM   33  N8  UNL     1      10.814  15.523   9.910  1.00  0.00    -0.083 NA
BRANCH  31  34
HETATM   34  O1  UNL     1       9.797  13.817  11.980  1.00  0.00    -0.308 OA
ATOM     35  H1  UNL     1       9.344  13.024  11.715  1.00  0.00     0.237 HD
ENDBRANCH  31  34
BRANCH  32  36
HETATM   36  O2  UNL     1      12.229  13.799   9.446  1.00  0.00    -0.246 OA
BRANCH  36  37
HETATM   37  N7  UNL     1      12.324  14.227   8.171  1.00  0.00    -0.308 N 
ATOM     38  H72 UNL     1      11.513  14.335   7.562  1.00  0.00     0.184 HD
ATOM     39  H71 UNL     1      13.285  14.426   7.894  1.00  0.00     0.184 HD
ENDBRANCH  36  37
ENDBRANCH  32  36
ENDBRANCH   4  29
TORSDOF 9
ENDMDL
MODEL 3
REMARK VINA RESULT: -7.565490007      0.989      1.670
REMARK  9 active torsions:
REMARK  status: ('A' for Active; 'I' for Inactive)
REMARK    1  A    between atoms: C2_3  and  N2_4 
REMARK    2  A    between atoms: N3_6  and  C3_8 
REMARK    3  A    between atoms: C4_11  and  N5_12 
REMARK    4  A    between atoms: N6_14  and  O1_15 
REMARK    5  A    between atoms: C6_17  and  O2_18 
REMARK    6  A    between atoms: O2_18  and  N7_19 
REMARK    7  A    between atoms: C7_24  and  C8_25 
REMARK    8  A    between atoms: C8_25  and  C9_26 
REMARK       I    between atoms: C9_26  and  N9_28 
REMARK       I    between atoms: N9_28  and  C10_30 
REMARK    9  A    between atoms: C11_33  and  O5_34 
ROOT
HETATM    1  C3  UNL     1      12.101  15.293   6.376  1.00  0.00     0.135 A 
HETATM    2  N4  UNL     1      12.379  15.236   7.638  1.00  0.00    -0.320 N 
ATOM      3  H4  UNL     1      13.351  15.162   7.938  1.00  0.00     0.169 HD
HETATM    4  C4  UNL     1      11.419  15.274   8.539  1.00  0.00     0.166 A 
HETATM    5  S1  UNL     1      10.021  15.399   7.557  1.00  0.00    -0.053 SA
HETATM    6  C7  UNL     1      10.795  15.392   6.009  1.00  0.00     0.040 A 
ENDROOT
BRANCH   1   7
HETATM    7  N3  UNL     1      13.186  15.252   5.387  1.00  0.00    -0.283 N 
HETATM    8  N2  UNL     1      13.836  14.205   5.252  1.00  0.00    -0.280 N 
ATOM      9  H2  UNL     1      13.532  13.453   5.872  1.00  0.00     0.188 HD
ATOM     10  H3  UNL     1      13.401  16.072   4.820  1.00  0.00     0.188 HD
BRANCH   8  11
HETATM   11  C2  UNL     1      14.891  13.850   4.431  1.00  0.00     0.178 A 
HETATM   12  N1  UNL     1      15.227  12.575   4.128  1.00  0.00    -0.285 N 
HETATM   13  C1  UNL     1      14.563  11.370   4.592  1.00  0.00     0.163 C 
HETATM   14  C12 UNL     1      16.287  12.658   3.311  1.00  0.00     0.329 A 
HETATM   15  N11 UNL     1      16.613  13.952   3.103  1.00  0.00    -0.286 N 
HETATM   16  O6  UNL     1      16.874  11.645   2.824  1.00  0.00    -0.246 OA
HETATM   17  C11 UNL     1      15.753  14.728   3.795  1.00  0.00     0.191 A 
ATOM     18  H11 UNL     1      17.380  14.286   2.521  1.00  0.00     0.172 HD
BRANCH  17  19
HETATM   19  O5  UNL     1      15.755  16.123   3.842  1.00  0.00    -0.343 OA
ATOM     20  H5  UNL     1      16.181  16.731   3.248  1.00  0.00     0.219 HD
ENDBRANCH  17  19
ENDBRANCH   8  11
ENDBRANCH   1   7
BRANCH   6  21
HETATM   21  C8  UNL     1      10.140  15.459   4.666  1.00  0.00     0.153 C 
BRANCH  21  22
HETATM   22  C9  UNL     1       9.543  14.142   4.312  1.00  0.00     0.230 C 
HETATM   23  O3  UNL     1      10.264  13.156   3.980  1.00  0.00    -0.273 OA
HETATM   24  N9  UNL     1       8.142  13.987   4.350  1.00  0.00    -0.281 N 
HETATM   25  C10 UNL     1       7.567  12.726   4.037  1.00  0.00     0.335 C 
ATOM     26  H9  UNL     1       7.545  14.776   4.600  1.00  0.00     0.173 HD
HETATM   27  N10 UNL     1       6.156  12.531   4.085  1.00  0.00    -0.040 NA
HETATM   28  O4  UNL     1       8.316  11.781   3.718  1.00  0.00    -0.251 OA
ENDBRANCH  21  22
ENDBRANCH   6  21
BRANCH   4  29
HETATM   29  N5  UNL     1      11.520  15.221   9.972  1.00  0.00    -0.255 N 
HETATM   30  C5  UNL     1      10.686  15.914  10.897  1.00  0.00     0.272 C 
HETATM   31  N6  UNL     1      10.992  15.341  12.202  1.00  0.00    -0.132 NA
HETATM   32  C6  UNL     1      12.382  14.950  12.045  1.00  0.00     0.366 C 
HETATM   33  N8  UNL     1      12.475  14.485  10.655  1.00  0.00    -0.083 NA
BRANCH  31  34
HETATM   34  O1  UNL     1      10.207  14.235  12.395  1.00  0.00    -0.308 OA
ATOM     35  H1  UNL     1       9.725  14.338  13.208  1.00  0.00     0.237 HD
ENDBRANCH  31  34
BRANCH  32  36
HETATM   36  O2  UNL     1      13.178  16.087  12.114  1.00  0.00    -0.246 OA
BRANCH  36  37
HETATM   37  N7  UNL     1      14.453  15.808  12.453  1.00  0.00    -0.308 N 
ATOM     38  H72 UNL     1      14.737  14.910  12.842  1.00  0.00     0.184 HD
ATOM     39  H71 UNL     1      15.085  16.588  12.276  1.00  0.00     0.184 HD
ENDBRANCH  36  37
ENDBRANCH  32  36
ENDBRANCH   4  29
TORSDOF 9
ENDMDL
MODEL 4
REMARK VINA RESULT: -7.447497527      5.000      8.656
REMARK  9 active torsions:
REMARK  status: ('A' for Active; 'I' for Inactive)
REMARK    1  A    between atoms: C2_3  and  N2_4 
REMARK    2  A    between atoms: N3_6  and  C3_8 
REMARK    3  A    between atoms: C4_11  and  N5_12 
REMARK    4  A    between atoms: N6_14  and  O1_15 
REMARK    5  A    between atoms: C6_17  and  O2_18 
REMARK    6  A    between atoms: O2_18  and  N7_19 
REMARK    7  A    between atoms: C7_24  and  C8_25 
REMARK    8  A    between atoms: C8_25  and  C9_26 
REMARK       I    between atoms: C9_26  and  N9_28 
REMARK       I    between atoms: N9_28  and  C10_30 
REMARK    9  A    between atoms: C11_33  and  O5_34 
ROOT
HETATM    1  C3  UNL     1      12.486  18.520  10.814  1.00  0.00     0.135 A 
HETATM    2  N4  UNL     1      12.462  19.532  10.008  1.00  0.00    -0.320 N 
ATOM      3  H4  UNL     1      11.659  19.669   9.395  1.00  0.00     0.169 HD
HETATM    4  C4  UNL     1      13.464  20.386   9.972  1.00  0.00     0.166 A 
HETATM    5  S1  UNL     1      14.523  19.734  11.151  1.00  0.00    -0.053 SA
HETATM    6  C7  UNL     1      13.571  18.366  11.620  1.00  0.00     0.040 A 
ENDROOT
BRANCH   1   7
HETATM    7  N3  UNL     1      11.358  17.581  10.841  1.00  0.00    -0.283 N 
HETATM    8  N2  UNL     1      11.583  16.368  10.707  1.00  0.00    -0.280 N 
ATOM      9  H2  UNL     1      12.573  16.148  10.588  1.00  0.00     0.188 HD
ATOM     10  H3  UNL     1      10.404  17.919  10.968  1.00  0.00     0.188 HD
BRANCH   8  11
HETATM   11  C2  UNL     1      10.764  15.254  10.688  1.00  0.00     0.178 A 
HETATM   12  N1  UNL     1      10.360  14.623   9.561  1.00  0.00    -0.285 N 
HETATM   13  C1  UNL     1      10.702  14.983   8.197  1.00  0.00     0.163 C 
HETATM   14  C12 UNL     1       9.592  13.602   9.967  1.00  0.00     0.329 A 
HETATM   15  N11 UNL     1       9.512  13.588  11.315  1.00  0.00    -0.286 N 
HETATM   16  O6  UNL     1       9.036  12.787   9.170  1.00  0.00    -0.246 OA
HETATM   17  C11 UNL     1      10.239  14.616  11.799  1.00  0.00     0.191 A 
ATOM     18  H11 UNL     1       8.990  12.913  11.873  1.00  0.00     0.172 HD
BRANCH  17  19
HETATM   19  O5  UNL     1      10.408  14.945  13.145  1.00  0.00    -0.343 OA
ATOM     20  H5  UNL     1       9.877  15.521  13.681  1.00  0.00     0.219 HD
ENDBRANCH  17  19
ENDBRANCH   8  11
ENDBRANCH   1   7
BRANCH   6  21
HETATM   21  C8  UNL     1      13.921  17.322  12.632  1.00  0.00     0.153 C 
BRANCH  21  22
HETATM   22  C9  UNL     1      14.329  16.058  11.957  1.00  0.00     0.230 C 
HETATM   23  O3  UNL     1      14.411  15.977  10.697  1.00  0.00    -0.273 OA
HETATM   24  N9  UNL     1      14.633  14.926  12.741  1.00  0.00    -0.281 N 
HETATM   25  C10 UNL     1      15.046  13.724  12.106  1.00  0.00     0.335 C 
ATOM     26  H9  UNL     1      14.556  14.970  13.758  1.00  0.00     0.173 HD
HETATM   27  N10 UNL     1      15.380  12.568  12.869  1.00  0.00    -0.040 NA
HETATM   28  O4  UNL     1      15.117  13.691  10.861  1.00  0.00    -0.251 OA
ENDBRANCH  21  22
ENDBRANCH   6  21
BRANCH   4  29
HETATM   29  N5  UNL     1      13.627  21.557   9.155  1.00  0.00    -0.255 N 
HETATM   30  C5  UNL     1      12.604  22.486   8.809  1.00  0.00     0.272 C 
HETATM   31  N6  UNL     1      13.294  23.622   8.210  1.00  0.00    -0.132 NA
HETATM   32  C6  UNL     1      14.460  22.991   7.617  1.00  0.00     0.366 C 
HETATM   33  N8  UNL     1      14.825  21.932   8.567  1.00  0.00    -0.083 NA
BRANCH  31  34
HETATM   34  O1  UNL     1      13.677  24.483   9.206  1.00  0.00    -0.308 OA
ATOM     35  H1  UNL     1      14.087  23.984   9.903  1.00  0.00     0.237 HD
ENDBRANCH  31  34
BRANCH  32  36
HETATM   36  O2  UNL     1      14.072  22.334   6.455  1.00  0.00    -0.246 OA
BRANCH  36  37
HETATM   37  N7  UNL     1      14.045  23.150   5.383  1.00  0.00    -0.308 N 
ATOM     38  H72 UNL     1      13.383  23.920   5.291  1.00  0.00     0.184 HD
ATOM     39  H71 UNL     1      14.752  22.909   4.688  1.00  0.00     0.184 HD
ENDBRANCH  36  37
ENDBRANCH  32  36
ENDBRANCH   4  29
TORSDOF 9
ENDMDL
MODEL 5
REMARK VINA RESULT: -7.434916668      3.053      7.749
REMARK  9 active torsions:
REMARK  status: ('A' for Active; 'I' for Inactive)
REMARK    1  A    between atoms: C2_3  and  N2_4 
REMARK    2  A    between atoms: N3_6  and  C3_8 
REMARK    3  A    between atoms: C4_11  and  N5_12 
REMARK    4  A    between atoms: N6_14  and  O1_15 
REMARK    5  A    between atoms: C6_17  and  O2_18 
REMARK    6  A    between atoms: O2_18  and  N7_19 
REMARK    7  A    between atoms: C7_24  and  C8_25 
REMARK    8  A    between atoms: C8_25  and  C9_26 
REMARK       I    between atoms: C9_26  and  N9_28 
REMARK       I    between atoms: N9_28  and  C10_30 
REMARK    9  A    between atoms: C11_33  and  O5_34 
ROOT
HETATM    1  C3  UNL     1      12.870  14.070   7.704  1.00  0.00     0.135 A 
HETATM    2  N4  UNL     1      13.798  13.611   6.929  1.00  0.00    -0.320 N 
ATOM      3  H4  UNL     1      14.720  13.406   7.312  1.00  0.00     0.169 HD
HETATM    4  C4  UNL     1      13.564  13.406   5.649  1.00  0.00     0.166 A 
HETATM    5  S1  UNL     1      11.925  13.888   5.511  1.00  0.00    -0.053 SA
HETATM    6  C7  UNL     1      11.651  14.332   7.161  1.00  0.00     0.040 A 
ENDROOT
BRANCH   1   7
HETATM    7  N3  UNL     1      13.150  14.289   9.129  1.00  0.00    -0.283 N 
HETATM    8  N2  UNL     1      13.496  15.419   9.505  1.00  0.00    -0.280 N 
ATOM      9  H2  UNL     1      13.549  16.102   8.749  1.00  0.00     0.188 HD
ATOM     10  H3  UNL     1      13.062  13.524   9.798  1.00  0.00     0.188 HD
BRANCH   8  11
HETATM   11  C2  UNL     1      13.822  15.940  10.745  1.00  0.00     0.178 A 
HETATM   12  N1  UNL     1      13.561  17.210  11.132  1.00  0.00    -0.285 N 
HETATM   13  C1  UNL     1      12.906  18.238  10.344  1.00  0.00     0.163 C 
HETATM   14  C12 UNL     1      14.024  17.315  12.386  1.00  0.00     0.329 A 
HETATM   15  N11 UNL     1      14.564  16.142  12.781  1.00  0.00    -0.286 N 
HETATM   16  O6  UNL     1      13.950  18.379  13.071  1.00  0.00    -0.246 OA
HETATM   17  C11 UNL     1      14.453  15.255  11.770  1.00  0.00     0.191 A 
ATOM     18  H11 UNL     1      14.985  15.957  13.691  1.00  0.00     0.172 HD
BRANCH  17  19
HETATM   19  O5  UNL     1      14.892  13.930  11.783  1.00  0.00    -0.343 OA
ATOM     20  H5  UNL     1      15.763  13.601  11.969  1.00  0.00     0.219 HD
ENDBRANCH  17  19
ENDBRANCH   8  11
ENDBRANCH   1   7
BRANCH   6  21
HETATM   21  C8  UNL     1      10.390  14.875   7.757  1.00  0.00     0.153 C 
BRANCH  21  22
HETATM   22  C9  UNL     1      10.122  14.238   9.076  1.00  0.00     0.230 C 
HETATM   23  O3  UNL     1       9.662  13.062   9.163  1.00  0.00    -0.273 OA
HETATM   24  N9  UNL     1      10.388  14.962  10.257  1.00  0.00    -0.281 N 
HETATM   25  C10 UNL     1      10.157  14.352  11.520  1.00  0.00     0.335 C 
ATOM     26  H9  UNL     1      10.744  15.917  10.205  1.00  0.00     0.173 HD
HETATM   27  N10 UNL     1      10.435  15.047  12.732  1.00  0.00    -0.040 NA
HETATM   28  O4  UNL     1       9.707  13.190  11.558  1.00  0.00    -0.251 OA
ENDBRANCH  21  22
ENDBRANCH   6  21
BRANCH   4  29
HETATM   29  N5  UNL     1      14.453  12.912   4.633  1.00  0.00    -0.255 N 
HETATM   30  C5  UNL     1      15.425  11.883   4.800  1.00  0.00     0.272 C 
HETATM   31  N6  UNL     1      15.876  11.551   3.454  1.00  0.00    -0.132 NA
HETATM   32  C6  UNL     1      15.712  12.816   2.758  1.00  0.00     0.366 C 
HETATM   33  N8  UNL     1      14.492  13.395   3.335  1.00  0.00    -0.083 NA
BRANCH  31  34
HETATM   34  O1  UNL     1      15.035  10.607   2.925  1.00  0.00    -0.308 OA
ATOM     35  H1  UNL     1      15.070   9.827   3.467  1.00  0.00     0.237 HD
ENDBRANCH  31  34
BRANCH  32  36
HETATM   36  O2  UNL     1      16.745  13.668   3.129  1.00  0.00    -0.246 OA
BRANCH  36  37
HETATM   37  N7  UNL     1      16.567  14.926   2.677  1.00  0.00    -0.308 N 
ATOM     38  H72 UNL     1      16.426  15.143   1.691  1.00  0.00     0.184 HD
ATOM     39  H71 UNL     1      16.592  15.619   3.424  1.00  0.00     0.184 HD
ENDBRANCH  36  37
ENDBRANCH  32  36
ENDBRANCH   4  29
TORSDOF 9
ENDMDL
