MODEL 1
REMARK VINA RESULT: -6.709507068      0.000      0.000
REMARK  13 active torsions:
REMARK  status: ('A' for Active; 'I' for Inactive)
REMARK    1  A    between atoms: C2_5  and  C3_6 
REMARK    2  A    between atoms: C3_6  and  N3_7 
REMARK    3  A    between atoms: C4_12  and  C5_13 
REMARK    4  A    between atoms: C6_16  and  C7_17 
REMARK    5  A    between atoms: C8_21  and  C9_22 
REMARK    6  A    between atoms: C10_25  and  C11_26 
REMARK    7  A    between atoms: C11_26  and  O2_27 
REMARK    8  A    between atoms: C11_26  and  C12_29 
REMARK    9  A    between atoms: C12_29  and  C13_30 
REMARK   10  A    between atoms: C13_30  and  N9_31 
REMARK   11  A    between atoms: N9_31  and  N10_33 
REMARK   12  A    between atoms: N10_33  and  N11_34 
REMARK   13  A    between atoms: C14_38  and  O4_39 
ROOT
HETATM    1  C1  UNL     1       9.794  13.881   5.479  1.00  0.00     0.179 C 
HETATM    2  N1  UNL     1      11.233  13.724   5.647  1.00  0.00    -0.278 N 
HETATM    3  N2  UNL     1      11.986  13.203   4.714  1.00  0.00    -0.284 N 
ATOM      4  H2  UNL     1      11.636  12.816   3.838  1.00  0.00     0.188 HD
HETATM    5  C2  UNL     1      13.319  13.245   5.073  1.00  0.00     0.117 A 
HETATM    6  N7  UNL     1      13.290  13.797   6.265  1.00  0.00    -0.326 N 
ATOM      7  H7  UNL     1      14.122  13.973   6.828  1.00  0.00     0.169 HD
HETATM    8  C8  UNL     1      12.054  14.102   6.656  1.00  0.00     0.155 A 
ENDROOT
BRANCH   8   9
HETATM    9  C9  UNL     1      11.608  14.657   7.919  1.00  0.00     0.139 A 
HETATM   10  N8  UNL     1      11.693  14.122   9.127  1.00  0.00    -0.330 N 
HETATM   11  C10 UNL     1      11.324  14.974  10.098  1.00  0.00     0.168 A 
ATOM     12  H8  UNL     1      12.006  13.167   9.301  1.00  0.00     0.168 HD
HETATM   13  O3  UNL     1      10.978  16.081   9.441  1.00  0.00    -0.269 OA
HETATM   14  C14 UNL     1      11.105  16.004   8.130  1.00  0.00     0.216 A 
BRANCH  11  15
HETATM   15  C11 UNL     1      11.359  14.686  11.532  1.00  0.00     0.273 C 
BRANCH  15  16
HETATM   16  O2  UNL     1      10.803  13.319  11.637  1.00  0.00    -0.375 OA
ATOM     17  H2  UNL     1      11.452  12.844  12.144  1.00  0.00     0.211 HD
ENDBRANCH  15  16
BRANCH  15  18
HETATM   18  C12 UNL     1      12.528  14.619  12.246  1.00  0.00    -0.042 C 
BRANCH  18  19
HETATM   19  C13 UNL     1      13.548  14.484  12.937  1.00  0.00     0.027 C 
BRANCH  19  20
HETATM   20  N9  UNL     1      14.627  14.265  13.786  1.00  0.00    -0.242 N 
ATOM     21  H9  UNL     1      14.875  14.930  14.519  1.00  0.00     0.195 HD
BRANCH  20  22
HETATM   22  N10 UNL     1      15.358  13.081  13.587  1.00  0.00    -0.022 NA
BRANCH  22  23
HETATM   23  N11 UNL     1      16.183  13.099  12.481  1.00  0.00    -0.328 N 
ATOM     24 2H11 UNL     1      16.573  13.966  12.113  1.00  0.00     0.174 HD
ATOM     25 1H11 UNL     1      16.362  12.181  12.073  1.00  0.00     0.174 HD
ENDBRANCH  22  23
ENDBRANCH  20  22
ENDBRANCH  19  20
ENDBRANCH  18  19
ENDBRANCH  15  18
ENDBRANCH  11  15
BRANCH  14  26
HETATM   26  O4  UNL     1      10.917  16.774   7.024  1.00  0.00    -0.339 OA
ATOM     27  H4  UNL     1      10.584  17.653   7.162  1.00  0.00     0.220 HD
ENDBRANCH  14  26
ENDBRANCH   8   9
BRANCH   5  28
HETATM   28  C3  UNL     1      14.274  12.647   4.133  1.00  0.00     0.228 C 
BRANCH  28  29
HETATM   29  N3  UNL     1      15.358  13.445   3.703  1.00  0.00    -0.272 N 
HETATM   30  N4  UNL     1      16.450  13.759   4.416  1.00  0.00    -0.239 N 
HETATM   31  N5  UNL     1      17.234  14.552   3.715  1.00  0.00    -0.280 N 
ATOM     32  H4  UNL     1      16.646  13.430   5.361  1.00  0.00     0.208 HD
HETATM   33  C4  UNL     1      16.617  14.761   2.508  1.00  0.00     0.139 A 
ATOM     34  H5  UNL     1      18.129  14.938   4.013  1.00  0.00     0.189 HD
HETATM   35  C6  UNL     1      15.429  14.060   2.510  1.00  0.00     0.073 A 
BRANCH  33  36
HETATM   36  C5  UNL     1      17.078  15.562   1.372  1.00  0.00     0.284 C 
HETATM   37  N6  UNL     1      16.728  16.962   1.370  1.00  0.00    -0.056 NA
HETATM   38  O1  UNL     1      17.742  15.127   0.424  1.00  0.00    -0.269 OA
ENDBRANCH  33  36
BRANCH  35  39
HETATM   39  C7  UNL     1      14.335  14.182   1.516  1.00  0.00     0.147 C 
HETATM   40  S1  UNL     1      13.246  15.620   1.789  1.00  0.00    -0.091 SA
ENDBRANCH  35  39
ENDBRANCH  28  29
ENDBRANCH   5  28
TORSDOF 13
ENDMDL
MODEL 2
REMARK VINA RESULT: -6.666132588      3.131      4.204
REMARK  13 active torsions:
REMARK  status: ('A' for Active; 'I' for Inactive)
REMARK    1  A    between atoms: C2_5  and  C3_6 
REMARK    2  A    between atoms: C3_6  and  N3_7 
REMARK    3  A    between atoms: C4_12  and  C5_13 
REMARK    4  A    between atoms: C6_16  and  C7_17 
REMARK    5  A    between atoms: C8_21  and  C9_22 
REMARK    6  A    between atoms: C10_25  and  C11_26 
REMARK    7  A    between atoms: C11_26  and  O2_27 
REMARK    8  A    between atoms: C11_26  and  C12_29 
REMARK    9  A    between atoms: C12_29  and  C13_30 
REMARK   10  A    between atoms: C13_30  and  N9_31 
REMARK   11  A    between atoms: N9_31  and  N10_33 
REMARK   12  A    between atoms: N10_33  and  N11_34 
REMARK   13  A    between atoms: C14_38  and  O4_39 
ROOT
HETATM    1  C1  UNL     1      15.685  17.518   5.777  1.00  0.00     0.179 C 
HETATM    2  N1  UNL     1      15.604  16.546   4.695  1.00  0.00    -0.278 N 
HETATM    3  N2  UNL     1      15.858  16.869   3.454  1.00  0.00    -0.284 N 
ATOM      4  H2  UNL     1      16.070  17.815   3.135  1.00  0.00     0.188 HD
HETATM    5  C2  UNL     1      15.803  15.761   2.633  1.00  0.00     0.117 A 
HETATM    6  N7  UNL     1      15.485  14.791   3.460  1.00  0.00    -0.326 N 
ATOM      7  H7  UNL     1      15.354  13.821   3.173  1.00  0.00     0.169 HD
HETATM    8  C8  UNL     1      15.352  15.215   4.716  1.00  0.00     0.155 A 
ENDROOT
BRANCH   8   9
HETATM    9  C9  UNL     1      14.949  14.470   5.892  1.00  0.00     0.139 A 
HETATM   10  N8  UNL     1      14.721  14.923   7.114  1.00  0.00    -0.330 N 
HETATM   11  C10 UNL     1      14.210  13.984   7.929  1.00  0.00     0.168 A 
ATOM     12  H8  UNL     1      14.913  15.882   7.406  1.00  0.00     0.168 HD
HETATM   13  O3  UNL     1      14.141  12.896   7.162  1.00  0.00    -0.269 OA
HETATM   14  C14 UNL     1      14.561  13.070   5.923  1.00  0.00     0.216 A 
BRANCH  11  15
HETATM   15  C11 UNL     1      13.811  14.199   9.319  1.00  0.00     0.273 C 
BRANCH  15  16
HETATM   16  O2  UNL     1      12.725  13.217   9.537  1.00  0.00    -0.375 OA
ATOM     17  H2  UNL     1      12.153  13.642  10.166  1.00  0.00     0.211 HD
ENDBRANCH  15  16
BRANCH  15  18
HETATM   18  C12 UNL     1      14.661  13.987  10.375  1.00  0.00    -0.042 C 
BRANCH  18  19
HETATM   19  C13 UNL     1      15.373  13.720  11.353  1.00  0.00     0.027 C 
BRANCH  19  20
HETATM   20  N9  UNL     1      16.073  13.415  12.515  1.00  0.00    -0.242 N 
ATOM     21  H9  UNL     1      17.080  13.562  12.588  1.00  0.00     0.195 HD
BRANCH  20  22
HETATM   22  N10 UNL     1      15.326  12.895  13.586  1.00  0.00    -0.022 NA
BRANCH  22  23
HETATM   23  N11 UNL     1      15.358  13.663  14.732  1.00  0.00    -0.328 N 
ATOM     24 2H11 UNL     1      15.377  14.682  14.697  1.00  0.00     0.174 HD
ATOM     25 1H11 UNL     1      15.361  13.128  15.600  1.00  0.00     0.174 HD
ENDBRANCH  22  23
ENDBRANCH  20  22
ENDBRANCH  19  20
ENDBRANCH  18  19
ENDBRANCH  15  18
ENDBRANCH  11  15
BRANCH  14  26
HETATM   26  O4  UNL     1      14.708  12.361   4.771  1.00  0.00    -0.339 OA
ATOM     27  H4  UNL     1      14.172  11.583   4.671  1.00  0.00     0.220 HD
ENDBRANCH  14  26
ENDBRANCH   8   9
BRANCH   5  28
HETATM   28  C3  UNL     1      16.023  15.991   1.200  1.00  0.00     0.228 C 
BRANCH  28  29
HETATM   29  N3  UNL     1      16.647  14.962   0.459  1.00  0.00    -0.272 N 
HETATM   30  N4  UNL     1      17.955  14.865   0.175  1.00  0.00    -0.239 N 
HETATM   31  N5  UNL     1      18.176  13.800  -0.568  1.00  0.00    -0.280 N 
ATOM     32  H4  UNL     1      18.671  15.519   0.487  1.00  0.00     0.208 HD
HETATM   33  C4  UNL     1      16.963  13.194  -0.773  1.00  0.00     0.139 A 
ATOM     34  H5  UNL     1      19.079  13.485  -0.923  1.00  0.00     0.189 HD
HETATM   35  C6  UNL     1      16.000  13.938  -0.123  1.00  0.00     0.073 A 
BRANCH  33  36
HETATM   36  C5  UNL     1      16.666  11.973  -1.525  1.00  0.00     0.284 C 
HETATM   37  N6  UNL     1      16.666  12.072  -2.965  1.00  0.00    -0.056 NA
HETATM   38  O1  UNL     1      16.420  10.872  -1.018  1.00  0.00    -0.269 OA
ENDBRANCH  33  36
BRANCH  35  39
HETATM   39  C7  UNL     1      14.531  13.792  -0.267  1.00  0.00     0.147 C 
HETATM   40  S1  UNL     1      13.785  12.635   0.930  1.00  0.00    -0.091 SA
ENDBRANCH  35  39
ENDBRANCH  28  29
ENDBRANCH   5  28
TORSDOF 13
ENDMDL
MODEL 3
REMARK VINA RESULT: -6.656528193      2.891      8.922
REMARK  13 active torsions:
REMARK  status: ('A' for Active; 'I' for Inactive)
REMARK    1  A    between atoms: C2_5  and  C3_6 
REMARK    2  A    between atoms: C3_6  and  N3_7 
REMARK    3  A    between atoms: C4_12  and  C5_13 
REMARK    4  A    between atoms: C6_16  and  C7_17 
REMARK    5  A    between atoms: C8_21  and  C9_22 
REMARK    6  A    between atoms: C10_25  and  C11_26 
REMARK    7  A    between atoms: C11_26  and  O2_27 
REMARK    8  A    between atoms: C11_26  and  C12_29 
REMARK    9  A    between atoms: C12_29  and  C13_30 
REMARK   10  A    between atoms: C13_30  and  N9_31 
REMARK   11  A    between atoms: N9_31  and  N10_33 
REMARK   12  A    between atoms: N10_33  and  N11_34 
REMARK   13  A    between atoms: C14_38  and  O4_39 
ROOT
HETATM    1  C1  UNL     1      11.996  13.614   2.848  1.00  0.00     0.179 C 
HETATM    2  N1  UNL     1      12.116  13.775   4.291  1.00  0.00    -0.278 N 
HETATM    3  N2  UNL     1      11.178  14.340   5.005  1.00  0.00    -0.284 N 
ATOM      4  H2  UNL     1      10.332  14.760   4.619  1.00  0.00     0.188 HD
HETATM    5  C2  UNL     1      11.485  14.294   6.350  1.00  0.00     0.117 A 
HETATM    6  N7  UNL     1      12.653  13.693   6.370  1.00  0.00    -0.326 N 
ATOM      7  H7  UNL     1      13.177  13.501   7.224  1.00  0.00     0.169 HD
HETATM    8  C8  UNL     1      13.077  13.362   5.152  1.00  0.00     0.155 A 
ENDROOT
BRANCH   8   9
HETATM    9  C9  UNL     1      14.332  12.753   4.758  1.00  0.00     0.139 A 
HETATM   10  N8  UNL     1      15.338  13.299   4.095  1.00  0.00    -0.330 N 
HETATM   11  C10 UNL     1      16.415  12.498   4.034  1.00  0.00     0.168 A 
ATOM     12  H8  UNL     1      15.301  14.229   3.676  1.00  0.00     0.168 HD
HETATM   13  O3  UNL     1      16.034  11.397   4.680  1.00  0.00    -0.269 OA
HETATM   14  C14 UNL     1      14.802  11.436   5.154  1.00  0.00     0.216 A 
BRANCH  11  15
HETATM   15  C11 UNL     1      17.693  12.846   3.413  1.00  0.00     0.273 C 
BRANCH  15  16
HETATM   16  O2  UNL     1      18.277  11.539   3.037  1.00  0.00    -0.375 OA
ATOM     17  H2  UNL     1      18.762  11.272   3.809  1.00  0.00     0.211 HD
ENDBRANCH  15  16
BRANCH  15  18
HETATM   18  C12 UNL     1      17.779  13.586   2.261  1.00  0.00    -0.042 C 
BRANCH  18  19
HETATM   19  C13 UNL     1      17.777  14.299   1.248  1.00  0.00     0.027 C 
BRANCH  19  20
HETATM   20  N9  UNL     1      17.672  15.145   0.149  1.00  0.00    -0.242 N 
ATOM     21  H9  UNL     1      18.155  14.947  -0.727  1.00  0.00     0.195 HD
BRANCH  20  22
HETATM   22  N10 UNL     1      16.866  16.287   0.305  1.00  0.00    -0.022 NA
BRANCH  22  23
HETATM   23  N11 UNL     1      16.780  16.753   1.601  1.00  0.00    -0.328 N 
ATOM     24 2H11 UNL     1      16.345  16.205   2.343  1.00  0.00     0.174 HD
ATOM     25 1H11 UNL     1      17.184  17.678   1.745  1.00  0.00     0.174 HD
ENDBRANCH  22  23
ENDBRANCH  20  22
ENDBRANCH  19  20
ENDBRANCH  18  19
ENDBRANCH  15  18
ENDBRANCH  11  15
BRANCH  14  26
HETATM   26  O4  UNL     1      13.937  10.654   5.854  1.00  0.00    -0.339 OA
ATOM     27  H4  UNL     1      14.186   9.747   5.988  1.00  0.00     0.220 HD
ENDBRANCH  14  26
ENDBRANCH   8   9
BRANCH   5  28
HETATM   28  C3  UNL     1      10.535  14.938   7.265  1.00  0.00     0.228 C 
BRANCH  28  29
HETATM   29  N3  UNL     1      10.501  14.483   8.603  1.00  0.00    -0.272 N 
HETATM   30  N4  UNL     1       9.635  13.601   9.124  1.00  0.00    -0.239 N 
HETATM   31  N5  UNL     1       9.873  13.441  10.409  1.00  0.00    -0.280 N 
ATOM     32  H4  UNL     1       8.901  13.124   8.601  1.00  0.00     0.208 HD
HETATM   33  C4  UNL     1      10.929  14.256  10.726  1.00  0.00     0.139 A 
ATOM     34  H5  UNL     1       9.368  12.827  11.047  1.00  0.00     0.189 HD
HETATM   35  C6  UNL     1      11.318  14.915   9.578  1.00  0.00     0.073 A 
BRANCH  33  36
HETATM   36  C5  UNL     1      11.585  14.442  12.023  1.00  0.00     0.284 C 
HETATM   37  N6  UNL     1      10.806  15.056  13.071  1.00  0.00    -0.056 NA
HETATM   38  O1  UNL     1      12.748  14.109  12.280  1.00  0.00    -0.269 OA
ENDBRANCH  33  36
BRANCH  35  39
HETATM   39  C7  UNL     1      12.257  16.061   9.498  1.00  0.00     0.147 C 
HETATM   40  S1  UNL     1      13.988  15.575   9.192  1.00  0.00    -0.091 SA
ENDBRANCH  35  39
ENDBRANCH  28  29
ENDBRANCH   5  28
TORSDOF 13
ENDMDL
MODEL 4
REMARK VINA RESULT: -6.625445055      3.472      4.527
REMARK  13 active torsions:
REMARK  status: ('A' for Active; 'I' for Inactive)
REMARK    1  A    between atoms: C2_5  and  C3_6 
REMARK    2  A    between atoms: C3_6  and  N3_7 
REMARK    3  A    between atoms: C4_12  and  C5_13 
REMARK    4  A    between atoms: C6_16  and  C7_17 
REMARK    5  A    between atoms: C8_21  and  C9_22 
REMARK    6  A    between atoms: C10_25  and  C11_26 
REMARK    7  A    between atoms: C11_26  and  O2_27 
REMARK    8  A    between atoms: C11_26  and  C12_29 
REMARK    9  A    between atoms: C12_29  and  C13_30 
REMARK   10  A    between atoms: C13_30  and  N9_31 
REMARK   11  A    between atoms: N9_31  and  N10_33 
REMARK   12  A    between atoms: N10_33  and  N11_34 
REMARK   13  A    between atoms: C14_38  and  O4_39 
ROOT
HETATM    1  C1  UNL     1      15.448  17.091   5.237  1.00  0.00     0.179 C 
HETATM    2  N1  UNL     1      15.607  15.927   4.376  1.00  0.00    -0.278 N 
HETATM    3  N2  UNL     1      16.028  16.031   3.142  1.00  0.00    -0.284 N 
ATOM      4  H2  UNL     1      16.220  16.915   2.669  1.00  0.00     0.188 HD
HETATM    5  C2  UNL     1      16.180  14.786   2.564  1.00  0.00     0.117 A 
HETATM    6  N7  UNL     1      15.806  13.966   3.519  1.00  0.00    -0.326 N 
ATOM      7  H7  UNL     1      15.790  12.951   3.421  1.00  0.00     0.169 HD
HETATM    8  C8  UNL     1      15.448  14.606   4.632  1.00  0.00     0.155 A 
ENDROOT
BRANCH   8   9
HETATM    9  C9  UNL     1      14.919  14.063   5.867  1.00  0.00     0.139 A 
HETATM   10  N8  UNL     1      14.870  14.632   7.060  1.00  0.00    -0.330 N 
HETATM   11  C10 UNL     1      14.171  13.909   7.952  1.00  0.00     0.168 A 
ATOM     12  H8  UNL     1      15.314  15.524   7.279  1.00  0.00     0.168 HD
HETATM   13  O3  UNL     1      13.792  12.832   7.265  1.00  0.00    -0.269 OA
HETATM   14  C14 UNL     1      14.187  12.816   6.006  1.00  0.00     0.216 A 
BRANCH  11  15
HETATM   15  C11 UNL     1      13.903  14.303   9.334  1.00  0.00     0.273 C 
BRANCH  15  16
HETATM   16  O2  UNL     1      12.649  13.592   9.673  1.00  0.00    -0.375 OA
ATOM     17  H2  UNL     1      12.454  13.878  10.558  1.00  0.00     0.211 HD
ENDBRANCH  15  16
BRANCH  15  18
HETATM   18  C12 UNL     1      14.746  13.992  10.370  1.00  0.00    -0.042 C 
BRANCH  18  19
HETATM   19  C13 UNL     1      15.430  13.694  11.360  1.00  0.00     0.027 C 
BRANCH  19  20
HETATM   20  N9  UNL     1      16.111  13.408  12.538  1.00  0.00    -0.242 N 
ATOM     21  H9  UNL     1      17.115  13.569  12.628  1.00  0.00     0.195 HD
BRANCH  20  22
HETATM   22  N10 UNL     1      15.351  12.886  13.599  1.00  0.00    -0.022 NA
BRANCH  22  23
HETATM   23  N11 UNL     1      15.387  13.643  14.752  1.00  0.00    -0.328 N 
ATOM     24 2H11 UNL     1      15.685  13.250  15.645  1.00  0.00     0.174 HD
ATOM     25 1H11 UNL     1      15.093  14.612  14.632  1.00  0.00     0.174 HD
ENDBRANCH  22  23
ENDBRANCH  20  22
ENDBRANCH  19  20
ENDBRANCH  18  19
ENDBRANCH  15  18
ENDBRANCH  11  15
BRANCH  14  26
HETATM   26  O4  UNL     1      14.096  12.025   4.902  1.00  0.00    -0.339 OA
ATOM     27  H4  UNL     1      13.244  11.656   4.704  1.00  0.00     0.220 HD
ENDBRANCH  14  26
ENDBRANCH   8   9
BRANCH   5  28
HETATM   28  C3  UNL     1      16.605  14.759   1.160  1.00  0.00     0.228 C 
BRANCH  28  29
HETATM   29  N3  UNL     1      16.064  13.751   0.330  1.00  0.00    -0.272 N 
HETATM   30  N4  UNL     1      14.876  13.146   0.482  1.00  0.00    -0.239 N 
HETATM   31  N5  UNL     1      14.715  12.231  -0.451  1.00  0.00    -0.280 N 
ATOM     32  H4  UNL     1      14.199  13.363   1.213  1.00  0.00     0.208 HD
HETATM   33  C4  UNL     1      15.845  12.245  -1.228  1.00  0.00     0.139 A 
ATOM     34  H5  UNL     1      13.903  11.626  -0.572  1.00  0.00     0.189 HD
HETATM   35  C6  UNL     1      16.695  13.208  -0.724  1.00  0.00     0.073 A 
BRANCH  33  36
HETATM   36  C5  UNL     1      16.160  11.425  -2.399  1.00  0.00     0.284 C 
HETATM   37  N6  UNL     1      16.516  10.047  -2.160  1.00  0.00    -0.056 NA
HETATM   38  O1  UNL     1      16.140  11.826  -3.569  1.00  0.00    -0.269 OA
ENDBRANCH  33  36
BRANCH  35  39
HETATM   39  C7  UNL     1      18.116  13.408  -1.100  1.00  0.00     0.147 C 
HETATM   40  S1  UNL     1      18.368  14.681  -2.382  1.00  0.00    -0.091 SA
ENDBRANCH  35  39
ENDBRANCH  28  29
ENDBRANCH   5  28
TORSDOF 13
ENDMDL
MODEL 5
REMARK VINA RESULT: -6.578305414      3.345      9.219
REMARK  13 active torsions:
REMARK  status: ('A' for Active; 'I' for Inactive)
REMARK    1  A    between atoms: C2_5  and  C3_6 
REMARK    2  A    between atoms: C3_6  and  N3_7 
REMARK    3  A    between atoms: C4_12  and  C5_13 
REMARK    4  A    between atoms: C6_16  and  C7_17 
REMARK    5  A    between atoms: C8_21  and  C9_22 
REMARK    6  A    between atoms: C10_25  and  C11_26 
REMARK    7  A    between atoms: C11_26  and  O2_27 
REMARK    8  A    between atoms: C11_26  and  C12_29 
REMARK    9  A    between atoms: C12_29  and  C13_30 
REMARK   10  A    between atoms: C13_30  and  N9_31 
REMARK   11  A    between atoms: N9_31  and  N10_33 
REMARK   12  A    between atoms: N10_33  and  N11_34 
REMARK   13  A    between atoms: C14_38  and  O4_39 
ROOT
HETATM    1  C1  UNL     1      12.089  14.003   5.678  1.00  0.00     0.179 C 
HETATM    2  N1  UNL     1      13.026  14.019   6.794  1.00  0.00    -0.278 N 
HETATM    3  N2  UNL     1      12.704  14.513   7.961  1.00  0.00    -0.284 N 
ATOM      4  H2  UNL     1      11.817  14.971   8.170  1.00  0.00     0.188 HD
HETATM    5  C2  UNL     1      13.725  14.332   8.873  1.00  0.00     0.117 A 
HETATM    6  N7  UNL     1      14.655  13.730   8.166  1.00  0.00    -0.326 N 
ATOM      7  H7  UNL     1      15.561  13.453   8.541  1.00  0.00     0.169 HD
HETATM    8  C8  UNL     1      14.281  13.521   6.905  1.00  0.00     0.155 A 
ENDROOT
BRANCH   8   9
HETATM    9  C9  UNL     1      15.042  12.952   5.811  1.00  0.00     0.139 A 
HETATM   10  N8  UNL     1      16.076  13.473   5.170  1.00  0.00    -0.330 N 
HETATM   11  C10 UNL     1      16.644  12.610   4.311  1.00  0.00     0.168 A 
ATOM     12  H8  UNL     1      16.406  14.428   5.313  1.00  0.00     0.168 HD
HETATM   13  O3  UNL     1      15.901  11.509   4.424  1.00  0.00    -0.269 OA
HETATM   14  C14 UNL     1      14.911  11.601   5.292  1.00  0.00     0.216 A 
BRANCH  11  15
HETATM   15  C11 UNL     1      17.830  12.882   3.500  1.00  0.00     0.273 C 
BRANCH  15  16
HETATM   16  O2  UNL     1      18.231  11.551   2.993  1.00  0.00    -0.375 OA
ATOM     17  H2  UNL     1      17.743  10.941   3.534  1.00  0.00     0.211 HD
ENDBRANCH  15  16
BRANCH  15  18
HETATM   18  C12 UNL     1      17.794  13.664   2.374  1.00  0.00    -0.042 C 
BRANCH  18  19
HETATM   19  C13 UNL     1      17.669  14.345   1.346  1.00  0.00     0.027 C 
BRANCH  19  20
HETATM   20  N9  UNL     1      17.540  15.205   0.261  1.00  0.00    -0.242 N 
ATOM     21  H9  UNL     1      17.994  15.011  -0.632  1.00  0.00     0.195 HD
BRANCH  20  22
HETATM   22  N10 UNL     1      16.755  16.355   0.455  1.00  0.00    -0.022 NA
BRANCH  22  23
HETATM   23  N11 UNL     1      16.729  16.816   1.755  1.00  0.00    -0.328 N 
ATOM     24 2H11 UNL     1      15.857  16.928   2.270  1.00  0.00     0.174 HD
ATOM     25 1H11 UNL     1      17.647  17.032   2.145  1.00  0.00     0.174 HD
ENDBRANCH  22  23
ENDBRANCH  20  22
ENDBRANCH  19  20
ENDBRANCH  18  19
ENDBRANCH  15  18
ENDBRANCH  11  15
BRANCH  14  26
HETATM   26  O4  UNL     1      13.898  10.842   5.791  1.00  0.00    -0.339 OA
ATOM     27  H4  UNL     1      13.920  10.650   6.722  1.00  0.00     0.220 HD
ENDBRANCH  14  26
ENDBRANCH   8   9
BRANCH   5  28
HETATM   28  C3  UNL     1      13.514  14.884  10.217  1.00  0.00     0.228 C 
BRANCH  28  29
HETATM   29  N3  UNL     1      12.570  15.926  10.358  1.00  0.00    -0.272 N 
HETATM   30  N4  UNL     1      12.749  17.213  10.025  1.00  0.00    -0.239 N 
HETATM   31  N5  UNL     1      11.674  17.910  10.330  1.00  0.00    -0.280 N 
ATOM     32  H4  UNL     1      13.592  17.596   9.598  1.00  0.00     0.208 HD
HETATM   33  C4  UNL     1      10.774  17.038  10.886  1.00  0.00     0.139 A 
ATOM     34  H5  UNL     1      11.537  18.910  10.181  1.00  0.00     0.189 HD
HETATM   35  C6  UNL     1      11.350  15.785  10.903  1.00  0.00     0.073 A 
BRANCH  33  36
HETATM   36  C5  UNL     1       9.424  17.311  11.385  1.00  0.00     0.284 C 
HETATM   37  N6  UNL     1       9.317  17.936  12.682  1.00  0.00    -0.056 NA
HETATM   38  O1  UNL     1       8.380  17.047  10.779  1.00  0.00    -0.269 OA
ENDBRANCH  33  36
BRANCH  35  39
HETATM   39  C7  UNL     1      10.840  14.592  11.622  1.00  0.00     0.147 C 
HETATM   40  S1  UNL     1      10.056  13.355  10.534  1.00  0.00    -0.091 SA
ENDBRANCH  35  39
ENDBRANCH  28  29
ENDBRANCH   5  28
TORSDOF 13
ENDMDL
