MODEL 1
REMARK VINA RESULT: -7.295031348      0.000      0.000
REMARK  11 active torsions:
REMARK  status: ('A' for Active; 'I' for Inactive)
REMARK       I    between atoms: C2_2  and  N1_4 
REMARK    1  A    between atoms: N1_4  and  C3_6 
REMARK    2  A    between atoms: C4_7  and  O2_8 
REMARK    3  A    between atoms: C7_14  and  O3_15 
REMARK    4  A    between atoms: C8_17  and  N3_18 
REMARK    5  A    between atoms: N3_18  and  N4_20 
REMARK    6  A    between atoms: N4_20  and  C9_21 
REMARK    7  A    between atoms: C9_21  and  C10_22 
REMARK    8  A    between atoms: C10_22  and  S1_23 
REMARK    9  A    between atoms: S1_23  and  N5_26 
REMARK   10  A    between atoms: N6_28  and  C11_30 
REMARK   11  A    between atoms: N10_37  and  N11_38 
ROOT
HETATM    1  C3  UNL     1      14.230  14.123   6.730  1.00  0.00     0.120 A 
HETATM    2  C4  UNL     1      12.985  14.588   6.398  1.00  0.00     0.172 A 
HETATM    3  N2  UNL     1      12.404  14.210   5.258  1.00  0.00    -0.319 N 
ATOM      4  H2  UNL     1      11.477  14.558   5.016  1.00  0.00     0.169 HD
HETATM    5  C5  UNL     1      13.042  13.374   4.434  1.00  0.00     0.140 A 
HETATM    6  C6  UNL     1      14.295  12.880   4.724  1.00  0.00     0.091 A 
HETATM    7  C7  UNL     1      14.904  13.263   5.901  1.00  0.00     0.114 A 
HETATM    8  C8  UNL     1      15.009  11.962   3.833  1.00  0.00     0.149 A 
HETATM    9  N12 UNL     1      14.418  11.621   2.744  1.00  0.00    -0.269 N 
ATOM     10  H12 UNL     1      14.898  10.982   2.110  1.00  0.00     0.190 HD
HETATM   11  N13 UNL     1      13.161  12.080   2.389  1.00  0.00    -0.239 N 
ATOM     12  H13 UNL     1      12.751  11.769   1.508  1.00  0.00     0.208 HD
HETATM   13  N14 UNL     1      12.443  12.946   3.192  1.00  0.00    -0.270 N 
ATOM     14  H14 UNL     1      11.518  13.273   2.915  1.00  0.00     0.190 HD
ENDROOT
BRANCH   8  15
HETATM   15  N3  UNL     1      16.300  11.484   4.186  1.00  0.00    -0.287 N 
ATOM     16  H3  UNL     1      16.432  10.910   5.019  1.00  0.00     0.184 HD
BRANCH  15  17
HETATM   17  N4  UNL     1      17.381  11.812   3.373  1.00  0.00    -0.139 NA
BRANCH  17  18
HETATM   18  C9  UNL     1      17.647  13.234   3.377  1.00  0.00     0.151 C 
BRANCH  18  19
HETATM   19  C10 UNL     1      17.677  13.820   1.998  1.00  0.00     0.182 C 
BRANCH  19  20
HETATM   20  S1  UNL     1      16.362  15.006   1.834  1.00  0.00     0.245 S 
HETATM   21  O4  UNL     1      15.106  14.254   1.429  1.00  0.00    -0.204 OA
HETATM   22  O5  UNL     1      16.667  16.023   0.777  1.00  0.00    -0.204 OA
BRANCH  20  23
HETATM   23  N5  UNL     1      16.073  15.691   3.367  1.00  0.00    -0.212 N 
HETATM   24  N6  UNL     1      15.709  16.862   3.608  1.00  0.00    -0.118 N 
ATOM     25  H6  UNL     1      15.551  17.532   2.855  1.00  0.00     0.206 HD
ATOM     26  H5  UNL     1      16.211  15.081   4.173  1.00  0.00     0.200 HD
BRANCH  24  27
HETATM   27  C11 UNL     1      15.524  17.229   4.978  1.00  0.00     0.750 A 
HETATM   28  N7  UNL     1      16.462  17.258   5.912  1.00  0.00    -0.112 N 
HETATM   29  N8  UNL     1      15.930  17.641   7.053  1.00  0.00    -0.212 N 
ATOM     30  H7  UNL     1      17.444  17.021   5.770  1.00  0.00     0.207 HD
HETATM   31  N9  UNL     1      14.644  17.859   6.847  1.00  0.00    -0.192 N 
ATOM     32  H8  UNL     1      16.422  17.751   7.939  1.00  0.00     0.210 HD
HETATM   33  N10 UNL     1      14.380  17.610   5.578  1.00  0.00    -0.008 N 
ATOM     34  H9  UNL     1      13.970  18.167   7.548  1.00  0.00     0.212 HD
BRANCH  33  35
HETATM   35  N11 UNL     1      13.139  17.707   4.907  1.00  0.00    -0.308 N 
ATOM     36 2H11 UNL     1      12.606  18.549   4.684  1.00  0.00     0.179 HD
ATOM     37 1H11 UNL     1      12.621  16.900   4.558  1.00  0.00     0.179 HD
ENDBRANCH  33  35
ENDBRANCH  24  27
ENDBRANCH  20  23
ENDBRANCH  19  20
ENDBRANCH  18  19
ENDBRANCH  17  18
ENDBRANCH  15  17
ENDBRANCH   8  15
BRANCH   7  38
HETATM   38  O3  UNL     1      16.180  12.775   6.222  1.00  0.00    -0.357 OA
ATOM     39  H3  UNL     1      16.302  11.930   6.639  1.00  0.00     0.217 HD
ENDBRANCH   7  38
BRANCH   1  40
HETATM   40  N1  UNL     1      14.847  14.530   7.953  1.00  0.00    -0.322 N 
HETATM   41  C2  UNL     1      14.598  13.844   9.177  1.00  0.00     0.218 C 
HETATM   42  C1  UNL     1      15.203  14.220  10.453  1.00  0.00     0.117 C 
HETATM   43  O1  UNL     1      13.805  12.849   9.172  1.00  0.00    -0.274 OA
ATOM     44  H1  UNL     1      15.481  15.330   7.950  1.00  0.00     0.169 HD
ENDBRANCH   1  40
BRANCH   2  45
HETATM   45  O2  UNL     1      12.322  15.476   7.285  1.00  0.00    -0.344 OA
ATOM     46  H2  UNL     1      11.717  15.121   7.926  1.00  0.00     0.219 HD
ENDBRANCH   2  45
TORSDOF 11
ENDMDL
MODEL 2
REMARK VINA RESULT: -7.241001578      2.344      6.245
REMARK  11 active torsions:
REMARK  status: ('A' for Active; 'I' for Inactive)
REMARK       I    between atoms: C2_2  and  N1_4 
REMARK    1  A    between atoms: N1_4  and  C3_6 
REMARK    2  A    between atoms: C4_7  and  O2_8 
REMARK    3  A    between atoms: C7_14  and  O3_15 
REMARK    4  A    between atoms: C8_17  and  N3_18 
REMARK    5  A    between atoms: N3_18  and  N4_20 
REMARK    6  A    between atoms: N4_20  and  C9_21 
REMARK    7  A    between atoms: C9_21  and  C10_22 
REMARK    8  A    between atoms: C10_22  and  S1_23 
REMARK    9  A    between atoms: S1_23  and  N5_26 
REMARK   10  A    between atoms: N6_28  and  C11_30 
REMARK   11  A    between atoms: N10_37  and  N11_38 
ROOT
HETATM    1  C3  UNL     1      14.868  14.206   1.410  1.00  0.00     0.120 A 
HETATM    2  C4  UNL     1      14.153  13.110   1.007  1.00  0.00     0.172 A 
HETATM    3  N2  UNL     1      13.143  12.652   1.749  1.00  0.00    -0.319 N 
ATOM      4  H2  UNL     1      12.612  11.836   1.443  1.00  0.00     0.169 HD
HETATM    5  C5  UNL     1      12.829  13.265   2.893  1.00  0.00     0.140 A 
HETATM    6  C6  UNL     1      13.519  14.370   3.340  1.00  0.00     0.091 A 
HETATM    7  C7  UNL     1      14.564  14.853   2.580  1.00  0.00     0.114 A 
HETATM    8  C8  UNL     1      13.190  15.057   4.592  1.00  0.00     0.149 A 
HETATM    9  N12 UNL     1      12.211  14.585   5.280  1.00  0.00    -0.269 N 
ATOM     10  H12 UNL     1      11.965  15.049   6.154  1.00  0.00     0.190 HD
HETATM   11  N13 UNL     1      11.475  13.479   4.891  1.00  0.00    -0.239 N 
ATOM     12  H13 UNL     1      10.712  13.159   5.487  1.00  0.00     0.208 HD
HETATM   13  N14 UNL     1      11.743  12.795   3.721  1.00  0.00    -0.270 N 
ATOM     14  H14 UNL     1      11.190  11.982   3.450  1.00  0.00     0.190 HD
ENDROOT
BRANCH   8  15
HETATM   15  N3  UNL     1      13.937  16.193   5.002  1.00  0.00    -0.287 N 
ATOM     16  H3  UNL     1      13.803  17.096   4.545  1.00  0.00     0.184 HD
BRANCH  15  17
HETATM   17  N4  UNL     1      14.855  16.053   6.039  1.00  0.00    -0.139 NA
BRANCH  17  18
HETATM   18  C9  UNL     1      14.277  16.391   7.322  1.00  0.00     0.151 C 
BRANCH  18  19
HETATM   19  C10 UNL     1      14.862  15.592   8.446  1.00  0.00     0.182 C 
BRANCH  19  20
HETATM   20  S1  UNL     1      14.066  14.003   8.516  1.00  0.00     0.245 S 
HETATM   21  O4  UNL     1      12.566  14.232   8.458  1.00  0.00    -0.204 OA
HETATM   22  O5  UNL     1      14.387  13.282   9.790  1.00  0.00    -0.204 OA
BRANCH  20  23
HETATM   23  N5  UNL     1      14.502  13.131   7.118  1.00  0.00    -0.212 N 
HETATM   24  N6  UNL     1      15.586  13.200   6.500  1.00  0.00    -0.118 N 
ATOM     25  H6  UNL     1      16.332  13.824   6.808  1.00  0.00     0.206 HD
ATOM     26  H5  UNL     1      13.805  12.485   6.747  1.00  0.00     0.200 HD
BRANCH  24  27
HETATM   27  C11 UNL     1      15.741  12.374   5.343  1.00  0.00     0.750 A 
HETATM   28  N7  UNL     1      15.079  11.255   5.087  1.00  0.00    -0.112 N 
HETATM   29  N8  UNL     1      15.482  10.764   3.935  1.00  0.00    -0.212 N 
ATOM     30  H7  UNL     1      14.368  10.840   5.689  1.00  0.00     0.207 HD
HETATM   31  N9  UNL     1      16.407  11.572   3.451  1.00  0.00    -0.192 N 
ATOM     32  H8  UNL     1      15.141   9.910   3.494  1.00  0.00     0.210 HD
HETATM   33  N10 UNL     1      16.577  12.564   4.303  1.00  0.00    -0.008 N 
ATOM     34  H9  UNL     1      16.905  11.450   2.569  1.00  0.00     0.212 HD
BRANCH  33  35
HETATM   35  N11 UNL     1      17.462  13.663   4.203  1.00  0.00    -0.308 N 
ATOM     36 2H11 UNL     1      17.599  14.426   4.866  1.00  0.00     0.179 HD
ATOM     37 1H11 UNL     1      18.088  13.812   3.411  1.00  0.00     0.179 HD
ENDBRANCH  33  35
ENDBRANCH  24  27
ENDBRANCH  20  23
ENDBRANCH  19  20
ENDBRANCH  18  19
ENDBRANCH  17  18
ENDBRANCH  15  17
ENDBRANCH   8  15
BRANCH   7  38
HETATM   38  O3  UNL     1      15.285  15.977   3.011  1.00  0.00    -0.357 OA
ATOM     39  H3  UNL     1      15.255  16.275   3.913  1.00  0.00     0.217 HD
ENDBRANCH   7  38
BRANCH   1  40
HETATM   40  N1  UNL     1      15.949  14.693   0.610  1.00  0.00    -0.322 N 
HETATM   41  C2  UNL     1      17.180  13.983   0.512  1.00  0.00     0.218 C 
HETATM   42  C1  UNL     1      18.313  14.438  -0.291  1.00  0.00     0.117 C 
HETATM   43  O1  UNL     1      17.314  12.893   1.154  1.00  0.00    -0.274 OA
ATOM     44  H1  UNL     1      15.835  15.568   0.099  1.00  0.00     0.169 HD
ENDBRANCH   1  40
BRANCH   2  45
HETATM   45  O2  UNL     1      14.500  12.470  -0.212  1.00  0.00    -0.344 OA
ATOM     46  H2  UNL     1      14.087  11.643  -0.433  1.00  0.00     0.219 HD
ENDBRANCH   2  45
TORSDOF 11
ENDMDL
MODEL 3
REMARK VINA RESULT: -7.206152062      2.484      6.008
REMARK  11 active torsions:
REMARK  status: ('A' for Active; 'I' for Inactive)
REMARK       I    between atoms: C2_2  and  N1_4 
REMARK    1  A    between atoms: N1_4  and  C3_6 
REMARK    2  A    between atoms: C4_7  and  O2_8 
REMARK    3  A    between atoms: C7_14  and  O3_15 
REMARK    4  A    between atoms: C8_17  and  N3_18 
REMARK    5  A    between atoms: N3_18  and  N4_20 
REMARK    6  A    between atoms: N4_20  and  C9_21 
REMARK    7  A    between atoms: C9_21  and  C10_22 
REMARK    8  A    between atoms: C10_22  and  S1_23 
REMARK    9  A    between atoms: S1_23  and  N5_26 
REMARK   10  A    between atoms: N6_28  and  C11_30 
REMARK   11  A    between atoms: N10_37  and  N11_38 
ROOT
HETATM    1  C3  UNL     1      12.718  13.683   3.087  1.00  0.00     0.120 A 
HETATM    2  C4  UNL     1      13.187  13.481   1.816  1.00  0.00     0.172 A 
HETATM    3  N2  UNL     1      14.223  14.187   1.357  1.00  0.00    -0.319 N 
ATOM      4  H2  UNL     1      14.569  14.031   0.411  1.00  0.00     0.169 HD
HETATM    5  C5  UNL     1      14.803  15.098   2.141  1.00  0.00     0.140 A 
HETATM    6  C6  UNL     1      14.367  15.338   3.426  1.00  0.00     0.091 A 
HETATM    7  C7  UNL     1      13.299  14.613   3.911  1.00  0.00     0.114 A 
HETATM    8  C8  UNL     1      14.991  16.334   4.301  1.00  0.00     0.149 A 
HETATM    9  N12 UNL     1      15.986  16.995   3.823  1.00  0.00    -0.269 N 
ATOM     10  H12 UNL     1      16.435  17.692   4.417  1.00  0.00     0.190 HD
HETATM   11  N13 UNL     1      16.475  16.805   2.542  1.00  0.00    -0.239 N 
ATOM     12  H13 UNL     1      17.267  17.367   2.228  1.00  0.00     0.208 HD
HETATM   13  N14 UNL     1      15.924  15.881   1.676  1.00  0.00    -0.270 N 
ATOM     14  H14 UNL     1      16.298  15.755   0.736  1.00  0.00     0.190 HD
ENDROOT
BRANCH   8  15
HETATM   15  N3  UNL     1      14.499  16.537   5.618  1.00  0.00    -0.287 N 
ATOM     16  H3  UNL     1      13.522  16.787   5.775  1.00  0.00     0.184 HD
BRANCH  15  17
HETATM   17  N4  UNL     1      15.373  16.388   6.691  1.00  0.00    -0.139 NA
BRANCH  17  18
HETATM   18  C9  UNL     1      14.674  16.350   7.957  1.00  0.00     0.151 C 
BRANCH  18  19
HETATM   19  C10 UNL     1      15.052  15.162   8.789  1.00  0.00     0.182 C 
BRANCH  19  20
HETATM   20  S1  UNL     1      13.936  13.822   8.442  1.00  0.00     0.245 S 
HETATM   21  O4  UNL     1      12.563  14.416   8.181  1.00  0.00    -0.204 OA
HETATM   22  O5  UNL     1      13.832  12.878   9.602  1.00  0.00    -0.204 OA
BRANCH  20  23
HETATM   23  N5  UNL     1      14.446  13.067   7.002  1.00  0.00    -0.212 N 
HETATM   24  N6  UNL     1      15.549  13.211   6.431  1.00  0.00    -0.118 N 
ATOM     25  H6  UNL     1      16.265  13.829   6.812  1.00  0.00     0.206 HD
ATOM     26  H5  UNL     1      13.782  12.432   6.560  1.00  0.00     0.200 HD
BRANCH  24  27
HETATM   27  C11 UNL     1      15.769  12.476   5.224  1.00  0.00     0.750 A 
HETATM   28  N7  UNL     1      15.111  11.393   4.838  1.00  0.00    -0.112 N 
HETATM   29  N8  UNL     1      15.582  10.987   3.678  1.00  0.00    -0.212 N 
ATOM     30  H7  UNL     1      14.358  10.943   5.358  1.00  0.00     0.207 HD
HETATM   31  N9  UNL     1      16.546  11.815   3.320  1.00  0.00    -0.192 N 
ATOM     32  H8  UNL     1      15.260  10.177   3.149  1.00  0.00     0.210 HD
HETATM   33  N10 UNL     1      16.672  12.734   4.258  1.00  0.00    -0.008 N 
ATOM     34  H9  UNL     1      17.098  11.756   2.464  1.00  0.00     0.212 HD
BRANCH  33  35
HETATM   35  N11 UNL     1      17.575  13.822   4.302  1.00  0.00    -0.308 N 
ATOM     36 2H11 UNL     1      17.531  14.655   4.890  1.00  0.00     0.179 HD
ATOM     37 1H11 UNL     1      18.409  13.887   3.718  1.00  0.00     0.179 HD
ENDBRANCH  33  35
ENDBRANCH  24  27
ENDBRANCH  20  23
ENDBRANCH  19  20
ENDBRANCH  18  19
ENDBRANCH  17  18
ENDBRANCH  15  17
ENDBRANCH   8  15
BRANCH   7  38
HETATM   38  O3  UNL     1      12.833  14.836   5.216  1.00  0.00    -0.357 OA
ATOM     39  H3  UNL     1      12.612  14.118   5.798  1.00  0.00     0.217 HD
ENDBRANCH   7  38
BRANCH   1  40
HETATM   40  N1  UNL     1      11.609  12.923   3.574  1.00  0.00    -0.322 N 
HETATM   41  C2  UNL     1      10.270  13.387   3.430  1.00  0.00     0.218 C 
HETATM   42  C1  UNL     1       9.103  12.648   3.910  1.00  0.00     0.117 C 
HETATM   43  O1  UNL     1      10.064  14.503   2.857  1.00  0.00    -0.274 OA
ATOM     44  H1  UNL     1      11.781  12.029   4.034  1.00  0.00     0.169 HD
ENDBRANCH   1  40
BRANCH   2  45
HETATM   45  O2  UNL     1      12.558  12.508   0.996  1.00  0.00    -0.344 OA
ATOM     46  H2  UNL     1      12.920  11.630   0.961  1.00  0.00     0.219 HD
ENDBRANCH   2  45
TORSDOF 11
ENDMDL
MODEL 4
REMARK VINA RESULT: -7.150853844      2.356      5.543
REMARK  11 active torsions:
REMARK  status: ('A' for Active; 'I' for Inactive)
REMARK       I    between atoms: C2_2  and  N1_4 
REMARK    1  A    between atoms: N1_4  and  C3_6 
REMARK    2  A    between atoms: C4_7  and  O2_8 
REMARK    3  A    between atoms: C7_14  and  O3_15 
REMARK    4  A    between atoms: C8_17  and  N3_18 
REMARK    5  A    between atoms: N3_18  and  N4_20 
REMARK    6  A    between atoms: N4_20  and  C9_21 
REMARK    7  A    between atoms: C9_21  and  C10_22 
REMARK    8  A    between atoms: C10_22  and  S1_23 
REMARK    9  A    between atoms: S1_23  and  N5_26 
REMARK   10  A    between atoms: N6_28  and  C11_30 
REMARK   11  A    between atoms: N10_37  and  N11_38 
ROOT
HETATM    1  C3  UNL     1      14.052  12.875   4.020  1.00  0.00     0.120 A 
HETATM    2  C4  UNL     1      13.290  12.648   2.905  1.00  0.00     0.172 A 
HETATM    3  N2  UNL     1      11.983  12.915   2.913  1.00  0.00    -0.319 N 
ATOM      4  H2  UNL     1      11.420  12.745   2.080  1.00  0.00     0.169 HD
HETATM    5  C5  UNL     1      11.413  13.405   4.017  1.00  0.00     0.140 A 
HETATM    6  C6  UNL     1      12.138  13.650   5.163  1.00  0.00     0.091 A 
HETATM    7  C7  UNL     1      13.491  13.380   5.165  1.00  0.00     0.114 A 
HETATM    8  C8  UNL     1      11.532  14.188   6.384  1.00  0.00     0.149 A 
HETATM    9  N12 UNL     1      10.269  14.432   6.354  1.00  0.00    -0.269 N 
ATOM     10  H12 UNL     1       9.828  14.808   7.193  1.00  0.00     0.190 HD
HETATM   11  N13 UNL     1       9.481  14.209   5.238  1.00  0.00    -0.239 N 
ATOM     12  H13 UNL     1       8.485  14.425   5.285  1.00  0.00     0.208 HD
HETATM   13  N14 UNL     1      10.001  13.704   4.062  1.00  0.00    -0.270 N 
ATOM     14  H14 UNL     1       9.405  13.547   3.249  1.00  0.00     0.190 HD
ENDROOT
BRANCH   8  15
HETATM   15  N3  UNL     1      12.329  14.422   7.536  1.00  0.00    -0.287 N 
ATOM     16  H3  UNL     1      13.255  14.002   7.621  1.00  0.00     0.184 HD
BRANCH  15  17
HETATM   17  N4  UNL     1      11.825  15.235   8.547  1.00  0.00    -0.139 NA
BRANCH  17  18
HETATM   18  C9  UNL     1      11.980  14.633   9.853  1.00  0.00     0.151 C 
BRANCH  18  19
HETATM   19  C10 UNL     1      13.216  15.099  10.560  1.00  0.00     0.182 C 
BRANCH  19  20
HETATM   20  S1  UNL     1      14.630  14.249   9.896  1.00  0.00     0.245 S 
HETATM   21  O4  UNL     1      14.154  12.918   9.342  1.00  0.00    -0.204 OA
HETATM   22  O5  UNL     1      15.659  13.983  10.953  1.00  0.00    -0.204 OA
BRANCH  20  23
HETATM   23  N5  UNL     1      15.229  15.161   8.587  1.00  0.00    -0.212 N 
HETATM   24  N6  UNL     1      14.903  16.326   8.273  1.00  0.00    -0.118 N 
ATOM     25  H6  UNL     1      14.211  16.845   8.814  1.00  0.00     0.206 HD
ATOM     26  H5  UNL     1      15.928  14.709   7.997  1.00  0.00     0.200 HD
BRANCH  24  27
HETATM   27  C11 UNL     1      15.535  16.905   7.129  1.00  0.00     0.750 A 
HETATM   28  N7  UNL     1      15.482  16.442   5.889  1.00  0.00    -0.112 N 
HETATM   29  N8  UNL     1      16.181  17.229   5.099  1.00  0.00    -0.212 N 
ATOM     30  H7  UNL     1      14.977  15.607   5.593  1.00  0.00     0.207 HD
HETATM   31  N9  UNL     1      16.685  18.201   5.838  1.00  0.00    -0.192 N 
ATOM     32  H8  UNL     1      16.311  17.110   4.095  1.00  0.00     0.210 HD
HETATM   33  N10 UNL     1      16.297  18.016   7.085  1.00  0.00    -0.008 N 
ATOM     34  H9  UNL     1      17.272  18.964   5.502  1.00  0.00     0.212 HD
BRANCH  33  35
HETATM   35  N11 UNL     1      16.594  18.806   8.220  1.00  0.00    -0.308 N 
ATOM     36 2H11 UNL     1      16.098  18.842   9.111  1.00  0.00     0.179 HD
ATOM     37 1H11 UNL     1      17.379  19.456   8.265  1.00  0.00     0.179 HD
ENDBRANCH  33  35
ENDBRANCH  24  27
ENDBRANCH  20  23
ENDBRANCH  19  20
ENDBRANCH  18  19
ENDBRANCH  17  18
ENDBRANCH  15  17
ENDBRANCH   8  15
BRANCH   7  38
HETATM   38  O3  UNL     1      14.253  13.619   6.318  1.00  0.00    -0.357 OA
ATOM     39  H3  UNL     1      15.070  14.104   6.285  1.00  0.00     0.217 HD
ENDBRANCH   7  38
BRANCH   1  40
HETATM   40  N1  UNL     1      15.453  12.589   4.004  1.00  0.00    -0.322 N 
HETATM   41  C2  UNL     1      16.412  13.586   3.667  1.00  0.00     0.218 C 
HETATM   42  C1  UNL     1      17.853  13.344   3.638  1.00  0.00     0.117 C 
HETATM   43  O1  UNL     1      16.006  14.755   3.373  1.00  0.00    -0.274 OA
ATOM     44  H1  UNL     1      15.772  11.649   4.240  1.00  0.00     0.169 HD
ENDBRANCH   1  40
BRANCH   2  45
HETATM   45  O2  UNL     1      13.911  12.126   1.740  1.00  0.00    -0.344 OA
ATOM     46  H2  UNL     1      14.386  11.306   1.799  1.00  0.00     0.219 HD
ENDBRANCH   2  45
TORSDOF 11
ENDMDL
MODEL 5
REMARK VINA RESULT: -7.136272396      2.707      5.867
REMARK  11 active torsions:
REMARK  status: ('A' for Active; 'I' for Inactive)
REMARK       I    between atoms: C2_2  and  N1_4 
REMARK    1  A    between atoms: N1_4  and  C3_6 
REMARK    2  A    between atoms: C4_7  and  O2_8 
REMARK    3  A    between atoms: C7_14  and  O3_15 
REMARK    4  A    between atoms: C8_17  and  N3_18 
REMARK    5  A    between atoms: N3_18  and  N4_20 
REMARK    6  A    between atoms: N4_20  and  C9_21 
REMARK    7  A    between atoms: C9_21  and  C10_22 
REMARK    8  A    between atoms: C10_22  and  S1_23 
REMARK    9  A    between atoms: S1_23  and  N5_26 
REMARK   10  A    between atoms: N6_28  and  C11_30 
REMARK   11  A    between atoms: N10_37  and  N11_38 
ROOT
HETATM    1  C3  UNL     1      14.745  16.435   3.459  1.00  0.00     0.120 A 
HETATM    2  C4  UNL     1      15.997  15.991   3.127  1.00  0.00     0.172 A 
HETATM    3  N2  UNL     1      16.499  14.895   3.698  1.00  0.00    -0.319 N 
ATOM      4  H2  UNL     1      17.432  14.567   3.446  1.00  0.00     0.169 HD
HETATM    5  C5  UNL     1      15.776  14.227   4.601  1.00  0.00     0.140 A 
HETATM    6  C6  UNL     1      14.512  14.635   4.968  1.00  0.00     0.091 A 
HETATM    7  C7  UNL     1      13.983  15.766   4.382  1.00  0.00     0.114 A 
HETATM    8  C8  UNL     1      13.704  13.916   5.956  1.00  0.00     0.149 A 
HETATM    9  N12 UNL     1      14.222  12.864   6.485  1.00  0.00    -0.269 N 
ATOM     10  H12 UNL     1      13.675  12.349   7.174  1.00  0.00     0.190 HD
HETATM   11  N13 UNL     1      15.485  12.399   6.164  1.00  0.00    -0.239 N 
ATOM     12  H13 UNL     1      15.834  11.558   6.624  1.00  0.00     0.208 HD
HETATM   13  N14 UNL     1      16.289  13.038   5.240  1.00  0.00    -0.270 N 
ATOM     14  H14 UNL     1      17.217  12.680   5.015  1.00  0.00     0.190 HD
ENDROOT
BRANCH   8  15
HETATM   15  N3  UNL     1      12.405  14.383   6.293  1.00  0.00    -0.287 N 
ATOM     16  H3  UNL     1      11.606  14.174   5.695  1.00  0.00     0.184 HD
BRANCH  15  17
HETATM   17  N4  UNL     1      12.244  15.131   7.456  1.00  0.00    -0.139 NA
BRANCH  17  18
HETATM   18  C9  UNL     1      11.736  14.329   8.548  1.00  0.00     0.151 C 
BRANCH  18  19
HETATM   19  C10 UNL     1      12.291  14.745   9.876  1.00  0.00     0.182 C 
BRANCH  19  20
HETATM   20  S1  UNL     1      14.021  14.335   9.945  1.00  0.00     0.245 S 
HETATM   21  O4  UNL     1      14.203  12.978   9.288  1.00  0.00    -0.204 OA
HETATM   22  O5  UNL     1      14.510  14.248  11.359  1.00  0.00    -0.204 OA
BRANCH  20  23
HETATM   23  N5  UNL     1      14.872  15.473   9.005  1.00  0.00    -0.212 N 
HETATM   24  N6  UNL     1      14.565  16.670   8.818  1.00  0.00    -0.118 N 
ATOM     25  H6  UNL     1      13.730  17.074   9.242  1.00  0.00     0.206 HD
ATOM     26  H5  UNL     1      15.721  15.143   8.547  1.00  0.00     0.200 HD
BRANCH  24  27
HETATM   27  C11 UNL     1      15.427  17.453   7.988  1.00  0.00     0.750 A 
HETATM   28  N7  UNL     1      15.987  17.060   6.853  1.00  0.00    -0.112 N 
HETATM   29  N8  UNL     1      16.716  18.040   6.364  1.00  0.00    -0.212 N 
ATOM     30  H7  UNL     1      15.872  16.141   6.426  1.00  0.00     0.207 HD
HETATM   31  N9  UNL     1      16.621  19.066   7.190  1.00  0.00    -0.192 N 
ATOM     32  H8  UNL     1      17.258  18.013   5.501  1.00  0.00     0.210 HD
HETATM   33  N10 UNL     1      15.834  18.721   8.190  1.00  0.00    -0.008 N 
ATOM     34  H9  UNL     1      17.078  19.971   7.074  1.00  0.00     0.212 HD
BRANCH  33  35
HETATM   35  N11 UNL     1      15.447  19.498   9.308  1.00  0.00    -0.308 N 
ATOM     36 2H11 UNL     1      14.558  19.974   9.468  1.00  0.00     0.179 HD
ATOM     37 1H11 UNL     1      16.051  19.670  10.111  1.00  0.00     0.179 HD
ENDBRANCH  33  35
ENDBRANCH  24  27
ENDBRANCH  20  23
ENDBRANCH  19  20
ENDBRANCH  18  19
ENDBRANCH  17  18
ENDBRANCH  15  17
ENDBRANCH   8  15
BRANCH   7  38
HETATM   38  O3  UNL     1      12.698  16.205   4.736  1.00  0.00    -0.357 OA
ATOM     39  H3  UNL     1      11.937  15.641   4.656  1.00  0.00     0.217 HD
ENDBRANCH   7  38
BRANCH   1  40
HETATM   40  N1  UNL     1      14.212  17.610   2.843  1.00  0.00    -0.322 N 
HETATM   41  C2  UNL     1      14.072  18.830   3.565  1.00  0.00     0.218 C 
HETATM   42  C1  UNL     1      13.533  20.057   2.981  1.00  0.00     0.117 C 
HETATM   43  O1  UNL     1      14.430  18.866   4.785  1.00  0.00    -0.274 OA
ATOM     44  H1  UNL     1      13.925  17.574   1.864  1.00  0.00     0.169 HD
ENDBRANCH   1  40
BRANCH   2  45
HETATM   45  O2  UNL     1      16.752  16.713   2.165  1.00  0.00    -0.344 OA
ATOM     46  H2  UNL     1      17.390  16.248   1.636  1.00  0.00     0.219 HD
ENDBRANCH   2  45
TORSDOF 11
ENDMDL
