MODEL 1
REMARK VINA RESULT: -7.671868116      0.000      0.000
REMARK  11 active torsions:
REMARK  status: ('A' for Active; 'I' for Inactive)
REMARK    1  A    between atoms: C2_4  and  C3_5 
REMARK    2  A    between atoms: C4_10  and  C5_11 
REMARK    3  A    between atoms: C5_11  and  O1_12 
REMARK    4  A    between atoms: C5_11  and  C6_14 
REMARK    5  A    between atoms: C6_14  and  O2_15 
REMARK    6  A    between atoms: C6_14  and  C7_17 
REMARK    7  A    between atoms: C7_17  and  O3_18 
REMARK    8  A    between atoms: C9_25  and  C10_26 
REMARK    9  A    between atoms: N9_31  and  C11_32 
REMARK   10  A    between atoms: C12_37  and  N12_38 
REMARK   11  A    between atoms: C13_43  and  N14_44 
ROOT
HETATM    1  N1  UNL     1      15.427  16.205   4.829  1.00  0.00    -0.171 NA
HETATM    2  C1  UNL     1      15.115  15.085   4.861  1.00  0.00     0.191 C 
HETATM    3  N2  UNL     1      14.719  13.730   4.915  1.00  0.00    -0.225 N 
HETATM    4  C2  UNL     1      14.389  13.078   6.030  1.00  0.00     0.112 A 
HETATM    5  C8  UNL     1      14.069  11.795   5.662  1.00  0.00     0.124 A 
HETATM    6  N6  UNL     1      14.223  11.727   4.315  1.00  0.00    -0.346 N 
ATOM      7  H6  UNL     1      14.057  10.896   3.747  1.00  0.00     0.167 HD
HETATM    8  C9  UNL     1      14.624  12.915   3.844  1.00  0.00     0.169 A 
ENDROOT
BRANCH   4   9
HETATM    9  C3  UNL     1      14.362  13.595   7.393  1.00  0.00     0.151 A 
HETATM   10  N3  UNL     1      15.438  13.900   8.134  1.00  0.00    -0.282 N 
HETATM   11  N4  UNL     1      15.069  14.343   9.321  1.00  0.00    -0.285 N 
ATOM     12  H3  UNL     1      16.405  13.803   7.823  1.00  0.00     0.188 HD
HETATM   13  C4  UNL     1      13.734  14.324   9.346  1.00  0.00     0.129 A 
ATOM     14  H4  UNL     1      15.686  14.643  10.075  1.00  0.00     0.188 HD
HETATM   15  N5  UNL     1      13.304  13.866   8.164  1.00  0.00    -0.326 N 
ATOM     16  H5  UNL     1      12.328  13.743   7.895  1.00  0.00     0.169 HD
BRANCH  13  17
HETATM   17  C5  UNL     1      12.908  14.753  10.519  1.00  0.00     0.217 C 
BRANCH  17  18
HETATM   18  O1  UNL     1      12.868  16.143  10.605  1.00  0.00    -0.385 OA
ATOM     19  H1  UNL     1      13.425  16.449  11.310  1.00  0.00     0.210 HD
ENDBRANCH  17  18
BRANCH  17  20
HETATM   20  C6  UNL     1      11.479  14.262  10.374  1.00  0.00     0.177 C 
BRANCH  20  21
HETATM   21  O2  UNL     1      11.437  12.917  10.021  1.00  0.00    -0.390 OA
ATOM     22  H2  UNL     1      11.012  12.792   9.181  1.00  0.00     0.210 HD
ENDBRANCH  20  21
BRANCH  20  23
HETATM   23  C7  UNL     1      10.712  14.403  11.670  1.00  0.00     0.198 C 
BRANCH  23  24
HETATM   24  O3  UNL     1       9.928  13.267  11.820  1.00  0.00    -0.398 OA
ATOM     25  H3  UNL     1       9.399  13.178  11.035  1.00  0.00     0.209 HD
ENDBRANCH  23  24
ENDBRANCH  20  23
ENDBRANCH  17  20
ENDBRANCH  13  17
ENDBRANCH   4   9
BRANCH   8  26
HETATM   26  C10 UNL     1      14.906  13.277   2.460  1.00  0.00     0.183 A 
HETATM   27  N7  UNL     1      14.141  13.962   1.611  1.00  0.00    -0.265 N 
HETATM   28  N8  UNL     1      14.799  14.056   0.452  1.00  0.00    -0.218 N 
ATOM     29  H7  UNL     1      13.217  14.345   1.811  1.00  0.00     0.190 HD
HETATM   30  N9  UNL     1      15.962  13.444   0.556  1.00  0.00    -0.158 N 
ATOM     31  H8  UNL     1      14.455  14.528  -0.384  1.00  0.00     0.210 HD
HETATM   32  N15 UNL     1      16.032  12.966   1.781  1.00  0.00    -0.257 N 
ATOM     33  H15 UNL     1      16.820  12.439   2.161  1.00  0.00     0.191 HD
BRANCH  30  34
HETATM   34  C11 UNL     1      16.978  13.295  -0.418  1.00  0.00     0.206 A 
HETATM   35  N10 UNL     1      18.063  14.110  -0.457  1.00  0.00    -0.265 N 
HETATM   36  N11 UNL     1      18.999  13.949  -1.377  1.00  0.00    -0.131 N 
ATOM     37  H10 UNL     1      18.157  14.856   0.232  1.00  0.00     0.189 HD
HETATM   38  C12 UNL     1      18.951  12.990  -2.320  1.00  0.00     0.692 A 
ATOM     39  H11 UNL     1      19.797  14.584  -1.373  1.00  0.00     0.205 HD
HETATM   40  N13 UNL     1      17.885  12.174  -2.297  1.00  0.00    -0.172 N 
HETATM   41  C13 UNL     1      16.909  12.296  -1.384  1.00  0.00     0.164 A 
ATOM     42  H13 UNL     1      17.815  11.436  -2.998  1.00  0.00     0.186 HD
BRANCH  38  43
HETATM   43  N12 UNL     1      19.887  12.851  -3.218  1.00  0.00    -0.233 N 
ATOM     44 2H12 UNL     1      20.075  13.585  -3.901  1.00  0.00     0.174 HD
ATOM     45 1H12 UNL     1      20.465  12.013  -3.275  1.00  0.00     0.174 HD
ENDBRANCH  38  43
BRANCH  41  46
HETATM   46  N14 UNL     1      15.875  11.526  -1.339  1.00  0.00    -0.382 N 
ATOM     47 2H14 UNL     1      15.108  11.650  -0.677  1.00  0.00     0.157 HD
ATOM     48 1H14 UNL     1      15.850  10.761  -2.012  1.00  0.00     0.157 HD
ENDBRANCH  41  46
ENDBRANCH  30  34
ENDBRANCH   8  26
TORSDOF 11
ENDMDL
MODEL 2
REMARK VINA RESULT: -7.663419283      1.940      2.357
REMARK  11 active torsions:
REMARK  status: ('A' for Active; 'I' for Inactive)
REMARK    1  A    between atoms: C2_4  and  C3_5 
REMARK    2  A    between atoms: C4_10  and  C5_11 
REMARK    3  A    between atoms: C5_11  and  O1_12 
REMARK    4  A    between atoms: C5_11  and  C6_14 
REMARK    5  A    between atoms: C6_14  and  O2_15 
REMARK    6  A    between atoms: C6_14  and  C7_17 
REMARK    7  A    between atoms: C7_17  and  O3_18 
REMARK    8  A    between atoms: C9_25  and  C10_26 
REMARK    9  A    between atoms: N9_31  and  C11_32 
REMARK   10  A    between atoms: C12_37  and  N12_38 
REMARK   11  A    between atoms: C13_43  and  N14_44 
ROOT
HETATM    1  N1  UNL     1      14.797  15.549   2.661  1.00  0.00    -0.171 NA
HETATM    2  C1  UNL     1      14.868  14.442   3.011  1.00  0.00     0.191 C 
HETATM    3  N2  UNL     1      14.935  13.102   3.452  1.00  0.00    -0.225 N 
HETATM    4  C2  UNL     1      14.778  12.707   4.715  1.00  0.00     0.112 A 
HETATM    5  C8  UNL     1      14.915  11.341   4.727  1.00  0.00     0.124 A 
HETATM    6  N6  UNL     1      15.153  10.963   3.445  1.00  0.00    -0.346 N 
ATOM      7  H6  UNL     1      15.298  10.003   3.134  1.00  0.00     0.167 HD
HETATM    8  C9  UNL     1      15.167  12.041   2.649  1.00  0.00     0.169 A 
ENDROOT
BRANCH   4   9
HETATM    9  C3  UNL     1      14.512  13.536   5.884  1.00  0.00     0.151 A 
HETATM   10  N3  UNL     1      13.431  14.312   6.061  1.00  0.00    -0.282 N 
HETATM   11  N4  UNL     1      13.496  14.931   7.225  1.00  0.00    -0.285 N 
ATOM     12  H3  UNL     1      12.668  14.408   5.391  1.00  0.00     0.188 HD
HETATM   13  C4  UNL     1      14.635  14.550   7.807  1.00  0.00     0.129 A 
ATOM     14  H4  UNL     1      12.806  15.579   7.606  1.00  0.00     0.188 HD
HETATM   15  N5  UNL     1      15.255  13.696   6.983  1.00  0.00    -0.326 N 
ATOM     16  H5  UNL     1      16.150  13.240   7.166  1.00  0.00     0.169 HD
BRANCH  13  17
HETATM   17  C5  UNL     1      15.094  15.025   9.151  1.00  0.00     0.217 C 
BRANCH  17  18
HETATM   18  O1  UNL     1      14.697  16.343   9.364  1.00  0.00    -0.385 OA
ATOM     19  H1  UNL     1      15.302  16.783   9.949  1.00  0.00     0.210 HD
ENDBRANCH  17  18
BRANCH  17  20
HETATM   20  C6  UNL     1      14.484  14.179  10.254  1.00  0.00     0.177 C 
BRANCH  20  21
HETATM   21  O2  UNL     1      13.919  13.014   9.746  1.00  0.00    -0.390 OA
ATOM     22  H2  UNL     1      13.845  12.344  10.416  1.00  0.00     0.210 HD
ENDBRANCH  20  21
BRANCH  20  23
HETATM   23  C7  UNL     1      15.524  13.761  11.269  1.00  0.00     0.198 C 
BRANCH  23  24
HETATM   24  O3  UNL     1      15.168  14.320  12.489  1.00  0.00    -0.398 OA
ATOM     25  H3  UNL     1      14.981  15.240  12.339  1.00  0.00     0.209 HD
ENDBRANCH  23  24
ENDBRANCH  20  23
ENDBRANCH  17  20
ENDBRANCH  13  17
ENDBRANCH   4   9
BRANCH   8  26
HETATM   26  C10 UNL     1      15.387  12.085   1.209  1.00  0.00     0.183 A 
HETATM   27  N7  UNL     1      14.482  12.181   0.236  1.00  0.00    -0.265 N 
HETATM   28  N8  UNL     1      15.135  12.185  -0.931  1.00  0.00    -0.218 N 
ATOM     29  H7  UNL     1      13.472  12.242   0.360  1.00  0.00     0.190 HD
HETATM   30  N9  UNL     1      16.431  12.093  -0.709  1.00  0.00    -0.158 N 
ATOM     31  H8  UNL     1      14.698  12.250  -1.850  1.00  0.00     0.210 HD
HETATM   32  N15 UNL     1      16.591  12.030   0.597  1.00  0.00    -0.257 N 
ATOM     33  H15 UNL     1      17.489  11.952   1.075  1.00  0.00     0.191 HD
BRANCH  30  34
HETATM   34  C11 UNL     1      17.493  12.061  -1.645  1.00  0.00     0.206 A 
HETATM   35  N10 UNL     1      18.333  13.113  -1.816  1.00  0.00    -0.265 N 
HETATM   36  N11 UNL     1      19.317  13.058  -2.697  1.00  0.00    -0.131 N 
ATOM     37  H10 UNL     1      18.204  13.957  -1.257  1.00  0.00     0.189 HD
HETATM   38  C12 UNL     1      19.557  11.983  -3.471  1.00  0.00     0.692 A 
ATOM     39  H11 UNL     1      19.926  13.870  -2.795  1.00  0.00     0.205 HD
HETATM   40  N13 UNL     1      18.736  10.933  -3.316  1.00  0.00    -0.172 N 
HETATM   41  C13 UNL     1      17.722  10.940  -2.436  1.00  0.00     0.164 A 
ATOM     42  H13 UNL     1      18.887  10.101  -3.887  1.00  0.00     0.186 HD
BRANCH  38  43
HETATM   43  N12 UNL     1      20.535  11.953  -4.333  1.00  0.00    -0.233 N 
ATOM     44 2H12 UNL     1      21.508  12.000  -4.029  1.00  0.00     0.174 HD
ATOM     45 1H12 UNL     1      20.372  11.879  -5.337  1.00  0.00     0.174 HD
ENDBRANCH  38  43
BRANCH  41  46
HETATM   46  N14 UNL     1      16.919   9.945  -2.266  1.00  0.00    -0.382 N 
ATOM     47 2H14 UNL     1      16.012  10.025  -1.805  1.00  0.00     0.157 HD
ATOM     48 1H14 UNL     1      17.234   9.042  -2.621  1.00  0.00     0.157 HD
ENDBRANCH  41  46
ENDBRANCH  30  34
ENDBRANCH   8  26
TORSDOF 11
ENDMDL
MODEL 3
REMARK VINA RESULT: -7.559379848      1.344      1.498
REMARK  11 active torsions:
REMARK  status: ('A' for Active; 'I' for Inactive)
REMARK    1  A    between atoms: C2_4  and  C3_5 
REMARK    2  A    between atoms: C4_10  and  C5_11 
REMARK    3  A    between atoms: C5_11  and  O1_12 
REMARK    4  A    between atoms: C5_11  and  C6_14 
REMARK    5  A    between atoms: C6_14  and  O2_15 
REMARK    6  A    between atoms: C6_14  and  C7_17 
REMARK    7  A    between atoms: C7_17  and  O3_18 
REMARK    8  A    between atoms: C9_25  and  C10_26 
REMARK    9  A    between atoms: N9_31  and  C11_32 
REMARK   10  A    between atoms: C12_37  and  N12_38 
REMARK   11  A    between atoms: C13_43  and  N14_44 
ROOT
HETATM    1  N1  UNL     1      15.483  15.536   3.456  1.00  0.00    -0.171 NA
HETATM    2  C1  UNL     1      15.209  14.432   3.703  1.00  0.00     0.191 C 
HETATM    3  N2  UNL     1      14.862  13.100   4.018  1.00  0.00    -0.225 N 
HETATM    4  C2  UNL     1      14.565  12.660   5.241  1.00  0.00     0.112 A 
HETATM    5  C8  UNL     1      14.286  11.321   5.126  1.00  0.00     0.124 A 
HETATM    6  N6  UNL     1      14.429  11.005   3.814  1.00  0.00    -0.346 N 
ATOM      7  H6  UNL     1      14.287  10.076   3.415  1.00  0.00     0.167 HD
HETATM    8  C9  UNL     1      14.784  12.095   3.121  1.00  0.00     0.169 A 
ENDROOT
BRANCH   4   9
HETATM    9  C3  UNL     1      14.532  13.424   6.482  1.00  0.00     0.151 A 
HETATM   10  N3  UNL     1      15.564  13.588   7.324  1.00  0.00    -0.282 N 
HETATM   11  N4  UNL     1      15.204  14.334   8.352  1.00  0.00    -0.285 N 
ATOM     12  H3  UNL     1      16.495  13.194   7.189  1.00  0.00     0.188 HD
HETATM   13  C4  UNL     1      13.921  14.654   8.171  1.00  0.00     0.129 A 
ATOM     14  H4  UNL     1      15.793  14.611   9.137  1.00  0.00     0.188 HD
HETATM   15  N5  UNL     1      13.512  14.096   7.025  1.00  0.00    -0.326 N 
ATOM     16  H5  UNL     1      12.575  14.171   6.629  1.00  0.00     0.169 HD
BRANCH  13  17
HETATM   17  C5  UNL     1      13.121  15.497   9.116  1.00  0.00     0.217 C 
BRANCH  17  18
HETATM   18  O1  UNL     1      12.184  16.256   8.419  1.00  0.00    -0.385 OA
ATOM     19  H1  UNL     1      12.600  17.007   8.013  1.00  0.00     0.210 HD
ENDBRANCH  17  18
BRANCH  17  20
HETATM   20  C6  UNL     1      12.363  14.624  10.099  1.00  0.00     0.177 C 
BRANCH  20  21
HETATM   21  O2  UNL     1      12.483  13.276   9.780  1.00  0.00    -0.390 OA
ATOM     22  H2  UNL     1      12.112  12.724  10.458  1.00  0.00     0.210 HD
ENDBRANCH  20  21
BRANCH  20  23
HETATM   23  C7  UNL     1      12.889  14.793  11.508  1.00  0.00     0.198 C 
BRANCH  23  24
HETATM   24  O3  UNL     1      14.206  14.353  11.518  1.00  0.00    -0.398 OA
ATOM     25  H3  UNL     1      14.257  13.612  12.112  1.00  0.00     0.209 HD
ENDBRANCH  23  24
ENDBRANCH  20  23
ENDBRANCH  17  20
ENDBRANCH  13  17
ENDBRANCH   4   9
BRANCH   8  26
HETATM   26  C10 UNL     1      15.040  12.198   1.690  1.00  0.00     0.183 A 
HETATM   27  N7  UNL     1      14.159  12.236   0.692  1.00  0.00    -0.265 N 
HETATM   28  N8  UNL     1      14.842  12.333  -0.454  1.00  0.00    -0.218 N 
ATOM     29  H7  UNL     1      13.144  12.198   0.785  1.00  0.00     0.190 HD
HETATM   30  N9  UNL     1      16.134  12.357  -0.194  1.00  0.00    -0.158 N 
ATOM     31  H8  UNL     1      14.427  12.382  -1.384  1.00  0.00     0.210 HD
HETATM   32  N15 UNL     1      16.261  12.274   1.114  1.00  0.00    -0.257 N 
ATOM     33  H15 UNL     1      17.149  12.267   1.618  1.00  0.00     0.191 HD
BRANCH  30  34
HETATM   34  C11 UNL     1      17.220  12.451  -1.097  1.00  0.00     0.206 A 
HETATM   35  N10 UNL     1      18.026  13.542  -1.142  1.00  0.00    -0.265 N 
HETATM   36  N11 UNL     1      19.035  13.604  -1.995  1.00  0.00    -0.131 N 
ATOM     37  H10 UNL     1      17.852  14.323  -0.510  1.00  0.00     0.189 HD
HETATM   38  C12 UNL     1      19.334  12.618  -2.860  1.00  0.00     0.692 A 
ATOM     39  H11 UNL     1      19.616  14.443  -1.997  1.00  0.00     0.205 HD
HETATM   40  N13 UNL     1      18.547  11.530  -2.830  1.00  0.00    -0.172 N 
HETATM   41  C13 UNL     1      17.511  11.419  -1.983  1.00  0.00     0.164 A 
ATOM     42  H13 UNL     1      18.743  10.763  -3.472  1.00  0.00     0.186 HD
BRANCH  38  43
HETATM   43  N12 UNL     1      20.335  12.703  -3.692  1.00  0.00    -0.233 N 
ATOM     44 2H12 UNL     1      21.062  13.408  -3.571  1.00  0.00     0.174 HD
ATOM     45 1H12 UNL     1      20.433  12.075  -4.489  1.00  0.00     0.174 HD
ENDBRANCH  38  43
BRANCH  41  46
HETATM   46  N14 UNL     1      16.740  10.385  -1.932  1.00  0.00    -0.382 N 
ATOM     47 2H14 UNL     1      16.009  10.193  -2.618  1.00  0.00     0.157 HD
ATOM     48 1H14 UNL     1      16.893   9.744  -1.154  1.00  0.00     0.157 HD
ENDBRANCH  41  46
ENDBRANCH  30  34
ENDBRANCH   8  26
TORSDOF 11
ENDMDL
MODEL 4
REMARK VINA RESULT: -7.532252710      1.247      1.730
REMARK  11 active torsions:
REMARK  status: ('A' for Active; 'I' for Inactive)
REMARK    1  A    between atoms: C2_4  and  C3_5 
REMARK    2  A    between atoms: C4_10  and  C5_11 
REMARK    3  A    between atoms: C5_11  and  O1_12 
REMARK    4  A    between atoms: C5_11  and  C6_14 
REMARK    5  A    between atoms: C6_14  and  O2_15 
REMARK    6  A    between atoms: C6_14  and  C7_17 
REMARK    7  A    between atoms: C7_17  and  O3_18 
REMARK    8  A    between atoms: C9_25  and  C10_26 
REMARK    9  A    between atoms: N9_31  and  C11_32 
REMARK   10  A    between atoms: C12_37  and  N12_38 
REMARK   11  A    between atoms: C13_43  and  N14_44 
ROOT
HETATM    1  N1  UNL     1      15.413  15.614   3.611  1.00  0.00    -0.171 NA
HETATM    2  C1  UNL     1      15.161  14.503   3.848  1.00  0.00     0.191 C 
HETATM    3  N2  UNL     1      14.839  13.162   4.152  1.00  0.00    -0.225 N 
HETATM    4  C2  UNL     1      14.555  12.706   5.372  1.00  0.00     0.112 A 
HETATM    5  C8  UNL     1      14.300  11.363   5.246  1.00  0.00     0.124 A 
HETATM    6  N6  UNL     1      14.444  11.061   3.930  1.00  0.00    -0.346 N 
ATOM      7  H6  UNL     1      14.317  10.134   3.523  1.00  0.00     0.167 HD
HETATM    8  C9  UNL     1      14.777  12.164   3.246  1.00  0.00     0.169 A 
ENDROOT
BRANCH   4   9
HETATM    9  C3  UNL     1      14.514  13.457   6.620  1.00  0.00     0.151 A 
HETATM   10  N3  UNL     1      15.551  13.649   7.450  1.00  0.00    -0.282 N 
HETATM   11  N4  UNL     1      15.179  14.373   8.490  1.00  0.00    -0.285 N 
ATOM     12  H3  UNL     1      16.493  13.288   7.299  1.00  0.00     0.188 HD
HETATM   13  C4  UNL     1      13.884  14.651   8.328  1.00  0.00     0.129 A 
ATOM     14  H4  UNL     1      15.770  14.664   9.269  1.00  0.00     0.188 HD
HETATM   15  N5  UNL     1      13.479  14.089   7.182  1.00  0.00    -0.326 N 
ATOM     16  H5  UNL     1      12.534  14.136   6.800  1.00  0.00     0.169 HD
BRANCH  13  17
HETATM   17  C5  UNL     1      13.069  15.458   9.291  1.00  0.00     0.217 C 
BRANCH  17  18
HETATM   18  O1  UNL     1      12.107  16.203   8.612  1.00  0.00    -0.385 OA
ATOM     19  H1  UNL     1      11.404  16.453   9.199  1.00  0.00     0.210 HD
ENDBRANCH  17  18
BRANCH  17  20
HETATM   20  C6  UNL     1      12.340  14.551  10.266  1.00  0.00     0.177 C 
BRANCH  20  21
HETATM   21  O2  UNL     1      12.480  13.212   9.916  1.00  0.00    -0.390 OA
ATOM     22  H2  UNL     1      12.695  13.115   8.995  1.00  0.00     0.210 HD
ENDBRANCH  20  21
BRANCH  20  23
HETATM   23  C7  UNL     1      12.884  14.700  11.670  1.00  0.00     0.198 C 
BRANCH  23  24
HETATM   24  O3  UNL     1      14.217  14.312  11.647  1.00  0.00    -0.398 OA
ATOM     25  H3  UNL     1      14.716  15.024  11.264  1.00  0.00     0.209 HD
ENDBRANCH  23  24
ENDBRANCH  20  23
ENDBRANCH  17  20
ENDBRANCH  13  17
ENDBRANCH   4   9
BRANCH   8  26
HETATM   26  C10 UNL     1      15.025  12.285   1.815  1.00  0.00     0.183 A 
HETATM   27  N7  UNL     1      14.138  12.349   0.823  1.00  0.00    -0.265 N 
HETATM   28  N8  UNL     1      14.815  12.454  -0.325  1.00  0.00    -0.218 N 
ATOM     29  H7  UNL     1      13.124  12.322   0.922  1.00  0.00     0.190 HD
HETATM   30  N9  UNL     1      16.109  12.458  -0.073  1.00  0.00    -0.158 N 
ATOM     31  H8  UNL     1      14.396  12.521  -1.252  1.00  0.00     0.210 HD
HETATM   32  N15 UNL     1      16.243  12.354   1.233  1.00  0.00    -0.257 N 
ATOM     33  H15 UNL     1      17.134  12.329   1.731  1.00  0.00     0.191 HD
BRANCH  30  34
HETATM   34  C11 UNL     1      17.191  12.552  -0.982  1.00  0.00     0.206 A 
HETATM   35  N10 UNL     1      17.482  11.557  -1.858  1.00  0.00    -0.265 N 
HETATM   36  N11 UNL     1      18.499  11.670  -2.697  1.00  0.00    -0.131 N 
ATOM     37  H10 UNL     1      16.911  10.713  -1.870  1.00  0.00     0.189 HD
HETATM   38  C12 UNL     1      19.300  12.750  -2.746  1.00  0.00     0.692 A 
ATOM     39  H11 UNL     1      18.685  10.900  -3.339  1.00  0.00     0.205 HD
HETATM   40  N13 UNL     1      19.027  13.744  -1.886  1.00  0.00    -0.172 N 
HETATM   41  C13 UNL     1      18.007  13.678  -1.015  1.00  0.00     0.164 A 
ATOM     42  H13 UNL     1      19.614  14.577  -1.894  1.00  0.00     0.186 HD
BRANCH  38  43
HETATM   43  N12 UNL     1      20.297  12.838  -3.583  1.00  0.00    -0.233 N 
ATOM     44 2H12 UNL     1      20.209  13.359  -4.455  1.00  0.00     0.174 HD
ATOM     45 1H12 UNL     1      21.198  12.395  -3.403  1.00  0.00     0.174 HD
ENDBRANCH  38  43
BRANCH  41  46
HETATM   46  N14 UNL     1      17.722  14.617  -0.178  1.00  0.00    -0.382 N 
ATOM     47 2H14 UNL     1      17.588  15.592  -0.449  1.00  0.00     0.157 HD
ATOM     48 1H14 UNL     1      17.632  14.342   0.799  1.00  0.00     0.157 HD
ENDBRANCH  41  46
ENDBRANCH  30  34
ENDBRANCH   8  26
TORSDOF 11
ENDMDL
MODEL 5
REMARK VINA RESULT: -7.327090934      1.428      2.061
REMARK  11 active torsions:
REMARK  status: ('A' for Active; 'I' for Inactive)
REMARK    1  A    between atoms: C2_4  and  C3_5 
REMARK    2  A    between atoms: C4_10  and  C5_11 
REMARK    3  A    between atoms: C5_11  and  O1_12 
REMARK    4  A    between atoms: C5_11  and  C6_14 
REMARK    5  A    between atoms: C6_14  and  O2_15 
REMARK    6  A    between atoms: C6_14  and  C7_17 
REMARK    7  A    between atoms: C7_17  and  O3_18 
REMARK    8  A    between atoms: C9_25  and  C10_26 
REMARK    9  A    between atoms: N9_31  and  C11_32 
REMARK   10  A    between atoms: C12_37  and  N12_38 
REMARK   11  A    between atoms: C13_43  and  N14_44 
ROOT
HETATM    1  N1  UNL     1      13.659  15.302   2.964  1.00  0.00    -0.171 NA
HETATM    2  C1  UNL     1      13.994  14.241   3.301  1.00  0.00     0.191 C 
HETATM    3  N2  UNL     1      14.382  12.950   3.725  1.00  0.00    -0.225 N 
HETATM    4  C2  UNL     1      14.276  12.496   4.974  1.00  0.00     0.112 A 
HETATM    5  C8  UNL     1      14.757  11.210   4.972  1.00  0.00     0.124 A 
HETATM    6  N6  UNL     1      15.140  10.939   3.698  1.00  0.00    -0.346 N 
ATOM      7  H6  UNL     1      15.540  10.056   3.381  1.00  0.00     0.167 HD
HETATM    8  C9  UNL     1      14.913  12.006   2.920  1.00  0.00     0.169 A 
ENDROOT
BRANCH   4   9
HETATM    9  C3  UNL     1      13.756  13.198   6.139  1.00  0.00     0.151 A 
HETATM   10  N3  UNL     1      12.577  13.836   6.204  1.00  0.00    -0.282 N 
HETATM   11  N4  UNL     1      12.407  14.367   7.401  1.00  0.00    -0.285 N 
ATOM     12  H3  UNL     1      11.907  13.901   5.437  1.00  0.00     0.188 HD
HETATM   13  C4  UNL     1      13.492  14.068   8.118  1.00  0.00     0.129 A 
ATOM     14  H4  UNL     1      11.600  14.904   7.716  1.00  0.00     0.188 HD
HETATM   15  N5  UNL     1      14.316  13.352   7.343  1.00  0.00    -0.326 N 
ATOM     16  H5  UNL     1      15.225  12.983   7.625  1.00  0.00     0.169 HD
BRANCH  13  17
HETATM   17  C5  UNL     1      13.702  14.484   9.541  1.00  0.00     0.217 C 
BRANCH  17  18
HETATM   18  O1  UNL     1      14.214  15.779   9.600  1.00  0.00    -0.385 OA
ATOM     19  H1  UNL     1      15.079  15.776   9.992  1.00  0.00     0.210 HD
ENDBRANCH  17  18
BRANCH  17  20
HETATM   20  C6  UNL     1      12.387  14.478  10.299  1.00  0.00     0.177 C 
BRANCH  20  21
HETATM   21  O2  UNL     1      11.746  13.248  10.194  1.00  0.00    -0.390 OA
ATOM     22  H2  UNL     1      10.869  13.282  10.558  1.00  0.00     0.210 HD
ENDBRANCH  20  21
BRANCH  20  23
HETATM   23  C7  UNL     1      12.599  14.741  11.774  1.00  0.00     0.198 C 
BRANCH  23  24
HETATM   24  O3  UNL     1      13.890  14.337  12.090  1.00  0.00    -0.398 OA
ATOM     25  H3  UNL     1      14.167  14.833  12.852  1.00  0.00     0.209 HD
ENDBRANCH  23  24
ENDBRANCH  20  23
ENDBRANCH  17  20
ENDBRANCH  13  17
ENDBRANCH   4   9
BRANCH   8  26
HETATM   26  C10 UNL     1      15.178  12.142   1.493  1.00  0.00     0.183 A 
HETATM   27  N7  UNL     1      14.303  12.210   0.492  1.00  0.00    -0.265 N 
HETATM   28  N8  UNL     1      14.993  12.330  -0.648  1.00  0.00    -0.218 N 
ATOM     29  H7  UNL     1      13.287  12.175   0.578  1.00  0.00     0.190 HD
HETATM   30  N9  UNL     1      16.283  12.340  -0.380  1.00  0.00    -0.158 N 
ATOM     31  H8  UNL     1      14.584  12.403  -1.579  1.00  0.00     0.210 HD
HETATM   32  N15 UNL     1      16.403  12.224   0.926  1.00  0.00    -0.257 N 
ATOM     33  H15 UNL     1      17.287  12.201   1.435  1.00  0.00     0.191 HD
BRANCH  30  34
HETATM   34  C11 UNL     1      17.375  12.449  -1.275  1.00  0.00     0.206 A 
HETATM   35  N10 UNL     1      17.724  11.438  -2.111  1.00  0.00    -0.265 N 
HETATM   36  N11 UNL     1      18.748  11.566  -2.937  1.00  0.00    -0.131 N 
ATOM     37  H10 UNL     1      17.189  10.570  -2.102  1.00  0.00     0.189 HD
HETATM   38  C12 UNL     1      19.504  12.677  -3.012  1.00  0.00     0.692 A 
ATOM     39  H11 UNL     1      18.978  10.782  -3.549  1.00  0.00     0.205 HD
HETATM   40  N13 UNL     1      19.174  13.687  -2.192  1.00  0.00    -0.172 N 
HETATM   41  C13 UNL     1      18.143  13.607  -1.335  1.00  0.00     0.164 A 
ATOM     42  H13 UNL     1      19.725  14.544  -2.220  1.00  0.00     0.186 HD
BRANCH  38  43
HETATM   43  N12 UNL     1      20.510  12.778  -3.836  1.00  0.00    -0.233 N 
ATOM     44 2H12 UNL     1      20.534  13.506  -4.551  1.00  0.00     0.174 HD
ATOM     45 1H12 UNL     1      21.307  12.143  -3.801  1.00  0.00     0.174 HD
ENDBRANCH  38  43
BRANCH  41  46
HETATM   46  N14 UNL     1      17.804  14.562  -0.537  1.00  0.00    -0.382 N 
ATOM     47 2H14 UNL     1      18.451  15.011   0.111  1.00  0.00     0.157 HD
ATOM     48 1H14 UNL     1      16.831  14.862  -0.578  1.00  0.00     0.157 HD
ENDBRANCH  41  46
ENDBRANCH  30  34
ENDBRANCH   8  26
TORSDOF 11
ENDMDL
