MODEL 1
REMARK VINA RESULT: -8.039706573      0.000      0.000
REMARK  7 active torsions:
REMARK  status: ('A' for Active; 'I' for Inactive)
REMARK       I    between atoms: C2_2  and  N1_4 
REMARK    1  A    between atoms: N1_4  and  C3_6 
REMARK    2  A    between atoms: C3_6  and  C4_7 
REMARK    3  A    between atoms: C3_6  and  C8_29 
REMARK    4  A    between atoms: N4_12  and  C5_13 
REMARK    5  A    between atoms: C10_36  and  C11_37 
REMARK    6  A    between atoms: C11_37  and  O3_38 
REMARK    7  A    between atoms: C11_37  and  O4_40 
ROOT
HETATM    1  C8  UNL     1      12.697  16.106   8.989  1.00  0.00     0.131 A 
HETATM    2  N10 UNL     1      13.328  15.606  10.047  1.00  0.00    -0.329 N 
ATOM      3  H10 UNL     1      14.344  15.673  10.109  1.00  0.00     0.168 HD
HETATM    4  C9  UNL     1      12.626  15.003  11.051  1.00  0.00     0.114 A 
HETATM    5  N11 UNL     1      13.308  14.534  12.027  1.00  0.00    -0.385 N 
ATOM      6 1H11 UNL     1      12.784  14.084  12.777  1.00  0.00     0.157 HD
ATOM      7 2H11 UNL     1      14.322  14.575  12.135  1.00  0.00     0.157 HD
HETATM    8  C10 UNL     1      11.275  14.948  10.906  1.00  0.00     0.082 A 
HETATM    9  C12 UNL     1      10.652  15.476   9.796  1.00  0.00     0.148 A 
HETATM   10  N12 UNL     1       9.241  15.416   9.649  1.00  0.00    -0.081 NA
HETATM   11  N13 UNL     1      11.366  16.076   8.800  1.00  0.00    -0.221 N 
HETATM   12  C13 UNL     1      10.737  16.612   7.675  1.00  0.00     0.192 C 
HETATM   13  N14 UNL     1      10.200  17.057   6.751  1.00  0.00    -0.171 NA
ENDROOT
BRANCH   1  14
HETATM   14  C3  UNL     1      13.522  16.750   7.931  1.00  0.00     0.223 C 
BRANCH  14  15
HETATM   15  N1  UNL     1      14.625  17.442   8.587  1.00  0.00    -0.343 N 
HETATM   16  C2  UNL     1      15.027  18.737   8.192  1.00  0.00     0.214 C 
HETATM   17  C1  UNL     1      16.154  19.395   8.893  1.00  0.00     0.117 C 
HETATM   18  O1  UNL     1      14.453  19.351   7.256  1.00  0.00    -0.274 OA
ATOM     19  H1  UNL     1      15.119  16.980   9.351  1.00  0.00     0.163 HD
ENDBRANCH  14  15
BRANCH  14  20
HETATM   20  C4  UNL     1      14.032  15.684   7.022  1.00  0.00     0.143 A 
HETATM   21  N2  UNL     1      14.940  14.830   7.528  1.00  0.00    -0.271 N 
HETATM   22  N3  UNL     1      15.403  13.886   6.751  1.00  0.00    -0.218 N 
ATOM     23  H2  UNL     1      15.258  14.916   8.493  1.00  0.00     0.190 HD
HETATM   24  N4  UNL     1      15.027  13.726   5.487  1.00  0.00    -0.050 N 
ATOM     25  H3  UNL     1      16.089  13.237   7.136  1.00  0.00     0.209 HD
HETATM   26  C7  UNL     1      14.119  14.571   4.960  1.00  0.00     0.701 A 
HETATM   27  N8  UNL     1      13.734  14.434   3.722  1.00  0.00    -0.233 N 
HETATM   28  N9  UNL     1      13.636  15.545   5.751  1.00  0.00    -0.175 N 
ATOM     29  H82 UNL     1      14.101  13.695   3.122  1.00  0.00     0.174 HD
ATOM     30  H81 UNL     1      13.047  15.074   3.323  1.00  0.00     0.174 HD
ATOM     31  H9  UNL     1      12.949  16.197   5.372  1.00  0.00     0.185 HD
BRANCH  24  32
HETATM   32  C5  UNL     1      15.578  12.674   4.705  1.00  0.00     0.214 A 
HETATM   33  N5  UNL     1      15.077  11.450   4.451  1.00  0.00    -0.220 N 
HETATM   34  O2  UNL     1      15.903  10.786   3.683  1.00  0.00    -0.153 OA
ATOM     35  H5  UNL     1      14.189  11.094   4.804  1.00  0.00     0.198 HD
HETATM   36  N6  UNL     1      16.945  11.541   3.419  1.00  0.00    -0.222 N 
HETATM   37  C6  UNL     1      16.785  12.728   4.037  1.00  0.00     0.170 A 
ATOM     38  H6  UNL     1      17.743  11.274   2.843  1.00  0.00     0.198 HD
HETATM   39  N7  UNL     1      17.565  13.758   4.045  1.00  0.00    -0.381 N 
ATOM     40  H72 UNL     1      17.443  14.656   4.512  1.00  0.00     0.157 HD
ATOM     41  H71 UNL     1      18.457  13.798   3.551  1.00  0.00     0.157 HD
ENDBRANCH  24  32
ENDBRANCH  14  20
ENDBRANCH   1  14
BRANCH   8  42
HETATM   42  C11 UNL     1      10.425  14.347  11.942  1.00  0.00     0.295 C 
BRANCH  42  43
HETATM   43  O3  UNL     1      10.329  12.977  11.823  1.00  0.00    -0.367 OA
ATOM     44  H3  UNL     1       9.527  12.701  11.396  1.00  0.00     0.213 HD
ENDBRANCH  42  43
BRANCH  42  45
HETATM   45  O4  UNL     1      10.779  14.751  13.225  1.00  0.00    -0.367 OA
ATOM     46  H4  UNL     1      10.296  15.516  13.513  1.00  0.00     0.213 HD
ENDBRANCH  42  45
ENDBRANCH   8  42
TORSDOF 7
ENDMDL
MODEL 2
REMARK VINA RESULT: -7.824826567      0.534      1.043
REMARK  7 active torsions:
REMARK  status: ('A' for Active; 'I' for Inactive)
REMARK       I    between atoms: C2_2  and  N1_4 
REMARK    1  A    between atoms: N1_4  and  C3_6 
REMARK    2  A    between atoms: C3_6  and  C4_7 
REMARK    3  A    between atoms: C3_6  and  C8_29 
REMARK    4  A    between atoms: N4_12  and  C5_13 
REMARK    5  A    between atoms: C10_36  and  C11_37 
REMARK    6  A    between atoms: C11_37  and  O3_38 
REMARK    7  A    between atoms: C11_37  and  O4_40 
ROOT
HETATM    1  C8  UNL     1      12.679  16.191   9.037  1.00  0.00     0.131 A 
HETATM    2  N10 UNL     1      13.312  15.684  10.091  1.00  0.00    -0.329 N 
ATOM      3  H10 UNL     1      14.326  15.773  10.163  1.00  0.00     0.168 HD
HETATM    4  C9  UNL     1      12.616  15.048  11.076  1.00  0.00     0.114 A 
HETATM    5  N11 UNL     1      13.299  14.575  12.049  1.00  0.00    -0.385 N 
ATOM      6 1H11 UNL     1      12.778  14.099  12.786  1.00  0.00     0.157 HD
ATOM      7 2H11 UNL     1      14.311  14.635  12.167  1.00  0.00     0.157 HD
HETATM    8  C10 UNL     1      11.267  14.967  10.919  1.00  0.00     0.082 A 
HETATM    9  C12 UNL     1      10.642  15.502   9.814  1.00  0.00     0.148 A 
HETATM   10  N12 UNL     1       9.234  15.415   9.653  1.00  0.00    -0.081 NA
HETATM   11  N13 UNL     1      11.351  16.136   8.836  1.00  0.00    -0.221 N 
HETATM   12  C13 UNL     1      10.720  16.680   7.716  1.00  0.00     0.192 C 
HETATM   13  N14 UNL     1      10.180  17.132   6.796  1.00  0.00    -0.171 NA
ENDROOT
BRANCH   1  14
HETATM   14  C3  UNL     1      13.499  16.873   7.999  1.00  0.00     0.223 C 
BRANCH  14  15
HETATM   15  N1  UNL     1      14.580  17.578   8.677  1.00  0.00    -0.343 N 
HETATM   16  C2  UNL     1      15.138  18.763   8.150  1.00  0.00     0.214 C 
HETATM   17  C1  UNL     1      16.234  19.439   8.881  1.00  0.00     0.117 C 
HETATM   18  O1  UNL     1      14.729  19.263   7.071  1.00  0.00    -0.274 OA
ATOM     19  H1  UNL     1      14.942  17.206   9.556  1.00  0.00     0.163 HD
ENDBRANCH  14  15
BRANCH  14  20
HETATM   20  C4  UNL     1      14.042  15.836   7.075  1.00  0.00     0.143 A 
HETATM   21  N2  UNL     1      14.887  14.930   7.599  1.00  0.00    -0.271 N 
HETATM   22  N3  UNL     1      15.376  14.010   6.810  1.00  0.00    -0.218 N 
ATOM     23  H2  UNL     1      15.139  14.960   8.587  1.00  0.00     0.190 HD
HETATM   24  N4  UNL     1      15.086  13.923   5.517  1.00  0.00    -0.050 N 
ATOM     25  H3  UNL     1      16.015  13.323   7.209  1.00  0.00     0.209 HD
HETATM   26  C7  UNL     1      14.241  14.820   4.972  1.00  0.00     0.701 A 
HETATM   27  N8  UNL     1      13.940  14.754   3.704  1.00  0.00    -0.233 N 
HETATM   28  N9  UNL     1      13.732  15.770   5.774  1.00  0.00    -0.175 N 
ATOM     29  H82 UNL     1      14.327  14.033   3.095  1.00  0.00     0.174 HD
ATOM     30  H81 UNL     1      13.301  15.434   3.291  1.00  0.00     0.174 HD
ATOM     31  H9  UNL     1      13.091  16.461   5.382  1.00  0.00     0.185 HD
BRANCH  24  32
HETATM   32  C5  UNL     1      15.660  12.892   4.724  1.00  0.00     0.214 A 
HETATM   33  N5  UNL     1      16.789  12.910   3.991  1.00  0.00    -0.220 N 
HETATM   34  O2  UNL     1      16.958  11.749   3.411  1.00  0.00    -0.153 OA
ATOM     35  H5  UNL     1      17.418  13.708   3.902  1.00  0.00     0.198 HD
HETATM   36  N6  UNL     1      15.964  10.956   3.741  1.00  0.00    -0.222 N 
HETATM   37  C6  UNL     1      15.130  11.627   4.559  1.00  0.00     0.170 A 
ATOM     38  H6  UNL     1      15.844   9.992   3.430  1.00  0.00     0.198 HD
HETATM   39  N7  UNL     1      14.035  11.229   5.116  1.00  0.00    -0.381 N 
ATOM     40  H72 UNL     1      13.404  11.737   5.735  1.00  0.00     0.157 HD
ATOM     41  H71 UNL     1      13.643  10.295   4.994  1.00  0.00     0.157 HD
ENDBRANCH  24  32
ENDBRANCH  14  20
ENDBRANCH   1  14
BRANCH   8  42
HETATM   42  C11 UNL     1      10.422  14.327  11.936  1.00  0.00     0.295 C 
BRANCH  42  43
HETATM   43  O3  UNL     1      10.356  12.958  11.790  1.00  0.00    -0.367 OA
ATOM     44  H3  UNL     1       9.880  12.536  12.495  1.00  0.00     0.213 HD
ENDBRANCH  42  43
BRANCH  42  45
HETATM   45  O4  UNL     1      10.757  14.713  13.229  1.00  0.00    -0.367 OA
ATOM     46  H4  UNL     1      10.581  14.034  13.870  1.00  0.00     0.213 HD
ENDBRANCH  42  45
ENDBRANCH   8  42
TORSDOF 7
ENDMDL
MODEL 3
REMARK VINA RESULT: -7.799806192      2.578      5.372
REMARK  7 active torsions:
REMARK  status: ('A' for Active; 'I' for Inactive)
REMARK       I    between atoms: C2_2  and  N1_4 
REMARK    1  A    between atoms: N1_4  and  C3_6 
REMARK    2  A    between atoms: C3_6  and  C4_7 
REMARK    3  A    between atoms: C3_6  and  C8_29 
REMARK    4  A    between atoms: N4_12  and  C5_13 
REMARK    5  A    between atoms: C10_36  and  C11_37 
REMARK    6  A    between atoms: C11_37  and  O3_38 
REMARK    7  A    between atoms: C11_37  and  O4_40 
ROOT
HETATM    1  C8  UNL     1      13.094  14.115   8.237  1.00  0.00     0.131 A 
HETATM    2  N10 UNL     1      11.850  14.181   7.771  1.00  0.00    -0.329 N 
ATOM      3  H10 UNL     1      11.688  14.199   6.764  1.00  0.00     0.168 HD
HETATM    4  C9  UNL     1      10.790  14.227   8.629  1.00  0.00     0.114 A 
HETATM    5  N11 UNL     1       9.627  14.306   8.101  1.00  0.00    -0.385 N 
ATOM      6 1H11 UNL     1       8.834  14.339   8.742  1.00  0.00     0.157 HD
ATOM      7 2H11 UNL     1       9.412  14.327   7.104  1.00  0.00     0.157 HD
HETATM    8  C10 UNL     1      11.076  14.199   9.958  1.00  0.00     0.082 A 
HETATM    9  C12 UNL     1      12.376  14.129  10.409  1.00  0.00     0.148 A 
HETATM   10  N12 UNL     1      12.671  14.101  11.798  1.00  0.00    -0.081 NA
HETATM   11  N13 UNL     1      13.428  14.085   9.539  1.00  0.00    -0.221 N 
HETATM   12  C13 UNL     1      14.745  14.014   9.994  1.00  0.00     0.192 C 
HETATM   13  N14 UNL     1      15.833  13.950  10.387  1.00  0.00    -0.171 NA
ENDROOT
BRANCH   1  14
HETATM   14  C3  UNL     1      14.203  14.068   7.247  1.00  0.00     0.223 C 
BRANCH  14  15
HETATM   15  N1  UNL     1      13.935  12.967   6.330  1.00  0.00    -0.343 N 
HETATM   16  C2  UNL     1      14.951  12.412   5.521  1.00  0.00     0.214 C 
HETATM   17  C1  UNL     1      14.623  11.293   4.607  1.00  0.00     0.117 C 
HETATM   18  O1  UNL     1      16.132  12.842   5.555  1.00  0.00    -0.274 OA
ATOM     19  H1  UNL     1      12.990  12.587   6.271  1.00  0.00     0.163 HD
ENDBRANCH  14  15
BRANCH  14  20
HETATM   20  C4  UNL     1      14.236  15.368   6.518  1.00  0.00     0.143 A 
HETATM   21  N2  UNL     1      13.071  15.821   6.022  1.00  0.00    -0.271 N 
HETATM   22  N3  UNL     1      13.072  16.959   5.379  1.00  0.00    -0.218 N 
ATOM     23  H2  UNL     1      12.208  15.290   6.144  1.00  0.00     0.190 HD
HETATM   24  N4  UNL     1      14.163  17.691   5.187  1.00  0.00    -0.050 N 
ATOM     25  H3  UNL     1      12.188  17.303   5.005  1.00  0.00     0.209 HD
HETATM   26  C7  UNL     1      15.340  17.256   5.676  1.00  0.00     0.701 A 
HETATM   27  N8  UNL     1      16.426  17.959   5.501  1.00  0.00    -0.233 N 
HETATM   28  N9  UNL     1      15.350  16.087   6.339  1.00  0.00    -0.175 N 
ATOM     29  H82 UNL     1      16.418  18.846   4.997  1.00  0.00     0.174 HD
ATOM     30  H81 UNL     1      17.317  17.629   5.871  1.00  0.00     0.174 HD
ATOM     31  H9  UNL     1      16.231  15.738   6.717  1.00  0.00     0.185 HD
BRANCH  24  32
HETATM   32  C5  UNL     1      14.083  18.920   4.475  1.00  0.00     0.214 A 
HETATM   33  N5  UNL     1      14.257  19.156   3.161  1.00  0.00    -0.220 N 
HETATM   34  O2  UNL     1      14.094  20.432   2.916  1.00  0.00    -0.153 OA
ATOM     35  H5  UNL     1      14.482  18.448   2.463  1.00  0.00     0.198 HD
HETATM   36  N6  UNL     1      13.815  21.052   4.040  1.00  0.00    -0.222 N 
HETATM   37  C6  UNL     1      13.798  20.148   5.039  1.00  0.00     0.170 A 
ATOM     38  H6  UNL     1      13.640  22.052   4.140  1.00  0.00     0.198 HD
HETATM   39  N7  UNL     1      13.567  20.324   6.298  1.00  0.00    -0.381 N 
ATOM     40  H72 UNL     1      13.554  19.640   7.053  1.00  0.00     0.157 HD
ATOM     41  H71 UNL     1      13.357  21.232   6.714  1.00  0.00     0.157 HD
ENDBRANCH  24  32
ENDBRANCH  14  20
ENDBRANCH   1  14
BRANCH   8  42
HETATM   42  C11 UNL     1      10.007  14.214  10.965  1.00  0.00     0.295 C 
BRANCH  42  43
HETATM   43  O3  UNL     1       9.891  13.016  11.637  1.00  0.00    -0.367 OA
ATOM     44  H3  UNL     1       9.721  13.130  12.565  1.00  0.00     0.213 HD
ENDBRANCH  42  43
BRANCH  42  45
HETATM   45  O4  UNL     1      10.097  15.305  11.824  1.00  0.00    -0.367 OA
ATOM     46  H4  UNL     1       9.246  15.612  12.113  1.00  0.00     0.213 HD
ENDBRANCH  42  45
ENDBRANCH   8  42
TORSDOF 7
ENDMDL
MODEL 4
REMARK VINA RESULT: -7.741943963      2.413      6.050
REMARK  7 active torsions:
REMARK  status: ('A' for Active; 'I' for Inactive)
REMARK       I    between atoms: C2_2  and  N1_4 
REMARK    1  A    between atoms: N1_4  and  C3_6 
REMARK    2  A    between atoms: C3_6  and  C4_7 
REMARK    3  A    between atoms: C3_6  and  C8_29 
REMARK    4  A    between atoms: N4_12  and  C5_13 
REMARK    5  A    between atoms: C10_36  and  C11_37 
REMARK    6  A    between atoms: C11_37  and  O3_38 
REMARK    7  A    between atoms: C11_37  and  O4_40 
ROOT
HETATM    1  C8  UNL     1      12.954  14.487   7.934  1.00  0.00     0.131 A 
HETATM    2  N10 UNL     1      11.863  14.588   7.181  1.00  0.00    -0.329 N 
ATOM      3  H10 UNL     1      11.950  14.828   6.193  1.00  0.00     0.168 HD
HETATM    4  C9  UNL     1      10.628  14.373   7.720  1.00  0.00     0.114 A 
HETATM    5  N11 UNL     1       9.627  14.504   6.933  1.00  0.00    -0.385 N 
ATOM      6 1H11 UNL     1       8.703  14.343   7.336  1.00  0.00     0.157 HD
ATOM      7 2H11 UNL     1       9.660  14.743   5.942  1.00  0.00     0.157 HD
HETATM    8  C10 UNL     1      10.583  14.055   9.041  1.00  0.00     0.082 A 
HETATM    9  C12 UNL     1      11.733  13.958   9.793  1.00  0.00     0.148 A 
HETATM   10  N12 UNL     1      11.682  13.627  11.174  1.00  0.00    -0.081 NA
HETATM   11  N13 UNL     1      12.962  14.177   9.242  1.00  0.00    -0.221 N 
HETATM   12  C13 UNL     1      14.129  14.079  10.002  1.00  0.00     0.192 C 
HETATM   13  N14 UNL     1      15.088  13.988  10.645  1.00  0.00    -0.171 NA
ENDROOT
BRANCH   1  14
HETATM   14  C3  UNL     1      14.269  14.734   7.283  1.00  0.00     0.223 C 
BRANCH  14  15
HETATM   15  N1  UNL     1      14.111  14.493   5.854  1.00  0.00    -0.343 N 
HETATM   16  C2  UNL     1      14.909  13.551   5.168  1.00  0.00     0.214 C 
HETATM   17  C1  UNL     1      14.706  13.345   3.716  1.00  0.00     0.117 C 
HETATM   18  O1  UNL     1      15.792  12.878   5.760  1.00  0.00    -0.274 OA
ATOM     19  H1  UNL     1      13.406  15.018   5.336  1.00  0.00     0.163 HD
ENDBRANCH  14  15
BRANCH  14  20
HETATM   20  C4  UNL     1      14.660  16.150   7.541  1.00  0.00     0.143 A 
HETATM   21  N2  UNL     1      15.700  16.357   8.368  1.00  0.00    -0.271 N 
HETATM   22  N3  UNL     1      16.064  17.589   8.611  1.00  0.00    -0.218 N 
ATOM     23  H2  UNL     1      16.193  15.573   8.796  1.00  0.00     0.190 HD
HETATM   24  N4  UNL     1      15.460  18.648   8.085  1.00  0.00    -0.050 N 
ATOM     25  H3  UNL     1      16.853  17.745   9.236  1.00  0.00     0.209 HD
HETATM   26  C7  UNL     1      14.416  18.464   7.253  1.00  0.00     0.701 A 
HETATM   27  N8  UNL     1      13.808  19.489   6.723  1.00  0.00    -0.233 N 
HETATM   28  N9  UNL     1      14.034  17.200   6.996  1.00  0.00    -0.175 N 
ATOM     29  H82 UNL     1      14.097  20.447   6.918  1.00  0.00     0.174 HD
ATOM     30  H81 UNL     1      13.017  19.349   6.093  1.00  0.00     0.174 HD
ATOM     31  H9  UNL     1      13.246  17.037   6.370  1.00  0.00     0.185 HD
BRANCH  24  32
HETATM   32  C5  UNL     1      15.915  19.959   8.398  1.00  0.00     0.214 A 
HETATM   33  N5  UNL     1      16.799  20.732   7.740  1.00  0.00    -0.220 N 
HETATM   34  O2  UNL     1      16.937  21.874   8.366  1.00  0.00    -0.153 OA
ATOM     35  H5  UNL     1      17.288  20.469   6.885  1.00  0.00     0.198 HD
HETATM   36  N6  UNL     1      16.163  21.878   9.428  1.00  0.00    -0.222 N 
HETATM   37  C6  UNL     1      15.507  20.703   9.487  1.00  0.00     0.170 A 
ATOM     38  H6  UNL     1      16.074  22.644  10.096  1.00  0.00     0.198 HD
HETATM   39  N7  UNL     1      14.651  20.288  10.361  1.00  0.00    -0.381 N 
ATOM     40  H72 UNL     1      14.154  19.398  10.405  1.00  0.00     0.157 HD
ATOM     41  H71 UNL     1      14.350  20.837  11.166  1.00  0.00     0.157 HD
ENDBRANCH  24  32
ENDBRANCH  14  20
ENDBRANCH   1  14
BRANCH   8  42
HETATM   42  C11 UNL     1       9.306  13.776   9.712  1.00  0.00     0.295 C 
BRANCH  42  43
HETATM   43  O3  UNL     1       8.408  14.816   9.603  1.00  0.00    -0.367 OA
ATOM     44  H3  UNL     1       7.925  14.970  10.406  1.00  0.00     0.213 HD
ENDBRANCH  42  43
BRANCH  42  45
HETATM   45  O4  UNL     1       8.760  12.554   9.333  1.00  0.00    -0.367 OA
ATOM     46  H4  UNL     1       9.423  11.913   9.105  1.00  0.00     0.213 HD
ENDBRANCH  42  45
ENDBRANCH   8  42
TORSDOF 7
ENDMDL
MODEL 5
REMARK VINA RESULT: -7.661116702      2.231      2.714
REMARK  7 active torsions:
REMARK  status: ('A' for Active; 'I' for Inactive)
REMARK       I    between atoms: C2_2  and  N1_4 
REMARK    1  A    between atoms: N1_4  and  C3_6 
REMARK    2  A    between atoms: C3_6  and  C4_7 
REMARK    3  A    between atoms: C3_6  and  C8_29 
REMARK    4  A    between atoms: N4_12  and  C5_13 
REMARK    5  A    between atoms: C10_36  and  C11_37 
REMARK    6  A    between atoms: C11_37  and  O3_38 
REMARK    7  A    between atoms: C11_37  and  O4_40 
ROOT
HETATM    1  C8  UNL     1      11.352  15.063   7.590  1.00  0.00     0.131 A 
HETATM    2  N10 UNL     1      12.408  15.040   8.398  1.00  0.00    -0.329 N 
ATOM      3  H10 UNL     1      13.316  15.352   8.053  1.00  0.00     0.168 HD
HETATM    4  C9  UNL     1      12.285  14.602   9.684  1.00  0.00     0.114 A 
HETATM    5  N11 UNL     1      13.351  14.596  10.393  1.00  0.00    -0.385 N 
ATOM      6 1H11 UNL     1      13.260  14.268  11.355  1.00  0.00     0.157 HD
ATOM      7 2H11 UNL     1      14.280  14.896  10.096  1.00  0.00     0.157 HD
HETATM    8  C10 UNL     1      11.047  14.202  10.080  1.00  0.00     0.082 A 
HETATM    9  C12 UNL     1       9.974  14.238   9.217  1.00  0.00     0.148 A 
HETATM   10  N12 UNL     1       8.682  13.819   9.634  1.00  0.00    -0.081 NA
HETATM   11  N13 UNL     1      10.110  14.679   7.933  1.00  0.00    -0.221 N 
HETATM   12  C13 UNL     1       9.024  14.717   7.057  1.00  0.00     0.192 C 
HETATM   13  N14 UNL     1       8.111  14.748   6.345  1.00  0.00    -0.171 NA
ENDROOT
BRANCH   1  14
HETATM   14  C3  UNL     1      11.555  15.553   6.200  1.00  0.00     0.223 C 
BRANCH  14  15
HETATM   15  N1  UNL     1      11.961  16.951   6.275  1.00  0.00    -0.343 N 
HETATM   16  C2  UNL     1      11.092  17.997   5.894  1.00  0.00     0.214 C 
HETATM   17  C1  UNL     1      11.556  19.401   5.992  1.00  0.00     0.117 C 
HETATM   18  O1  UNL     1       9.929  17.770   5.473  1.00  0.00    -0.274 OA
ATOM     19  H1  UNL     1      12.897  17.180   6.611  1.00  0.00     0.163 HD
ENDBRANCH  14  15
BRANCH  14  20
HETATM   20  C4  UNL     1      12.620  14.726   5.563  1.00  0.00     0.143 A 
HETATM   21  N2  UNL     1      13.529  15.372   4.811  1.00  0.00    -0.271 N 
HETATM   22  N3  UNL     1      14.474  14.670   4.241  1.00  0.00    -0.218 N 
ATOM     23  H2  UNL     1      13.483  16.383   4.688  1.00  0.00     0.190 HD
HETATM   24  N4  UNL     1      14.583  13.352   4.364  1.00  0.00    -0.050 N 
ATOM     25  H3  UNL     1      15.164  15.161   3.673  1.00  0.00     0.209 HD
HETATM   26  C7  UNL     1      13.683  12.686   5.113  1.00  0.00     0.701 A 
HETATM   27  N8  UNL     1      13.770  11.391   5.249  1.00  0.00    -0.233 N 
HETATM   28  N9  UNL     1      12.707  13.398   5.703  1.00  0.00    -0.175 N 
ATOM     29  H82 UNL     1      14.509  10.850   4.800  1.00  0.00     0.174 HD
ATOM     30  H81 UNL     1      13.088  10.886   5.816  1.00  0.00     0.174 HD
ATOM     31  H9  UNL     1      12.015  12.913   6.274  1.00  0.00     0.185 HD
BRANCH  24  32
HETATM   32  C5  UNL     1      15.640  12.659   3.712  1.00  0.00     0.214 A 
HETATM   33  N5  UNL     1      16.876  12.373   4.163  1.00  0.00    -0.220 N 
HETATM   34  O2  UNL     1      17.540  11.717   3.245  1.00  0.00    -0.153 OA
ATOM     35  H5  UNL     1      17.240  12.629   5.080  1.00  0.00     0.198 HD
HETATM   36  N6  UNL     1      16.772  11.560   2.190  1.00  0.00    -0.222 N 
HETATM   37  C6  UNL     1      15.578  12.132   2.437  1.00  0.00     0.170 A 
ATOM     38  H6  UNL     1      17.037  11.084   1.328  1.00  0.00     0.198 HD
HETATM   39  N7  UNL     1      14.535  12.209   1.678  1.00  0.00    -0.381 N 
ATOM     40  H72 UNL     1      13.631  12.641   1.866  1.00  0.00     0.157 HD
ATOM     41  H71 UNL     1      14.489  11.820   0.737  1.00  0.00     0.157 HD
ENDBRANCH  24  32
ENDBRANCH  14  20
ENDBRANCH   1  14
BRANCH   8  42
HETATM   42  C11 UNL     1      10.802  13.740  11.452  1.00  0.00     0.295 C 
BRANCH  42  43
HETATM   43  O3  UNL     1      10.208  14.702  12.240  1.00  0.00    -0.367 OA
ATOM     44  H3  UNL     1      10.830  15.334  12.581  1.00  0.00     0.213 HD
ENDBRANCH  42  43
BRANCH  42  45
HETATM   45  O4  UNL     1      10.130  12.522  11.495  1.00  0.00    -0.367 OA
ATOM     46  H4  UNL     1      10.687  11.790  11.259  1.00  0.00     0.213 HD
ENDBRANCH  42  45
ENDBRANCH   8  42
TORSDOF 7
ENDMDL
