MODEL 1
REMARK VINA RESULT: -9.245333021      0.000      0.000
REMARK  17 active torsions:
REMARK  status: ('A' for Active; 'I' for Inactive)
REMARK    1  A    between atoms: C2_2  and  C3_3 
REMARK       I    between atoms: C3_3  and  N1_5 
REMARK    2  A    between atoms: N1_5  and  C4_7 
REMARK    3  A    between atoms: C4_7  and  C5_8 
REMARK    4  A    between atoms: C5_8  and  C6_9 
REMARK    5  A    between atoms: N2_12  and  C9_13 
REMARK    6  A    between atoms: C9_13  and  O2_14 
REMARK    7  A    between atoms: C9_13  and  C10_16 
REMARK    8  A    between atoms: C10_16  and  C11_17 
REMARK    9  A    between atoms: C10_16  and  N6_25 
REMARK   10  A    between atoms: C11_17  and  C12_18 
REMARK   11  A    between atoms: C12_18  and  C13_19 
REMARK   12  A    between atoms: C13_19  and  N3_20 
REMARK       I    between atoms: N6_25  and  C15_27 
REMARK   13  A    between atoms: C15_27  and  C16_29 
REMARK   14  A    between atoms: C16_29  and  C17_30 
REMARK   15  A    between atoms: C17_30  and  C18_31 
REMARK   16  A    between atoms: C18_31  and  C19_32 
REMARK   17  A    between atoms: C19_32  and  N7_33 
ROOT
HETATM    1  C10 UNL     1       3.271  -1.483  13.055  1.00  0.00     0.082 C 
ENDROOT
BRANCH   1   2
HETATM    2  C9  UNL     1       3.485  -2.732  13.728  1.00  0.00     0.165 C 
BRANCH   2   3
HETATM    3  N2  UNL     1       3.019  -3.363  14.869  1.00  0.00    -0.360 N 
HETATM    4  C8  UNL     1       3.042  -2.730  16.176  1.00  0.00     0.125 C 
HETATM    5  C7  UNL     1       2.637  -3.709  17.289  1.00  0.00     0.024 C 
HETATM    6  C6  UNL     1       3.380  -4.974  16.986  1.00  0.00    -0.010 C 
HETATM    7  C30 UNL     1       2.807  -5.670  15.767  1.00  0.00     0.024 C 
HETATM    8  C29 UNL     1       2.406  -4.693  14.719  1.00  0.00     0.125 C 
BRANCH   6   9
HETATM    9  C5  UNL     1       3.436  -5.880  18.153  1.00  0.00     0.024 C 
BRANCH   9  10
HETATM   10  C4  UNL     1       4.830  -6.054  18.708  1.00  0.00     0.123 C 
BRANCH  10  11
HETATM   11  N1  UNL     1       5.763  -5.441  17.754  1.00  0.00    -0.358 N 
HETATM   12  C3  UNL     1       7.132  -5.711  18.000  1.00  0.00     0.240 C 
HETATM   13  O1  UNL     1       7.515  -6.425  18.981  1.00  0.00    -0.269 OA
ATOM     14  H1  UNL     1       5.449  -4.865  16.974  1.00  0.00     0.162 HD
BRANCH  12  15
HETATM   15  C2  UNL     1       8.177  -5.185  17.145  1.00  0.00     0.064 C 
HETATM   16  C1  UNL     1       9.449  -5.271  17.454  1.00  0.00     0.017 C 
ENDBRANCH  12  15
ENDBRANCH  10  11
ENDBRANCH   9  10
ENDBRANCH   6   9
ENDBRANCH   2   3
BRANCH   2  17
HETATM   17  O2  UNL     1       4.371  -3.498  13.067  1.00  0.00    -0.344 OA
ATOM     18  H2  UNL     1       4.858  -2.993  12.426  1.00  0.00     0.219 HD
ENDBRANCH   2  17
ENDBRANCH   1   2
BRANCH   1  19
HETATM   19  C11 UNL     1       2.310  -0.462  13.406  1.00  0.00     0.009 C 
BRANCH  19  20
HETATM   20  C12 UNL     1       1.060  -0.176  12.723  1.00  0.00     0.049 C 
BRANCH  20  21
HETATM   21  C13 UNL     1       1.082   0.321  11.300  1.00  0.00     0.126 C 
BRANCH  21  22
HETATM   22  N3  UNL     1       2.041   1.426  11.199  1.00  0.00    -0.367 N 
HETATM   23  C14 UNL     1       1.684   2.669  11.273  1.00  0.00     0.196 C 
HETATM   24  N4  UNL     1       2.764   3.620  11.155  1.00  0.00    -0.067 NA
HETATM   25  N5  UNL     1       0.377   3.141  11.453  1.00  0.00    -0.067 NA
ATOM     26  H3  UNL     1       3.028   1.208  11.065  1.00  0.00     0.161 HD
ENDBRANCH  21  22
ENDBRANCH  20  21
ENDBRANCH  19  20
ENDBRANCH   1  19
BRANCH   1  27
HETATM   27  N6  UNL     1       4.512  -0.868  12.568  1.00  0.00    -0.322 N 
HETATM   28  C15 UNL     1       5.426  -0.160  13.375  1.00  0.00     0.250 C 
HETATM   29  O3  UNL     1       5.159  -0.060  14.588  1.00  0.00    -0.270 OA
ATOM     30  H6  UNL     1       4.729  -0.959  11.575  1.00  0.00     0.169 HD
BRANCH  28  31
HETATM   31  C16 UNL     1       6.672   0.463  12.837  1.00  0.00     0.108 C 
HETATM   32  C20 UNL     1       6.966  -0.296  11.563  1.00  0.00     0.041 C 
HETATM   33  C21 UNL     1       8.142   0.166  10.784  1.00  0.00     0.008 C 
HETATM   34  C22 UNL     1       7.927   1.293   9.848  1.00  0.00    -0.010 A 
HETATM   35  C23 UNL     1       6.533   1.789   9.612  1.00  0.00     0.010 A 
HETATM   36  C28 UNL     1       8.355   2.640  10.282  1.00  0.00    -0.004 A 
HETATM   37  C24 UNL     1       6.972   3.180   9.985  1.00  0.00    -0.008 A 
HETATM   38  C25 UNL     1       6.422   3.691  11.311  1.00  0.00     0.029 C 
HETATM   39  C26 UNL     1       7.180   2.862  12.380  1.00  0.00     0.078 C 
HETATM   40  C27 UNL     1       8.506   2.834  11.762  1.00  0.00     0.030 C 
HETATM   41  N8  UNL     1       6.418   1.809  12.711  1.00  0.00    -0.401 N 
ATOM     42  H8  UNL     1       5.449   2.058  12.912  1.00  0.00     0.154 HD
BRANCH  31  43
HETATM   43  C17 UNL     1       7.736   0.078  13.857  1.00  0.00     0.042 C 
BRANCH  43  44
HETATM   44  C18 UNL     1       7.887  -1.421  13.965  1.00  0.00     0.030 C 
BRANCH  44  45
HETATM   45  C19 UNL     1       8.229  -1.842  15.375  1.00  0.00     0.230 C 
BRANCH  45  46
HETATM   46  N7  UNL     1       6.988  -1.925  16.161  1.00  0.00    -0.079 N 
ATOM     47  H73 UNL     1       6.584  -1.008  16.351  1.00  0.00     0.274 HD
ATOM     48  H72 UNL     1       6.213  -2.313  15.624  1.00  0.00     0.274 HD
ATOM     49  H71 UNL     1       7.173  -2.453  17.014  1.00  0.00     0.274 HD
ENDBRANCH  45  46
ENDBRANCH  44  45
ENDBRANCH  43  44
ENDBRANCH  31  43
ENDBRANCH  28  31
ENDBRANCH   1  27
TORSDOF 17
ENDMDL
MODEL 2
REMARK VINA RESULT: -8.983032669      1.278      1.487
REMARK  17 active torsions:
REMARK  status: ('A' for Active; 'I' for Inactive)
REMARK    1  A    between atoms: C2_2  and  C3_3 
REMARK       I    between atoms: C3_3  and  N1_5 
REMARK    2  A    between atoms: N1_5  and  C4_7 
REMARK    3  A    between atoms: C4_7  and  C5_8 
REMARK    4  A    between atoms: C5_8  and  C6_9 
REMARK    5  A    between atoms: N2_12  and  C9_13 
REMARK    6  A    between atoms: C9_13  and  O2_14 
REMARK    7  A    between atoms: C9_13  and  C10_16 
REMARK    8  A    between atoms: C10_16  and  C11_17 
REMARK    9  A    between atoms: C10_16  and  N6_25 
REMARK   10  A    between atoms: C11_17  and  C12_18 
REMARK   11  A    between atoms: C12_18  and  C13_19 
REMARK   12  A    between atoms: C13_19  and  N3_20 
REMARK       I    between atoms: N6_25  and  C15_27 
REMARK   13  A    between atoms: C15_27  and  C16_29 
REMARK   14  A    between atoms: C16_29  and  C17_30 
REMARK   15  A    between atoms: C17_30  and  C18_31 
REMARK   16  A    between atoms: C18_31  and  C19_32 
REMARK   17  A    between atoms: C19_32  and  N7_33 
ROOT
HETATM    1  C10 UNL     1       3.016  -1.362  13.261  1.00  0.00     0.082 C 
ENDROOT
BRANCH   1   2
HETATM    2  C9  UNL     1       3.101  -2.277  14.363  1.00  0.00     0.165 C 
BRANCH   2   3
HETATM    3  N2  UNL     1       3.391  -3.618  14.550  1.00  0.00    -0.360 N 
HETATM    4  C8  UNL     1       2.356  -4.626  14.698  1.00  0.00     0.125 C 
HETATM    5  C7  UNL     1       2.946  -5.996  15.069  1.00  0.00     0.024 C 
HETATM    6  C6  UNL     1       3.961  -5.709  16.134  1.00  0.00    -0.010 C 
HETATM    7  C30 UNL     1       5.180  -5.015  15.559  1.00  0.00     0.024 C 
HETATM    8  C29 UNL     1       4.804  -4.030  14.509  1.00  0.00     0.125 C 
BRANCH   6   9
HETATM    9  C5  UNL     1       4.333  -6.924  16.890  1.00  0.00     0.024 C 
BRANCH   9  10
HETATM   10  C4  UNL     1       5.496  -6.709  17.830  1.00  0.00     0.123 C 
BRANCH  10  11
HETATM   11  N1  UNL     1       6.530  -7.691  17.481  1.00  0.00    -0.358 N 
HETATM   12  C3  UNL     1       7.818  -7.416  18.005  1.00  0.00     0.240 C 
HETATM   13  O1  UNL     1       8.051  -6.388  18.716  1.00  0.00    -0.269 OA
ATOM     14  H1  UNL     1       6.337  -8.511  16.904  1.00  0.00     0.162 HD
BRANCH  12  15
HETATM   15  C2  UNL     1       8.944  -8.293  17.758  1.00  0.00     0.064 C 
HETATM   16  C1  UNL     1       8.801  -9.500  17.263  1.00  0.00     0.017 C 
ENDBRANCH  12  15
ENDBRANCH  10  11
ENDBRANCH   9  10
ENDBRANCH   6   9
ENDBRANCH   2   3
BRANCH   2  17
HETATM   17  O2  UNL     1       2.836  -1.663  15.529  1.00  0.00    -0.344 OA
ATOM     18  H2  UNL     1       3.551  -1.096  15.796  1.00  0.00     0.219 HD
ENDBRANCH   2  17
ENDBRANCH   1   2
BRANCH   1  19
HETATM   19  C11 UNL     1       2.025  -0.327  13.067  1.00  0.00     0.009 C 
BRANCH  19  20
HETATM   20  C12 UNL     1       0.934  -0.340  12.110  1.00  0.00     0.049 C 
BRANCH  20  21
HETATM   21  C13 UNL     1       1.070   0.412  10.810  1.00  0.00     0.126 C 
BRANCH  21  22
HETATM   22  N3  UNL     1       2.115   1.432  10.960  1.00  0.00    -0.367 N 
HETATM   23  C14 UNL     1       1.845   2.681  11.167  1.00  0.00     0.196 C 
HETATM   24  N4  UNL     1       2.999   3.540  11.291  1.00  0.00    -0.067 NA
HETATM   25  N5  UNL     1       0.565   3.241  11.274  1.00  0.00    -0.067 NA
ATOM     26  H3  UNL     1       3.091   1.145  10.900  1.00  0.00     0.161 HD
ENDBRANCH  21  22
ENDBRANCH  20  21
ENDBRANCH  19  20
ENDBRANCH   1  19
BRANCH   1  27
HETATM   27  N6  UNL     1       4.328  -0.907  12.784  1.00  0.00    -0.322 N 
HETATM   28  C15 UNL     1       5.242  -0.157  13.550  1.00  0.00     0.250 C 
HETATM   29  O3  UNL     1       4.912   0.130  14.715  1.00  0.00    -0.270 OA
ATOM     30  H6  UNL     1       4.596  -1.151  11.830  1.00  0.00     0.169 HD
BRANCH  28  31
HETATM   31  C16 UNL     1       6.563   0.299  13.020  1.00  0.00     0.108 C 
HETATM   32  C20 UNL     1       6.766  -0.493  11.748  1.00  0.00     0.041 C 
HETATM   33  C21 UNL     1       7.997  -0.188  10.978  1.00  0.00     0.008 C 
HETATM   34  C22 UNL     1       7.937   0.956  10.040  1.00  0.00    -0.010 A 
HETATM   35  C23 UNL     1       6.621   1.628   9.794  1.00  0.00     0.010 A 
HETATM   36  C28 UNL     1       8.533   2.236  10.477  1.00  0.00    -0.004 A 
HETATM   37  C24 UNL     1       7.234   2.951  10.170  1.00  0.00    -0.008 A 
HETATM   38  C25 UNL     1       6.746   3.530  11.493  1.00  0.00     0.029 C 
HETATM   39  C26 UNL     1       7.382   2.612  12.567  1.00  0.00     0.078 C 
HETATM   40  C27 UNL     1       8.697   2.410  11.959  1.00  0.00     0.030 C 
HETATM   41  N8  UNL     1       6.487   1.666  12.893  1.00  0.00    -0.401 N 
ATOM     42  H8  UNL     1       5.557   2.039  13.086  1.00  0.00     0.154 HD
BRANCH  31  43
HETATM   43  C17 UNL     1       7.560  -0.220  14.049  1.00  0.00     0.042 C 
BRANCH  43  44
HETATM   44  C18 UNL     1       7.569  -1.729  14.103  1.00  0.00     0.030 C 
BRANCH  44  45
HETATM   45  C19 UNL     1       7.891  -2.230  15.491  1.00  0.00     0.230 C 
BRANCH  45  46
HETATM   46  N7  UNL     1       6.802  -1.840  16.402  1.00  0.00    -0.079 N 
ATOM     47  H73 UNL     1       6.294  -2.645  16.768  1.00  0.00     0.274 HD
ATOM     48  H72 UNL     1       7.149  -1.475  17.288  1.00  0.00     0.274 HD
ATOM     49  H71 UNL     1       6.191  -1.180  15.921  1.00  0.00     0.274 HD
ENDBRANCH  45  46
ENDBRANCH  44  45
ENDBRANCH  43  44
ENDBRANCH  31  43
ENDBRANCH  28  31
ENDBRANCH   1  27
TORSDOF 17
ENDMDL
MODEL 3
REMARK VINA RESULT: -8.966362831      0.901      1.087
REMARK  17 active torsions:
REMARK  status: ('A' for Active; 'I' for Inactive)
REMARK    1  A    between atoms: C2_2  and  C3_3 
REMARK       I    between atoms: C3_3  and  N1_5 
REMARK    2  A    between atoms: N1_5  and  C4_7 
REMARK    3  A    between atoms: C4_7  and  C5_8 
REMARK    4  A    between atoms: C5_8  and  C6_9 
REMARK    5  A    between atoms: N2_12  and  C9_13 
REMARK    6  A    between atoms: C9_13  and  O2_14 
REMARK    7  A    between atoms: C9_13  and  C10_16 
REMARK    8  A    between atoms: C10_16  and  C11_17 
REMARK    9  A    between atoms: C10_16  and  N6_25 
REMARK   10  A    between atoms: C11_17  and  C12_18 
REMARK   11  A    between atoms: C12_18  and  C13_19 
REMARK   12  A    between atoms: C13_19  and  N3_20 
REMARK       I    between atoms: N6_25  and  C15_27 
REMARK   13  A    between atoms: C15_27  and  C16_29 
REMARK   14  A    between atoms: C16_29  and  C17_30 
REMARK   15  A    between atoms: C17_30  and  C18_31 
REMARK   16  A    between atoms: C18_31  and  C19_32 
REMARK   17  A    between atoms: C19_32  and  N7_33 
ROOT
HETATM    1  C10 UNL     1       3.468  -0.716  13.945  1.00  0.00     0.082 C 
ENDROOT
BRANCH   1   2
HETATM    2  C9  UNL     1       3.594  -1.504  15.138  1.00  0.00     0.165 C 
BRANCH   2   3
HETATM    3  N2  UNL     1       3.152  -2.734  15.595  1.00  0.00    -0.360 N 
HETATM    4  C8  UNL     1       2.999  -3.033  17.007  1.00  0.00     0.125 C 
HETATM    5  C7  UNL     1       2.669  -4.516  17.242  1.00  0.00     0.024 C 
HETATM    6  C6  UNL     1       3.605  -5.271  16.348  1.00  0.00    -0.010 C 
HETATM    7  C30 UNL     1       3.218  -5.115  14.890  1.00  0.00     0.024 C 
HETATM    8  C29 UNL     1       2.748  -3.735  14.594  1.00  0.00     0.125 C 
BRANCH   6   9
HETATM    9  C5  UNL     1       3.716  -6.694  16.733  1.00  0.00     0.024 C 
BRANCH   9  10
HETATM   10  C4  UNL     1       4.971  -7.006  17.513  1.00  0.00     0.123 C 
BRANCH  10  11
HETATM   11  N1  UNL     1       6.091  -6.355  16.823  1.00  0.00    -0.358 N 
HETATM   12  C3  UNL     1       7.097  -5.834  17.674  1.00  0.00     0.240 C 
HETATM   13  O1  UNL     1       7.021  -5.921  18.941  1.00  0.00    -0.269 OA
ATOM     14  H1  UNL     1       6.143  -6.285  15.806  1.00  0.00     0.162 HD
BRANCH  12  15
HETATM   15  C2  UNL     1       8.272  -5.170  17.147  1.00  0.00     0.064 C 
HETATM   16  C1  UNL     1       9.476  -5.387  17.623  1.00  0.00     0.017 C 
ENDBRANCH  12  15
ENDBRANCH  10  11
ENDBRANCH   9  10
ENDBRANCH   6   9
ENDBRANCH   2   3
BRANCH   2  17
HETATM   17  O2  UNL     1       4.353  -0.880  16.056  1.00  0.00    -0.344 OA
ATOM     18  H2  UNL     1       5.232  -1.239  16.084  1.00  0.00     0.219 HD
ENDBRANCH   2  17
ENDBRANCH   1   2
BRANCH   1  19
HETATM   19  C11 UNL     1       2.292  -0.005  13.496  1.00  0.00     0.009 C 
BRANCH  19  20
HETATM   20  C12 UNL     1       1.349  -0.441  12.482  1.00  0.00     0.049 C 
BRANCH  20  21
HETATM   21  C13 UNL     1       1.386   0.180  11.108  1.00  0.00     0.126 C 
BRANCH  21  22
HETATM   22  N3  UNL     1       2.287   1.339  11.138  1.00  0.00    -0.367 N 
HETATM   23  C14 UNL     1       1.860   2.549  11.306  1.00  0.00     0.196 C 
HETATM   24  N4  UNL     1       2.889   3.562  11.309  1.00  0.00    -0.067 NA
HETATM   25  N5  UNL     1       0.524   2.936  11.480  1.00  0.00    -0.067 NA
ATOM     26  H3  UNL     1       3.288   1.184  11.020  1.00  0.00     0.161 HD
ENDBRANCH  21  22
ENDBRANCH  20  21
ENDBRANCH  19  20
ENDBRANCH   1  19
BRANCH   1  27
HETATM   27  N6  UNL     1       4.679   0.048  13.625  1.00  0.00    -0.322 N 
HETATM   28  C15 UNL     1       5.649  -0.347  12.682  1.00  0.00     0.250 C 
HETATM   29  O3  UNL     1       5.454  -1.417  12.075  1.00  0.00    -0.270 OA
ATOM     30  H6  UNL     1       4.830   0.928  14.120  1.00  0.00     0.169 HD
BRANCH  28  31
HETATM   31  C16 UNL     1       6.877   0.455  12.396  1.00  0.00     0.108 C 
HETATM   32  C20 UNL     1       7.501  -0.208  11.189  1.00  0.00     0.041 C 
HETATM   33  C21 UNL     1       8.726   0.434  10.651  1.00  0.00     0.008 C 
HETATM   34  C22 UNL     1       8.536   1.559   9.708  1.00  0.00    -0.010 A 
HETATM   35  C23 UNL     1       7.156   1.878   9.222  1.00  0.00     0.010 A 
HETATM   36  C28 UNL     1       8.691   2.932  10.234  1.00  0.00    -0.004 A 
HETATM   37  C24 UNL     1       7.325   3.299   9.690  1.00  0.00    -0.008 A 
HETATM   38  C25 UNL     1       6.477   3.680  10.898  1.00  0.00     0.029 C 
HETATM   39  C26 UNL     1       7.131   2.916  12.078  1.00  0.00     0.078 C 
HETATM   40  C27 UNL     1       8.539   3.085  11.719  1.00  0.00     0.030 C 
HETATM   41  N8  UNL     1       6.471   1.760  12.245  1.00  0.00    -0.401 N 
ATOM     42  H8  UNL     1       5.457   1.872  12.263  1.00  0.00     0.154 HD
BRANCH  31  43
HETATM   43  C17 UNL     1       7.777   0.171  13.592  1.00  0.00     0.042 C 
BRANCH  43  44
HETATM   44  C18 UNL     1       7.942  -1.312  13.825  1.00  0.00     0.030 C 
BRANCH  44  45
HETATM   45  C19 UNL     1       8.317  -1.607  15.258  1.00  0.00     0.230 C 
BRANCH  45  46
HETATM   46  N7  UNL     1       7.101  -1.970  16.004  1.00  0.00    -0.079 N 
ATOM     47  H73 UNL     1       6.936  -1.356  16.802  1.00  0.00     0.274 HD
ATOM     48  H72 UNL     1       6.249  -1.759  15.484  1.00  0.00     0.274 HD
ATOM     49  H71 UNL     1       7.160  -2.951  16.273  1.00  0.00     0.274 HD
ENDBRANCH  45  46
ENDBRANCH  44  45
ENDBRANCH  43  44
ENDBRANCH  31  43
ENDBRANCH  28  31
ENDBRANCH   1  27
TORSDOF 17
ENDMDL
MODEL 4
REMARK VINA RESULT: -8.881430082      1.201      1.524
REMARK  17 active torsions:
REMARK  status: ('A' for Active; 'I' for Inactive)
REMARK    1  A    between atoms: C2_2  and  C3_3 
REMARK       I    between atoms: C3_3  and  N1_5 
REMARK    2  A    between atoms: N1_5  and  C4_7 
REMARK    3  A    between atoms: C4_7  and  C5_8 
REMARK    4  A    between atoms: C5_8  and  C6_9 
REMARK    5  A    between atoms: N2_12  and  C9_13 
REMARK    6  A    between atoms: C9_13  and  O2_14 
REMARK    7  A    between atoms: C9_13  and  C10_16 
REMARK    8  A    between atoms: C10_16  and  C11_17 
REMARK    9  A    between atoms: C10_16  and  N6_25 
REMARK   10  A    between atoms: C11_17  and  C12_18 
REMARK   11  A    between atoms: C12_18  and  C13_19 
REMARK   12  A    between atoms: C13_19  and  N3_20 
REMARK       I    between atoms: N6_25  and  C15_27 
REMARK   13  A    between atoms: C15_27  and  C16_29 
REMARK   14  A    between atoms: C16_29  and  C17_30 
REMARK   15  A    between atoms: C17_30  and  C18_31 
REMARK   16  A    between atoms: C18_31  and  C19_32 
REMARK   17  A    between atoms: C19_32  and  N7_33 
ROOT
HETATM    1  C10 UNL     1       3.681  -1.076  14.325  1.00  0.00     0.082 C 
ENDROOT
BRANCH   1   2
HETATM    2  C9  UNL     1       3.896  -1.913  15.471  1.00  0.00     0.165 C 
BRANCH   2   3
HETATM    3  N2  UNL     1       3.788  -3.259  15.781  1.00  0.00    -0.360 N 
HETATM    4  C8  UNL     1       3.044  -3.738  16.932  1.00  0.00     0.125 C 
HETATM    5  C7  UNL     1       3.235  -5.248  17.143  1.00  0.00     0.024 C 
HETATM    6  C6  UNL     1       4.704  -5.485  16.970  1.00  0.00    -0.010 C 
HETATM    7  C30 UNL     1       5.115  -5.342  15.517  1.00  0.00     0.024 C 
HETATM    8  C29 UNL     1       4.387  -4.229  14.849  1.00  0.00     0.125 C 
BRANCH   6   9
HETATM    9  C5  UNL     1       5.128  -6.786  17.530  1.00  0.00     0.024 C 
BRANCH   9  10
HETATM   10  C4  UNL     1       6.385  -6.696  18.362  1.00  0.00     0.123 C 
BRANCH  10  11
HETATM   11  N1  UNL     1       7.507  -7.111  17.510  1.00  0.00    -0.358 N 
HETATM   12  C3  UNL     1       8.372  -6.064  17.107  1.00  0.00     0.240 C 
HETATM   13  O1  UNL     1       8.178  -4.856  17.455  1.00  0.00    -0.269 OA
ATOM     14  H1  UNL     1       7.654  -8.082  17.231  1.00  0.00     0.162 HD
BRANCH  12  15
HETATM   15  C2  UNL     1       9.530  -6.311  16.272  1.00  0.00     0.064 C 
HETATM   16  C1  UNL     1      10.742  -5.955  16.627  1.00  0.00     0.017 C 
ENDBRANCH  12  15
ENDBRANCH  10  11
ENDBRANCH   9  10
ENDBRANCH   6   9
ENDBRANCH   2   3
BRANCH   2  17
HETATM   17  O2  UNL     1       4.324  -1.197  16.525  1.00  0.00    -0.344 OA
ATOM     18  H2  UNL     1       4.052  -1.589  17.347  1.00  0.00     0.219 HD
ENDBRANCH   2  17
ENDBRANCH   1   2
BRANCH   1  19
HETATM   19  C11 UNL     1       2.468  -0.367  13.984  1.00  0.00     0.009 C 
BRANCH  19  20
HETATM   20  C12 UNL     1       1.617  -0.609  12.833  1.00  0.00     0.049 C 
BRANCH  20  21
HETATM   21  C13 UNL     1       1.971  -0.001  11.499  1.00  0.00     0.126 C 
BRANCH  21  22
HETATM   22  N3  UNL     1       1.104   1.160  11.264  1.00  0.00    -0.367 N 
HETATM   23  C14 UNL     1       1.526   2.379  11.371  1.00  0.00     0.196 C 
HETATM   24  N4  UNL     1       0.534   3.392  11.100  1.00  0.00    -0.067 NA
HETATM   25  N5  UNL     1       2.825   2.774  11.717  1.00  0.00    -0.067 NA
ATOM     26  H3  UNL     1       0.131   1.000  11.005  1.00  0.00     0.161 HD
ENDBRANCH  21  22
ENDBRANCH  20  21
ENDBRANCH  19  20
ENDBRANCH   1  19
BRANCH   1  27
HETATM   27  N6  UNL     1       4.858  -0.277  13.964  1.00  0.00    -0.322 N 
HETATM   28  C15 UNL     1       5.663  -0.504  12.830  1.00  0.00     0.250 C 
HETATM   29  O3  UNL     1       5.343  -1.446  12.081  1.00  0.00    -0.270 OA
ATOM     30  H6  UNL     1       5.111   0.499  14.577  1.00  0.00     0.169 HD
BRANCH  28  31
HETATM   31  C16 UNL     1       6.862   0.326  12.506  1.00  0.00     0.108 C 
HETATM   32  C20 UNL     1       7.461  -0.320  11.277  1.00  0.00     0.041 C 
HETATM   33  C21 UNL     1       8.653   0.351  10.701  1.00  0.00     0.008 C 
HETATM   34  C22 UNL     1       8.406   1.473   9.768  1.00  0.00    -0.010 A 
HETATM   35  C23 UNL     1       7.004   1.762   9.328  1.00  0.00     0.010 A 
HETATM   36  C28 UNL     1       8.547   2.848  10.292  1.00  0.00    -0.004 A 
HETATM   37  C24 UNL     1       7.156   3.185   9.795  1.00  0.00    -0.008 A 
HETATM   38  C25 UNL     1       6.340   3.545  11.031  1.00  0.00     0.029 C 
HETATM   39  C26 UNL     1       7.049   2.793  12.186  1.00  0.00     0.078 C 
HETATM   40  C27 UNL     1       8.441   2.995  11.782  1.00  0.00     0.030 C 
HETATM   41  N8  UNL     1       6.422   1.622  12.372  1.00  0.00    -0.401 N 
ATOM     42  H8  UNL     1       5.407   1.711  12.424  1.00  0.00     0.154 HD
BRANCH  31  43
HETATM   43  C17 UNL     1       7.807   0.061  13.671  1.00  0.00     0.042 C 
BRANCH  43  44
HETATM   44  C18 UNL     1       8.009  -1.419  13.899  1.00  0.00     0.030 C 
BRANCH  44  45
HETATM   45  C19 UNL     1       8.474  -1.702  15.308  1.00  0.00     0.230 C 
BRANCH  45  46
HETATM   46  N7  UNL     1       7.332  -2.194  16.096  1.00  0.00    -0.079 N 
ATOM     47  H73 UNL     1       6.446  -1.790  15.793  1.00  0.00     0.274 HD
ATOM     48  H72 UNL     1       7.117  -3.171  15.900  1.00  0.00     0.274 HD
ATOM     49  H71 UNL     1       7.518  -2.028  17.085  1.00  0.00     0.274 HD
ENDBRANCH  45  46
ENDBRANCH  44  45
ENDBRANCH  43  44
ENDBRANCH  31  43
ENDBRANCH  28  31
ENDBRANCH   1  27
TORSDOF 17
ENDMDL
MODEL 5
REMARK VINA RESULT: -8.851809105      2.073      2.586
REMARK  17 active torsions:
REMARK  status: ('A' for Active; 'I' for Inactive)
REMARK    1  A    between atoms: C2_2  and  C3_3 
REMARK       I    between atoms: C3_3  and  N1_5 
REMARK    2  A    between atoms: N1_5  and  C4_7 
REMARK    3  A    between atoms: C4_7  and  C5_8 
REMARK    4  A    between atoms: C5_8  and  C6_9 
REMARK    5  A    between atoms: N2_12  and  C9_13 
REMARK    6  A    between atoms: C9_13  and  O2_14 
REMARK    7  A    between atoms: C9_13  and  C10_16 
REMARK    8  A    between atoms: C10_16  and  C11_17 
REMARK    9  A    between atoms: C10_16  and  N6_25 
REMARK   10  A    between atoms: C11_17  and  C12_18 
REMARK   11  A    between atoms: C12_18  and  C13_19 
REMARK   12  A    between atoms: C13_19  and  N3_20 
REMARK       I    between atoms: N6_25  and  C15_27 
REMARK   13  A    between atoms: C15_27  and  C16_29 
REMARK   14  A    between atoms: C16_29  and  C17_30 
REMARK   15  A    between atoms: C17_30  and  C18_31 
REMARK   16  A    between atoms: C18_31  and  C19_32 
REMARK   17  A    between atoms: C19_32  and  N7_33 
ROOT
HETATM    1  C10 UNL     1       3.222  -1.421  13.788  1.00  0.00     0.082 C 
ENDROOT
BRANCH   1   2
HETATM    2  C9  UNL     1       3.413  -2.384  14.834  1.00  0.00     0.165 C 
BRANCH   2   3
HETATM    3  N2  UNL     1       3.464  -3.764  14.948  1.00  0.00    -0.360 N 
HETATM    4  C8  UNL     1       2.299  -4.607  14.750  1.00  0.00     0.125 C 
HETATM    5  C7  UNL     1       2.591  -6.073  15.109  1.00  0.00     0.024 C 
HETATM    6  C6  UNL     1       3.342  -6.016  16.404  1.00  0.00    -0.010 C 
HETATM    7  C30 UNL     1       4.747  -5.482  16.201  1.00  0.00     0.024 C 
HETATM    8  C29 UNL     1       4.776  -4.385  15.196  1.00  0.00     0.125 C 
BRANCH   6   9
HETATM    9  C5  UNL     1       3.351  -7.320  17.100  1.00  0.00     0.024 C 
BRANCH   9  10
HETATM   10  C4  UNL     1       4.604  -8.124  16.846  1.00  0.00     0.123 C 
BRANCH  10  11
HETATM   11  N1  UNL     1       4.373  -8.928  15.639  1.00  0.00    -0.358 N 
HETATM   12  C3  UNL     1       4.581 -10.321  15.799  1.00  0.00     0.240 C 
HETATM   13  O1  UNL     1       4.948 -10.826  16.907  1.00  0.00    -0.269 OA
ATOM     14  H1  UNL     1       4.084  -8.515  14.752  1.00  0.00     0.162 HD
BRANCH  12  15
HETATM   15  C2  UNL     1       4.387 -11.250  14.705  1.00  0.00     0.064 C 
HETATM   16  C1  UNL     1       3.836 -10.894  13.568  1.00  0.00     0.017 C 
ENDBRANCH  12  15
ENDBRANCH  10  11
ENDBRANCH   9  10
ENDBRANCH   6   9
ENDBRANCH   2   3
BRANCH   2  17
HETATM   17  O2  UNL     1       3.599  -1.785  16.023  1.00  0.00    -0.344 OA
ATOM     18  H2  UNL     1       4.385  -1.251  16.025  1.00  0.00     0.219 HD
ENDBRANCH   2  17
ENDBRANCH   1   2
BRANCH   1  19
HETATM   19  C11 UNL     1       2.254  -0.347  13.764  1.00  0.00     0.009 C 
BRANCH  19  20
HETATM   20  C12 UNL     1       1.034  -0.296  12.977  1.00  0.00     0.049 C 
BRANCH  20  21
HETATM   21  C13 UNL     1       1.091   0.147  11.537  1.00  0.00     0.126 C 
BRANCH  21  22
HETATM   22  N3  UNL     1       2.068   1.236  11.416  1.00  0.00    -0.367 N 
HETATM   23  C14 UNL     1       1.726   2.485  11.428  1.00  0.00     0.196 C 
HETATM   24  N4  UNL     1       2.821   3.416  11.299  1.00  0.00    -0.067 NA
HETATM   25  N5  UNL     1       0.422   2.981  11.554  1.00  0.00    -0.067 NA
ATOM     26  H3  UNL     1       3.055   0.999  11.317  1.00  0.00     0.161 HD
ENDBRANCH  21  22
ENDBRANCH  20  21
ENDBRANCH  19  20
ENDBRANCH   1  19
BRANCH   1  27
HETATM   27  N6  UNL     1       4.478  -0.989  13.163  1.00  0.00    -0.322 N 
HETATM   28  C15 UNL     1       5.432  -0.153  13.778  1.00  0.00     0.250 C 
HETATM   29  O3  UNL     1       5.190   0.236  14.936  1.00  0.00    -0.270 OA
ATOM     30  H6  UNL     1       4.674  -1.316  12.217  1.00  0.00     0.169 HD
BRANCH  28  31
HETATM   31  C16 UNL     1       6.693   0.276  13.100  1.00  0.00     0.108 C 
HETATM   32  C20 UNL     1       6.709  -0.486  11.794  1.00  0.00     0.041 C 
HETATM   33  C21 UNL     1       7.847  -0.199  10.885  1.00  0.00     0.008 C 
HETATM   34  C22 UNL     1       7.712   0.974   9.991  1.00  0.00    -0.010 A 
HETATM   35  C23 UNL     1       6.401   1.695   9.926  1.00  0.00     0.010 A 
HETATM   36  C28 UNL     1       8.403   2.221  10.382  1.00  0.00    -0.004 A 
HETATM   37  C24 UNL     1       7.101   2.986  10.256  1.00  0.00    -0.008 A 
HETATM   38  C25 UNL     1       6.800   3.542  11.643  1.00  0.00     0.029 C 
HETATM   39  C26 UNL     1       7.531   2.572  12.607  1.00  0.00     0.078 C 
HETATM   40  C27 UNL     1       8.753   2.347  11.835  1.00  0.00     0.030 C 
HETATM   41  N8  UNL     1       6.650   1.647  13.017  1.00  0.00    -0.401 N 
ATOM     42  H8  UNL     1       5.765   2.044  13.333  1.00  0.00     0.154 HD
BRANCH  31  43
HETATM   43  C17 UNL     1       7.790  -0.305  13.984  1.00  0.00     0.042 C 
BRANCH  43  44
HETATM   44  C18 UNL     1       7.642  -1.800  14.146  1.00  0.00     0.030 C 
BRANCH  44  45
HETATM   45  C19 UNL     1       7.987  -2.240  15.549  1.00  0.00     0.230 C 
BRANCH  45  46
HETATM   46  N7  UNL     1       6.845  -1.952  16.432  1.00  0.00    -0.079 N 
ATOM     47  H73 UNL     1       6.640  -0.954  16.491  1.00  0.00     0.274 HD
ATOM     48  H72 UNL     1       5.958  -2.255  16.032  1.00  0.00     0.274 HD
ATOM     49  H71 UNL     1       7.023  -2.367  17.346  1.00  0.00     0.274 HD
ENDBRANCH  45  46
ENDBRANCH  44  45
ENDBRANCH  43  44
ENDBRANCH  31  43
ENDBRANCH  28  31
ENDBRANCH   1  27
TORSDOF 17
ENDMDL
