MODEL 1
REMARK VINA RESULT: -8.732690034      0.000      0.000
REMARK  16 active torsions:
REMARK  status: ('A' for Active; 'I' for Inactive)
REMARK    1  A    between atoms: C5_5  and  C6_6 
REMARK    2  A    between atoms: C6_6  and  N1_7 
REMARK       I    between atoms: N1_7  and  C7_9 
REMARK    3  A    between atoms: C7_9  and  C8_11 
REMARK    4  A    between atoms: C10_13  and  N2_14 
REMARK       I    between atoms: N2_14  and  C11_16 
REMARK    5  A    between atoms: N4_18  and  C12_20 
REMARK    6  A    between atoms: C12_20  and  C13_21 
REMARK    7  A    between atoms: C13_21  and  C14_22 
REMARK    8  A    between atoms: C14_22  and  C15_23 
REMARK    9  A    between atoms: C15_23  and  N5_24 
REMARK   10  A    between atoms: N5_24  and  C16_26 
REMARK   11  A    between atoms: C16_26  and  C17_27 
REMARK   12  A    between atoms: C17_27  and  C18_28 
REMARK   13  A    between atoms: C18_28  and  N6_29 
REMARK   14  A    between atoms: C22_38  and  C23_39 
REMARK   15  A    between atoms: C23_39  and  C24_40 
REMARK   16  A    between atoms: C24_40  and  N10_41 
ROOT
HETATM    1  C8  UNL     1       5.871  -2.094  14.400  1.00  0.00     0.043 A 
HETATM    2  C9  UNL     1       5.904  -1.185  13.345  1.00  0.00     0.066 A 
HETATM    3  C10 UNL     1       7.080  -0.567  12.978  1.00  0.00     0.108 A 
HETATM    4  N9  UNL     1       8.190  -0.872  13.672  1.00  0.00    -0.346 N 
ATOM      5  H9  UNL     1       9.070  -0.426  13.416  1.00  0.00     0.167 HD
HETATM    6  C20 UNL     1       8.174  -1.761  14.709  1.00  0.00     0.014 A 
HETATM    7  C21 UNL     1       9.433  -2.055  15.437  1.00  0.00     0.068 C 
HETATM    8  C22 UNL     1       7.017  -2.398  15.104  1.00  0.00    -0.018 A 
ENDROOT
BRANCH   3   9
HETATM    9  N2  UNL     1       7.038   0.259  11.990  1.00  0.00    -0.317 N 
HETATM   10  C11 UNL     1       8.148   0.959  11.478  1.00  0.00     0.189 C 
HETATM   11  N3  UNL     1       9.230   0.228  10.922  1.00  0.00    -0.063 NA
HETATM   12  N4  UNL     1       8.178   2.230  11.503  1.00  0.00    -0.364 N 
ATOM     13  H4  UNL     1       8.985   2.729  11.131  1.00  0.00     0.162 HD
ATOM     14  H2  UNL     1       6.133   0.418  11.547  1.00  0.00     0.170 HD
BRANCH  12  15
HETATM   15  C12 UNL     1       7.065   2.967  12.062  1.00  0.00     0.122 C 
BRANCH  15  16
HETATM   16  C13 UNL     1       6.376   3.635  10.897  1.00  0.00     0.021 C 
BRANCH  16  17
HETATM   17  C14 UNL     1       5.136   2.958  10.428  1.00  0.00     0.021 C 
BRANCH  17  18
HETATM   18  C15 UNL     1       3.931   3.145  11.291  1.00  0.00     0.113 C 
BRANCH  18  19
HETATM   19  N5  UNL     1       3.488   1.979  11.980  1.00  0.00    -0.421 N 
ATOM     20  H5  UNL     1       3.162   2.013  12.946  1.00  0.00     0.153 HD
BRANCH  19  21
HETATM   21  C16 UNL     1       3.528   0.760  11.237  1.00  0.00     0.115 C 
BRANCH  21  22
HETATM   22  C17 UNL     1       2.508  -0.270  11.702  1.00  0.00     0.039 C 
BRANCH  22  23
HETATM   23  C18 UNL     1       1.413   0.522  12.433  1.00  0.00     0.123 C 
BRANCH  23  24
HETATM   24  N6  UNL     1       0.319   0.678  11.495  1.00  0.00    -0.367 N 
HETATM   25  C19 UNL     1      -0.132   1.824  11.189  1.00  0.00     0.196 C 
HETATM   26  N7  UNL     1       0.424   2.985  11.759  1.00  0.00    -0.067 NA
HETATM   27  N8  UNL     1      -1.204   1.926  10.264  1.00  0.00    -0.067 NA
ATOM     28  H6  UNL     1      -0.098  -0.151  11.072  1.00  0.00     0.161 HD
ENDBRANCH  23  24
ENDBRANCH  22  23
ENDBRANCH  21  22
ENDBRANCH  19  21
ENDBRANCH  18  19
ENDBRANCH  17  18
ENDBRANCH  16  17
ENDBRANCH  15  16
ENDBRANCH  12  15
ENDBRANCH   3   9
BRANCH   1  29
HETATM   29  C7  UNL     1       4.580  -2.689  14.685  1.00  0.00     0.252 C 
HETATM   30  N1  UNL     1       4.069  -2.585  16.006  1.00  0.00    -0.353 N 
ATOM     31  H1  UNL     1       4.639  -2.101  16.699  1.00  0.00     0.163 HD
HETATM   32  O1  UNL     1       3.891  -3.294  13.809  1.00  0.00    -0.268 OA
BRANCH  30  33
HETATM   33  C6  UNL     1       2.802  -3.119  16.431  1.00  0.00     0.161 C 
BRANCH  33  34
HETATM   34  C5  UNL     1       2.860  -4.570  16.700  1.00  0.00    -0.041 A 
HETATM   35  C4  UNL     1       3.384  -5.052  17.873  1.00  0.00     0.009 A 
HETATM   36  C3  UNL     1       3.447  -6.417  18.128  1.00  0.00     0.007 A 
HETATM   37  C2  UNL     1       2.983  -7.315  17.208  1.00  0.00    -0.062 A 
HETATM   38  C1  UNL     1       3.040  -8.796  17.459  1.00  0.00     0.048 C 
HETATM   39  C30 UNL     1       2.452  -6.851  16.021  1.00  0.00     0.007 A 
HETATM   40  C29 UNL     1       2.396  -5.485  15.781  1.00  0.00     0.009 A 
ENDBRANCH  33  34
ENDBRANCH  30  33
ENDBRANCH   1  29
BRANCH   8  41
HETATM   41  C23 UNL     1       7.020  -3.348  16.216  1.00  0.00     0.061 C 
BRANCH  41  42
HETATM   42  C24 UNL     1       7.038  -4.795  15.768  1.00  0.00     0.130 C 
BRANCH  42  43
HETATM   43  N10 UNL     1       8.285  -5.377  16.205  1.00  0.00    -0.352 N 
HETATM   44  C25 UNL     1       8.543  -5.808  17.563  1.00  0.00     0.126 C 
HETATM   45  C26 UNL     1       9.984  -5.306  17.729  1.00  0.00     0.029 C 
HETATM   46  C27 UNL     1      10.607  -5.862  16.451  1.00  0.00     0.104 C 
HETATM   47  C28 UNL     1       9.477  -5.656  15.486  1.00  0.00     0.219 C 
HETATM   48  O2  UNL     1       9.541  -5.715  14.220  1.00  0.00    -0.273 OA
ENDBRANCH  42  43
ENDBRANCH  41  42
ENDBRANCH   8  41
TORSDOF 16
ENDMDL
MODEL 2
REMARK VINA RESULT: -8.728968196      0.992      1.844
REMARK  16 active torsions:
REMARK  status: ('A' for Active; 'I' for Inactive)
REMARK    1  A    between atoms: C5_5  and  C6_6 
REMARK    2  A    between atoms: C6_6  and  N1_7 
REMARK       I    between atoms: N1_7  and  C7_9 
REMARK    3  A    between atoms: C7_9  and  C8_11 
REMARK    4  A    between atoms: C10_13  and  N2_14 
REMARK       I    between atoms: N2_14  and  C11_16 
REMARK    5  A    between atoms: N4_18  and  C12_20 
REMARK    6  A    between atoms: C12_20  and  C13_21 
REMARK    7  A    between atoms: C13_21  and  C14_22 
REMARK    8  A    between atoms: C14_22  and  C15_23 
REMARK    9  A    between atoms: C15_23  and  N5_24 
REMARK   10  A    between atoms: N5_24  and  C16_26 
REMARK   11  A    between atoms: C16_26  and  C17_27 
REMARK   12  A    between atoms: C17_27  and  C18_28 
REMARK   13  A    between atoms: C18_28  and  N6_29 
REMARK   14  A    between atoms: C22_38  and  C23_39 
REMARK   15  A    between atoms: C23_39  and  C24_40 
REMARK   16  A    between atoms: C24_40  and  N10_41 
ROOT
HETATM    1  C8  UNL     1       5.870  -2.168  14.286  1.00  0.00     0.043 A 
HETATM    2  C9  UNL     1       5.927  -1.254  13.236  1.00  0.00     0.066 A 
HETATM    3  C10 UNL     1       7.103  -0.607  12.922  1.00  0.00     0.108 A 
HETATM    4  N9  UNL     1       8.189  -0.888  13.663  1.00  0.00    -0.346 N 
ATOM      5  H9  UNL     1       9.068  -0.421  13.447  1.00  0.00     0.167 HD
HETATM    6  C20 UNL     1       8.149  -1.782  14.696  1.00  0.00     0.014 A 
HETATM    7  C21 UNL     1       9.381  -2.049  15.477  1.00  0.00     0.068 C 
HETATM    8  C22 UNL     1       6.991  -2.447  15.038  1.00  0.00    -0.018 A 
ENDROOT
BRANCH   3   9
HETATM    9  N2  UNL     1       7.084   0.222  11.936  1.00  0.00    -0.317 N 
HETATM   10  C11 UNL     1       7.309   1.608  12.045  1.00  0.00     0.189 C 
HETATM   11  N3  UNL     1       8.567   2.070  12.512  1.00  0.00    -0.063 NA
HETATM   12  N4  UNL     1       6.400   2.437  11.722  1.00  0.00    -0.364 N 
ATOM     13  H4  UNL     1       6.571   3.440  11.804  1.00  0.00     0.162 HD
ATOM     14  H2  UNL     1       6.892  -0.154  11.008  1.00  0.00     0.170 HD
BRANCH  12  15
HETATM   15  C12 UNL     1       5.125   1.958  11.237  1.00  0.00     0.122 C 
BRANCH  15  16
HETATM   16  C13 UNL     1       4.365   3.176  10.773  1.00  0.00     0.021 C 
BRANCH  16  17
HETATM   17  C14 UNL     1       2.901   3.142  11.036  1.00  0.00     0.021 C 
BRANCH  17  18
HETATM   18  C15 UNL     1       2.040   3.746   9.975  1.00  0.00     0.113 C 
BRANCH  18  19
HETATM   19  N5  UNL     1       0.636   3.642  10.196  1.00  0.00    -0.421 N 
ATOM     20  H5  UNL     1       0.077   4.436  10.507  1.00  0.00     0.153 HD
BRANCH  19  21
HETATM   21  C16 UNL     1       0.059   2.358   9.955  1.00  0.00     0.115 C 
BRANCH  21  22
HETATM   22  C17 UNL     1      -0.535   1.714  11.200  1.00  0.00     0.039 C 
BRANCH  22  23
HETATM   23  C18 UNL     1       0.157   0.350  11.339  1.00  0.00     0.123 C 
BRANCH  23  24
HETATM   24  N6  UNL     1       0.871   0.374  12.600  1.00  0.00    -0.367 N 
HETATM   25  C19 UNL     1       2.038  -0.111  12.709  1.00  0.00     0.196 C 
HETATM   26  N7  UNL     1       2.676  -0.691  11.597  1.00  0.00    -0.067 NA
HETATM   27  N8  UNL     1       2.698  -0.063  13.965  1.00  0.00    -0.067 NA
ATOM     28  H6  UNL     1       0.425   0.789  13.419  1.00  0.00     0.161 HD
ENDBRANCH  23  24
ENDBRANCH  22  23
ENDBRANCH  21  22
ENDBRANCH  19  21
ENDBRANCH  18  19
ENDBRANCH  17  18
ENDBRANCH  16  17
ENDBRANCH  15  16
ENDBRANCH  12  15
ENDBRANCH   3   9
BRANCH   1  29
HETATM   29  C7  UNL     1       4.582  -2.794  14.513  1.00  0.00     0.252 C 
HETATM   30  N1  UNL     1       3.971  -2.632  15.784  1.00  0.00    -0.353 N 
ATOM     31  H1  UNL     1       4.470  -2.085  16.485  1.00  0.00     0.163 HD
HETATM   32  O1  UNL     1       3.982  -3.475  13.628  1.00  0.00    -0.268 OA
BRANCH  30  33
HETATM   33  C6  UNL     1       2.694  -3.187  16.148  1.00  0.00     0.161 C 
BRANCH  33  34
HETATM   34  C5  UNL     1       2.785  -4.610  16.537  1.00  0.00    -0.041 A 
HETATM   35  C4  UNL     1       3.212  -4.975  17.788  1.00  0.00     0.009 A 
HETATM   36  C3  UNL     1       3.307  -6.312  18.156  1.00  0.00     0.007 A 
HETATM   37  C2  UNL     1       2.972  -7.299  17.271  1.00  0.00    -0.062 A 
HETATM   38  C1  UNL     1       3.065  -8.753  17.643  1.00  0.00     0.048 C 
HETATM   39  C30 UNL     1       2.540  -6.953  16.007  1.00  0.00     0.007 A 
HETATM   40  C29 UNL     1       2.451  -5.613  15.654  1.00  0.00     0.009 A 
ENDBRANCH  33  34
ENDBRANCH  30  33
ENDBRANCH   1  29
BRANCH   8  41
HETATM   41  C23 UNL     1       6.968  -3.402  16.146  1.00  0.00     0.061 C 
BRANCH  41  42
HETATM   42  C24 UNL     1       7.023  -4.846  15.694  1.00  0.00     0.130 C 
BRANCH  42  43
HETATM   43  N10 UNL     1       8.277  -5.403  16.145  1.00  0.00    -0.352 N 
HETATM   44  C25 UNL     1       8.523  -5.844  17.502  1.00  0.00     0.126 C 
HETATM   45  C26 UNL     1       9.948  -5.308  17.698  1.00  0.00     0.029 C 
HETATM   46  C27 UNL     1      10.605  -5.834  16.424  1.00  0.00     0.104 C 
HETATM   47  C28 UNL     1       9.487  -5.644  15.443  1.00  0.00     0.219 C 
HETATM   48  O2  UNL     1       9.572  -5.686  14.177  1.00  0.00    -0.273 OA
ENDBRANCH  42  43
ENDBRANCH  41  42
ENDBRANCH   8  41
TORSDOF 16
ENDMDL
MODEL 3
REMARK VINA RESULT: -8.717112221      1.382      2.202
REMARK  16 active torsions:
REMARK  status: ('A' for Active; 'I' for Inactive)
REMARK    1  A    between atoms: C5_5  and  C6_6 
REMARK    2  A    between atoms: C6_6  and  N1_7 
REMARK       I    between atoms: N1_7  and  C7_9 
REMARK    3  A    between atoms: C7_9  and  C8_11 
REMARK    4  A    between atoms: C10_13  and  N2_14 
REMARK       I    between atoms: N2_14  and  C11_16 
REMARK    5  A    between atoms: N4_18  and  C12_20 
REMARK    6  A    between atoms: C12_20  and  C13_21 
REMARK    7  A    between atoms: C13_21  and  C14_22 
REMARK    8  A    between atoms: C14_22  and  C15_23 
REMARK    9  A    between atoms: C15_23  and  N5_24 
REMARK   10  A    between atoms: N5_24  and  C16_26 
REMARK   11  A    between atoms: C16_26  and  C17_27 
REMARK   12  A    between atoms: C17_27  and  C18_28 
REMARK   13  A    between atoms: C18_28  and  N6_29 
REMARK   14  A    between atoms: C22_38  and  C23_39 
REMARK   15  A    between atoms: C23_39  and  C24_40 
REMARK   16  A    between atoms: C24_40  and  N10_41 
ROOT
HETATM    1  C8  UNL     1       5.746  -2.211  14.425  1.00  0.00     0.043 A 
HETATM    2  C9  UNL     1       5.736  -1.312  13.362  1.00  0.00     0.066 A 
HETATM    3  C10 UNL     1       6.886  -0.659  12.975  1.00  0.00     0.108 A 
HETATM    4  N9  UNL     1       8.014  -0.919  13.658  1.00  0.00    -0.346 N 
ATOM      5  H9  UNL     1       8.875  -0.447  13.387  1.00  0.00     0.167 HD
HETATM    6  C20 UNL     1       8.040  -1.798  14.703  1.00  0.00     0.014 A 
HETATM    7  C21 UNL     1       9.316  -2.043  15.419  1.00  0.00     0.068 C 
HETATM    8  C22 UNL     1       6.909  -2.470  15.119  1.00  0.00    -0.018 A 
ENDROOT
BRANCH   3   9
HETATM    9  N2  UNL     1       6.804   0.156  11.980  1.00  0.00    -0.317 N 
HETATM   10  C11 UNL     1       6.664   1.553  12.093  1.00  0.00     0.189 C 
HETATM   11  N3  UNL     1       7.691   2.303  12.724  1.00  0.00    -0.063 NA
HETATM   12  N4  UNL     1       5.635   2.138  11.628  1.00  0.00    -0.364 N 
ATOM     13  H4  UNL     1       5.541   3.151  11.714  1.00  0.00     0.162 HD
ATOM     14  H2  UNL     1       6.844  -0.241  11.041  1.00  0.00     0.170 HD
BRANCH  12  15
HETATM   15  C12 UNL     1       4.598   1.368  10.977  1.00  0.00     0.122 C 
BRANCH  15  16
HETATM   16  C13 UNL     1       3.463   1.269  11.966  1.00  0.00     0.021 C 
BRANCH  16  17
HETATM   17  C14 UNL     1       2.599   0.066  11.813  1.00  0.00     0.021 C 
BRANCH  17  18
HETATM   18  C15 UNL     1       1.428  -0.009  12.738  1.00  0.00     0.113 C 
BRANCH  18  19
HETATM   19  N5  UNL     1       0.157   0.213  12.133  1.00  0.00    -0.421 N 
ATOM     20  H5  UNL     1      -0.446  -0.557  11.845  1.00  0.00     0.153 HD
BRANCH  19  21
HETATM   21  C16 UNL     1      -0.220   1.579  11.955  1.00  0.00     0.115 C 
BRANCH  21  22
HETATM   22  C17 UNL     1      -0.481   1.953  10.503  1.00  0.00     0.039 C 
BRANCH  22  23
HETATM   23  C18 UNL     1       0.661   2.897  10.100  1.00  0.00     0.123 C 
BRANCH  23  24
HETATM   24  N6  UNL     1       1.013   2.563   8.734  1.00  0.00    -0.367 N 
HETATM   25  C19 UNL     1       1.349   3.458   7.899  1.00  0.00     0.196 C 
HETATM   26  N7  UNL     1       1.387   4.812   8.282  1.00  0.00    -0.067 NA
HETATM   27  N8  UNL     1       1.686   3.081   6.572  1.00  0.00    -0.067 NA
ATOM     28  H6  UNL     1       0.991   1.587   8.437  1.00  0.00     0.161 HD
ENDBRANCH  23  24
ENDBRANCH  22  23
ENDBRANCH  21  22
ENDBRANCH  19  21
ENDBRANCH  18  19
ENDBRANCH  17  18
ENDBRANCH  16  17
ENDBRANCH  15  16
ENDBRANCH  12  15
ENDBRANCH   3   9
BRANCH   1  29
HETATM   29  C7  UNL     1       4.479  -2.846  14.732  1.00  0.00     0.252 C 
HETATM   30  N1  UNL     1       3.976  -2.738  16.055  1.00  0.00    -0.353 N 
ATOM     31  H1  UNL     1       4.534  -2.222  16.736  1.00  0.00     0.163 HD
HETATM   32  O1  UNL     1       3.804  -3.489  13.873  1.00  0.00    -0.268 OA
BRANCH  30  33
HETATM   33  C6  UNL     1       2.731  -3.308  16.501  1.00  0.00     0.161 C 
BRANCH  33  34
HETATM   34  C5  UNL     1       2.837  -4.756  16.772  1.00  0.00    -0.041 A 
HETATM   35  C4  UNL     1       3.387  -5.219  17.941  1.00  0.00     0.009 A 
HETATM   36  C3  UNL     1       3.495  -6.581  18.197  1.00  0.00     0.007 A 
HETATM   37  C2  UNL     1       3.050  -7.494  17.283  1.00  0.00    -0.062 A 
HETATM   38  C1  UNL     1       3.155  -8.973  17.536  1.00  0.00     0.048 C 
HETATM   39  C30 UNL     1       2.494  -7.050  16.101  1.00  0.00     0.007 A 
HETATM   40  C29 UNL     1       2.393  -5.687  15.859  1.00  0.00     0.009 A 
ENDBRANCH  33  34
ENDBRANCH  30  33
ENDBRANCH   1  29
BRANCH   8  41
HETATM   41  C23 UNL     1       6.957  -3.408  16.239  1.00  0.00     0.061 C 
BRANCH  41  42
HETATM   42  C24 UNL     1       7.011  -4.857  15.805  1.00  0.00     0.130 C 
BRANCH  42  43
HETATM   43  N10 UNL     1       8.287  -5.395  16.216  1.00  0.00    -0.352 N 
HETATM   44  C25 UNL     1       8.581  -5.835  17.564  1.00  0.00     0.126 C 
HETATM   45  C26 UNL     1      10.002  -5.278  17.718  1.00  0.00     0.029 C 
HETATM   46  C27 UNL     1      10.629  -5.789  16.424  1.00  0.00     0.104 C 
HETATM   47  C28 UNL     1       9.479  -5.615  15.478  1.00  0.00     0.219 C 
HETATM   48  O2  UNL     1       9.527  -5.652  14.210  1.00  0.00    -0.273 OA
ENDBRANCH  42  43
ENDBRANCH  41  42
ENDBRANCH   8  41
TORSDOF 16
ENDMDL
MODEL 4
REMARK VINA RESULT: -8.645517197      2.137      6.132
REMARK  16 active torsions:
REMARK  status: ('A' for Active; 'I' for Inactive)
REMARK    1  A    between atoms: C5_5  and  C6_6 
REMARK    2  A    between atoms: C6_6  and  N1_7 
REMARK       I    between atoms: N1_7  and  C7_9 
REMARK    3  A    between atoms: C7_9  and  C8_11 
REMARK    4  A    between atoms: C10_13  and  N2_14 
REMARK       I    between atoms: N2_14  and  C11_16 
REMARK    5  A    between atoms: N4_18  and  C12_20 
REMARK    6  A    between atoms: C12_20  and  C13_21 
REMARK    7  A    between atoms: C13_21  and  C14_22 
REMARK    8  A    between atoms: C14_22  and  C15_23 
REMARK    9  A    between atoms: C15_23  and  N5_24 
REMARK   10  A    between atoms: N5_24  and  C16_26 
REMARK   11  A    between atoms: C16_26  and  C17_27 
REMARK   12  A    between atoms: C17_27  and  C18_28 
REMARK   13  A    between atoms: C18_28  and  N6_29 
REMARK   14  A    between atoms: C22_38  and  C23_39 
REMARK   15  A    between atoms: C23_39  and  C24_40 
REMARK   16  A    between atoms: C24_40  and  N10_41 
ROOT
HETATM    1  C8  UNL     1       4.471  -0.060  12.358  1.00  0.00     0.043 A 
HETATM    2  C9  UNL     1       4.574   1.206  11.784  1.00  0.00     0.066 A 
HETATM    3  C10 UNL     1       3.455   1.985  11.582  1.00  0.00     0.108 A 
HETATM    4  N9  UNL     1       2.266   1.483  11.957  1.00  0.00    -0.346 N 
ATOM      5  H9  UNL     1       1.427   2.044  11.817  1.00  0.00     0.167 HD
HETATM    6  C20 UNL     1       2.149   0.244  12.520  1.00  0.00     0.014 A 
HETATM    7  C21 UNL     1       0.808  -0.255  12.913  1.00  0.00     0.068 C 
HETATM    8  C22 UNL     1       3.245  -0.564  12.737  1.00  0.00    -0.018 A 
ENDROOT
BRANCH   3   9
HETATM    9  N2  UNL     1       3.625   3.147  11.051  1.00  0.00    -0.317 N 
HETATM   10  C11 UNL     1       2.793   3.709  10.063  1.00  0.00     0.189 C 
HETATM   11  N3  UNL     1       1.430   3.960  10.366  1.00  0.00    -0.063 NA
HETATM   12  N4  UNL     1       3.259   3.998   8.915  1.00  0.00    -0.364 N 
ATOM     13  H4  UNL     1       2.650   4.404   8.204  1.00  0.00     0.162 HD
ATOM     14  H2  UNL     1       4.420   3.700  11.370  1.00  0.00     0.170 HD
BRANCH  12  15
HETATM   15  C12 UNL     1       4.652   3.748   8.618  1.00  0.00     0.122 C 
BRANCH  15  16
HETATM   16  C13 UNL     1       4.715   3.399   7.151  1.00  0.00     0.021 C 
BRANCH  16  17
HETATM   17  C14 UNL     1       5.842   2.507   6.764  1.00  0.00     0.021 C 
BRANCH  17  18
HETATM   18  C15 UNL     1       6.447   1.712   7.875  1.00  0.00     0.113 C 
BRANCH  18  19
HETATM   19  N5  UNL     1       7.872   1.664   7.885  1.00  0.00    -0.421 N 
ATOM     20  H5  UNL     1       8.440   2.413   7.490  1.00  0.00     0.153 HD
BRANCH  19  21
HETATM   21  C16 UNL     1       8.454   0.506   8.482  1.00  0.00     0.115 C 
BRANCH  21  22
HETATM   22  C17 UNL     1       8.118   0.347   9.958  1.00  0.00     0.039 C 
BRANCH  22  23
HETATM   23  C18 UNL     1       8.897   1.451  10.688  1.00  0.00     0.123 C 
BRANCH  23  24
HETATM   24  N6  UNL     1       7.918   2.250  11.397  1.00  0.00    -0.367 N 
HETATM   25  C19 UNL     1       7.659   3.442  11.049  1.00  0.00     0.196 C 
HETATM   26  N7  UNL     1       8.323   4.026   9.953  1.00  0.00    -0.067 NA
HETATM   27  N8  UNL     1       6.690   4.185  11.773  1.00  0.00    -0.067 NA
ATOM     28  H6  UNL     1       7.426   1.846  12.194  1.00  0.00     0.161 HD
ENDBRANCH  23  24
ENDBRANCH  22  23
ENDBRANCH  21  22
ENDBRANCH  19  21
ENDBRANCH  18  19
ENDBRANCH  17  18
ENDBRANCH  16  17
ENDBRANCH  15  16
ENDBRANCH  12  15
ENDBRANCH   3   9
BRANCH   1  29
HETATM   29  C7  UNL     1       5.717  -0.781  12.531  1.00  0.00     0.252 C 
HETATM   30  N1  UNL     1       6.648  -0.294  13.485  1.00  0.00    -0.353 N 
ATOM     31  H1  UNL     1       6.401   0.548  14.004  1.00  0.00     0.163 HD
HETATM   32  O1  UNL     1       6.007  -1.824  11.870  1.00  0.00    -0.268 OA
BRANCH  30  33
HETATM   33  C6  UNL     1       7.918  -0.910  13.769  1.00  0.00     0.161 C 
BRANCH  33  34
HETATM   34  C5  UNL     1       7.800  -2.040  14.713  1.00  0.00    -0.041 A 
HETATM   35  C4  UNL     1       6.646  -2.249  15.426  1.00  0.00     0.009 A 
HETATM   36  C3  UNL     1       6.532  -3.307  16.321  1.00  0.00     0.007 A 
HETATM   37  C2  UNL     1       7.576  -4.169  16.509  1.00  0.00    -0.062 A 
HETATM   38  C1  UNL     1       7.480  -5.321  17.471  1.00  0.00     0.048 C 
HETATM   39  C30 UNL     1       8.747  -3.976  15.803  1.00  0.00     0.007 A 
HETATM   40  C29 UNL     1       8.845  -2.915  14.913  1.00  0.00     0.009 A 
ENDBRANCH  33  34
ENDBRANCH  30  33
ENDBRANCH   1  29
BRANCH   8  41
HETATM   41  C23 UNL     1       3.100  -1.887  13.343  1.00  0.00     0.061 C 
BRANCH  41  42
HETATM   42  C24 UNL     1       3.066  -1.852  14.857  1.00  0.00     0.130 C 
BRANCH  42  43
HETATM   43  N10 UNL     1       3.117  -3.215  15.331  1.00  0.00    -0.352 N 
HETATM   44  C25 UNL     1       3.550  -4.336  14.523  1.00  0.00     0.126 C 
HETATM   45  C26 UNL     1       2.512  -5.384  14.949  1.00  0.00     0.029 C 
HETATM   46  C27 UNL     1       2.610  -5.250  16.467  1.00  0.00     0.104 C 
HETATM   47  C28 UNL     1       2.789  -3.766  16.597  1.00  0.00     0.219 C 
HETATM   48  O2  UNL     1       2.673  -3.079  17.658  1.00  0.00    -0.273 OA
ENDBRANCH  42  43
ENDBRANCH  41  42
ENDBRANCH   8  41
TORSDOF 16
ENDMDL
MODEL 5
REMARK VINA RESULT: -8.620904301      1.470      2.915
REMARK  16 active torsions:
REMARK  status: ('A' for Active; 'I' for Inactive)
REMARK    1  A    between atoms: C5_5  and  C6_6 
REMARK    2  A    between atoms: C6_6  and  N1_7 
REMARK       I    between atoms: N1_7  and  C7_9 
REMARK    3  A    between atoms: C7_9  and  C8_11 
REMARK    4  A    between atoms: C10_13  and  N2_14 
REMARK       I    between atoms: N2_14  and  C11_16 
REMARK    5  A    between atoms: N4_18  and  C12_20 
REMARK    6  A    between atoms: C12_20  and  C13_21 
REMARK    7  A    between atoms: C13_21  and  C14_22 
REMARK    8  A    between atoms: C14_22  and  C15_23 
REMARK    9  A    between atoms: C15_23  and  N5_24 
REMARK   10  A    between atoms: N5_24  and  C16_26 
REMARK   11  A    between atoms: C16_26  and  C17_27 
REMARK   12  A    between atoms: C17_27  and  C18_28 
REMARK   13  A    between atoms: C18_28  and  N6_29 
REMARK   14  A    between atoms: C22_38  and  C23_39 
REMARK   15  A    between atoms: C23_39  and  C24_40 
REMARK   16  A    between atoms: C24_40  and  N10_41 
ROOT
HETATM    1  C8  UNL     1       5.314  -2.805  14.958  1.00  0.00     0.043 A 
HETATM    2  C9  UNL     1       5.048  -2.024  13.836  1.00  0.00     0.066 A 
HETATM    3  C10 UNL     1       6.068  -1.413  13.139  1.00  0.00     0.108 A 
HETATM    4  N9  UNL     1       7.324  -1.597  13.579  1.00  0.00    -0.346 N 
ATOM      5  H9  UNL     1       8.093  -1.154  13.078  1.00  0.00     0.167 HD
HETATM    6  C20 UNL     1       7.602  -2.360  14.678  1.00  0.00     0.014 A 
HETATM    7  C21 UNL     1       9.010  -2.525  15.115  1.00  0.00     0.068 C 
HETATM    8  C22 UNL     1       6.608  -2.986  15.400  1.00  0.00    -0.018 A 
ENDROOT
BRANCH   3   9
HETATM    9  N2  UNL     1       5.749  -0.709  12.108  1.00  0.00    -0.317 N 
HETATM   10  C11 UNL     1       5.683   0.698  12.084  1.00  0.00     0.189 C 
HETATM   11  N3  UNL     1       6.860   1.451  12.331  1.00  0.00    -0.063 NA
HETATM   12  N4  UNL     1       4.584   1.288  11.834  1.00  0.00    -0.364 N 
ATOM     13  H4  UNL     1       4.544   2.308  11.818  1.00  0.00     0.162 HD
ATOM     14  H2  UNL     1       5.528  -1.207  11.246  1.00  0.00     0.170 HD
BRANCH  12  15
HETATM   15  C12 UNL     1       3.391   0.513  11.572  1.00  0.00     0.122 C 
BRANCH  15  16
HETATM   16  C13 UNL     1       2.488   0.714  12.764  1.00  0.00     0.021 C 
BRANCH  16  17
HETATM   17  C14 UNL     1       1.409  -0.300  12.914  1.00  0.00     0.021 C 
BRANCH  17  18
HETATM   18  C15 UNL     1       0.055   0.125  12.450  1.00  0.00     0.113 C 
BRANCH  18  19
HETATM   19  N5  UNL     1      -0.117   1.528  12.273  1.00  0.00    -0.421 N 
ATOM     20  H5  UNL     1       0.141   2.200  12.995  1.00  0.00     0.153 HD
BRANCH  19  21
HETATM   21  C16 UNL     1      -0.674   1.938  11.023  1.00  0.00     0.115 C 
BRANCH  21  22
HETATM   22  C17 UNL     1       0.369   2.164   9.938  1.00  0.00     0.039 C 
BRANCH  22  23
HETATM   23  C18 UNL     1       1.084   3.472  10.308  1.00  0.00     0.123 C 
BRANCH  23  24
HETATM   24  N6  UNL     1       2.333   3.485   9.571  1.00  0.00    -0.367 N 
HETATM   25  C19 UNL     1       3.431   3.774  10.135  1.00  0.00     0.196 C 
HETATM   26  N7  UNL     1       3.466   4.095  11.505  1.00  0.00    -0.067 NA
HETATM   27  N8  UNL     1       4.628   3.772   9.372  1.00  0.00    -0.067 NA
ATOM     28  H6  UNL     1       2.328   3.256   8.577  1.00  0.00     0.161 HD
ENDBRANCH  23  24
ENDBRANCH  22  23
ENDBRANCH  21  22
ENDBRANCH  19  21
ENDBRANCH  18  19
ENDBRANCH  17  18
ENDBRANCH  16  17
ENDBRANCH  15  16
ENDBRANCH  12  15
ENDBRANCH   3   9
BRANCH   1  29
HETATM   29  C7  UNL     1       4.162  -3.406  15.601  1.00  0.00     0.252 C 
HETATM   30  N1  UNL     1       3.728  -4.680  15.148  1.00  0.00    -0.353 N 
ATOM     31  H1  UNL     1       4.244  -5.114  14.383  1.00  0.00     0.163 HD
HETATM   32  O1  UNL     1       3.530  -2.846  16.547  1.00  0.00    -0.268 OA
BRANCH  30  33
HETATM   33  C6  UNL     1       2.608  -5.399  15.696  1.00  0.00     0.161 C 
BRANCH  33  34
HETATM   34  C5  UNL     1       2.967  -6.769  16.118  1.00  0.00    -0.041 A 
HETATM   35  C4  UNL     1       3.840  -7.529  15.382  1.00  0.00     0.009 A 
HETATM   36  C3  UNL     1       4.175  -8.821  15.771  1.00  0.00     0.007 A 
HETATM   37  C2  UNL     1       3.639  -9.364  16.905  1.00  0.00    -0.062 A 
HETATM   38  C1  UNL     1       3.985 -10.759  17.347  1.00  0.00     0.048 C 
HETATM   39  C30 UNL     1       2.758  -8.616  17.659  1.00  0.00     0.007 A 
HETATM   40  C29 UNL     1       2.433  -7.327  17.258  1.00  0.00     0.009 A 
ENDBRANCH  33  34
ENDBRANCH  30  33
ENDBRANCH   1  29
BRANCH   8  41
HETATM   41  C23 UNL     1       6.924  -3.800  16.573  1.00  0.00     0.061 C 
BRANCH  41  42
HETATM   42  C24 UNL     1       7.055  -5.276  16.260  1.00  0.00     0.130 C 
BRANCH  42  43
HETATM   43  N10 UNL     1       8.407  -5.676  16.573  1.00  0.00    -0.352 N 
HETATM   44  C25 UNL     1       8.868  -5.989  17.910  1.00  0.00     0.126 C 
HETATM   45  C26 UNL     1      10.242  -5.307  17.881  1.00  0.00     0.029 C 
HETATM   46  C27 UNL     1      10.785  -5.861  16.567  1.00  0.00     0.104 C 
HETATM   47  C28 UNL     1       9.537  -5.852  15.733  1.00  0.00     0.219 C 
HETATM   48  O2  UNL     1       9.467  -5.980  14.472  1.00  0.00    -0.273 OA
ENDBRANCH  42  43
ENDBRANCH  41  42
ENDBRANCH   8  41
TORSDOF 16
ENDMDL
