MODEL 1
REMARK VINA RESULT: -8.594063338      0.000      0.000
REMARK  18 active torsions:
REMARK  status: ('A' for Active; 'I' for Inactive)
REMARK    1  A    between atoms: N1_2  and  C2_4 
REMARK    2  A    between atoms: N2_6  and  C4_7 
REMARK    3  A    between atoms: C4_7  and  C5_8 
REMARK    4  A    between atoms: C5_8  and  C6_9 
REMARK    5  A    between atoms: C6_9  and  C7_10 
REMARK    6  A    between atoms: C7_10  and  C8_11 
REMARK    7  A    between atoms: C8_11  and  C9_12 
REMARK    8  A    between atoms: C9_12  and  C10_13 
REMARK    9  A    between atoms: C10_13  and  C11_14 
REMARK   10  A    between atoms: C11_14  and  N3_15 
REMARK   11  A    between atoms: C22_28  and  C23_29 
REMARK   12  A    between atoms: C23_29  and  C24_30 
REMARK   13  A    between atoms: C24_30  and  N6_31 
REMARK   14  A    between atoms: N7_34  and  C27_35 
REMARK   15  A    between atoms: C27_35  and  C28_36 
REMARK   16  A    between atoms: C28_36  and  O1_37 
REMARK   17  A    between atoms: C28_36  and  C29_39 
REMARK   18  A    between atoms: C29_39  and  O2_40 
ROOT
HETATM    1  C2  UNL     1       1.595   3.983   9.445  1.00  0.00     0.116 A 
HETATM    2  C3  UNL     1       0.918   3.015  10.142  1.00  0.00     0.138 A 
HETATM    3  N2  UNL     1       1.538   2.309  11.094  1.00  0.00    -0.361 N 
HETATM    4  C21 UNL     1       2.852   2.570  11.355  1.00  0.00     0.115 A 
HETATM    5  C22 UNL     1       3.531   3.540  10.655  1.00  0.00     0.028 A 
HETATM    6  N8  UNL     1       2.908   4.249   9.700  1.00  0.00    -0.344 N 
ATOM      7  H8  UNL     1       3.405   4.971   9.177  1.00  0.00     0.167 HD
ENDROOT
BRANCH   3   8
HETATM    8  C4  UNL     1       0.816   1.296  11.812  1.00  0.00     0.128 C 
BRANCH   8   9
HETATM    9  C5  UNL     1       1.077  -0.114  11.321  1.00  0.00     0.020 C 
BRANCH   9  10
HETATM   10  C6  UNL     1       2.140  -0.806  12.099  1.00  0.00     0.002 C 
BRANCH  10  11
HETATM   11  C7  UNL     1       2.012  -0.553  13.619  1.00  0.00     0.000 C 
BRANCH  11  12
HETATM   12  C8  UNL     1       2.746  -1.560  14.413  1.00  0.00     0.000 C 
BRANCH  12  13
HETATM   13  C9  UNL     1       3.132  -2.844  13.834  1.00  0.00     0.002 C 
BRANCH  13  14
HETATM   14  C10 UNL     1       4.177  -3.709  14.368  1.00  0.00     0.020 C 
BRANCH  14  15
HETATM   15  C11 UNL     1       3.919  -4.460  15.626  1.00  0.00     0.128 C 
BRANCH  15  16
HETATM   16  N3  UNL     1       5.244  -4.801  16.206  1.00  0.00    -0.364 N 
HETATM   17  C12 UNL     1       5.305  -5.705  17.185  1.00  0.00     0.117 A 
HETATM   18  C13 UNL     1       6.523  -6.034  17.735  1.00  0.00     0.073 A 
HETATM   19  N4  UNL     1       6.536  -7.009  18.780  1.00  0.00    -0.100 NA
HETATM   20  C14 UNL     1       7.694  -5.435  17.283  1.00  0.00     0.003 A 
HETATM   21  C15 UNL     1       8.907  -5.760  17.826  1.00  0.00     0.014 A 
HETATM   22  C19 UNL     1       7.586  -4.498  16.263  1.00  0.00     0.016 A 
HETATM   23  C16 UNL     1      10.019  -5.135  17.338  1.00  0.00     0.003 A 
HETATM   24  C17 UNL     1       9.973  -4.208  16.336  1.00  0.00     0.027 A 
HETATM   25  C18 UNL     1       8.730  -3.884  15.790  1.00  0.00     0.058 A 
HETATM   26  N5  UNL     1       8.643  -2.921  14.745  1.00  0.00    -0.102 NA
HETATM   27  C20 UNL     1       6.338  -4.207  15.749  1.00  0.00     0.104 A 
ENDBRANCH  15  16
ENDBRANCH  14  15
ENDBRANCH  13  14
ENDBRANCH  12  13
ENDBRANCH  11  12
ENDBRANCH  10  11
ENDBRANCH   9  10
ENDBRANCH   8   9
ENDBRANCH   3   8
BRANCH   1  28
HETATM   28  N1  UNL     1       1.027   4.690   8.512  1.00  0.00    -0.380 N 
HETATM   29  C1  UNL     1       0.818   4.077   7.202  1.00  0.00     0.147 C 
ATOM     30  H1  UNL     1       0.733   5.650   8.692  1.00  0.00     0.160 HD
ENDBRANCH   1  28
BRANCH   5  31
HETATM   31  C23 UNL     1       4.967   3.819  10.944  1.00  0.00     0.086 C 
BRANCH  31  32
HETATM   32  C24 UNL     1       5.862   3.312   9.858  1.00  0.00     0.245 C 
BRANCH  32  33
HETATM   33  N6  UNL     1       6.941   2.582  10.398  1.00  0.00    -0.039 N 
HETATM   34  C25 UNL     1       7.886   3.297  11.200  1.00  0.00     0.267 C 
HETATM   35  C26 UNL     1       8.558   2.202  12.044  1.00  0.00     0.267 C 
HETATM   36  N7  UNL     1       7.821   1.038  11.681  1.00  0.00    -0.037 N 
HETATM   37  C30 UNL     1       8.225   0.663  10.331  1.00  0.00     0.267 C 
HETATM   38  C32 UNL     1       6.500   1.575  11.389  1.00  0.00     0.473 C 
HETATM   39  C31 UNL     1       7.634   1.744   9.453  1.00  0.00     0.267 C 
BRANCH  36  40
HETATM   40  C27 UNL     1       7.802  -0.030  12.616  1.00  0.00     0.273 C 
BRANCH  40  41
HETATM   41  C28 UNL     1       6.460  -0.629  12.856  1.00  0.00     0.168 C 
BRANCH  41  42
HETATM   42  O1  UNL     1       6.407  -1.976  12.492  1.00  0.00    -0.392 OA
ATOM     43  H1  UNL     1       6.190  -2.541  13.224  1.00  0.00     0.210 HD
ENDBRANCH  41  42
BRANCH  41  44
HETATM   44  C29 UNL     1       6.170  -0.572  14.345  1.00  0.00     0.197 C 
BRANCH  44  45
HETATM   45  O2  UNL     1       6.155   0.723  14.838  1.00  0.00    -0.398 OA
ATOM     46  H2  UNL     1       6.063   0.755  15.782  1.00  0.00     0.209 HD
ENDBRANCH  44  45
ENDBRANCH  41  44
ENDBRANCH  40  41
ENDBRANCH  36  40
ENDBRANCH  32  33
ENDBRANCH  31  32
ENDBRANCH   5  31
TORSDOF 18
ENDMDL
MODEL 2
REMARK VINA RESULT: -8.385393669      2.550      9.509
REMARK  18 active torsions:
REMARK  status: ('A' for Active; 'I' for Inactive)
REMARK    1  A    between atoms: N1_2  and  C2_4 
REMARK    2  A    between atoms: N2_6  and  C4_7 
REMARK    3  A    between atoms: C4_7  and  C5_8 
REMARK    4  A    between atoms: C5_8  and  C6_9 
REMARK    5  A    between atoms: C6_9  and  C7_10 
REMARK    6  A    between atoms: C7_10  and  C8_11 
REMARK    7  A    between atoms: C8_11  and  C9_12 
REMARK    8  A    between atoms: C9_12  and  C10_13 
REMARK    9  A    between atoms: C10_13  and  C11_14 
REMARK   10  A    between atoms: C11_14  and  N3_15 
REMARK   11  A    between atoms: C22_28  and  C23_29 
REMARK   12  A    between atoms: C23_29  and  C24_30 
REMARK   13  A    between atoms: C24_30  and  N6_31 
REMARK   14  A    between atoms: N7_34  and  C27_35 
REMARK   15  A    between atoms: C27_35  and  C28_36 
REMARK   16  A    between atoms: C28_36  and  O1_37 
REMARK   17  A    between atoms: C28_36  and  C29_39 
REMARK   18  A    between atoms: C29_39  and  O2_40 
ROOT
HETATM    1  C2  UNL     1       7.879  -2.465  15.471  1.00  0.00     0.116 A 
HETATM    2  C3  UNL     1       8.172  -1.389  14.672  1.00  0.00     0.138 A 
HETATM    3  N2  UNL     1       7.199  -0.570  14.258  1.00  0.00    -0.361 N 
HETATM    4  C21 UNL     1       5.916  -0.826  14.645  1.00  0.00     0.115 A 
HETATM    5  C22 UNL     1       5.623  -1.904  15.446  1.00  0.00     0.028 A 
HETATM    6  N8  UNL     1       6.600  -2.727  15.861  1.00  0.00    -0.344 N 
ATOM      7  H8  UNL     1       6.389  -3.529  16.456  1.00  0.00     0.167 HD
ENDROOT
BRANCH   3   8
HETATM    8  C4  UNL     1       7.523   0.550  13.418  1.00  0.00     0.128 C 
BRANCH   8   9
HETATM    9  C5  UNL     1       8.024   0.164  12.041  1.00  0.00     0.020 C 
BRANCH   9  10
HETATM   10  C6  UNL     1       8.872   1.218  11.421  1.00  0.00     0.002 C 
BRANCH  10  11
HETATM   11  C7  UNL     1       9.368   0.818  10.013  1.00  0.00     0.000 C 
BRANCH  11  12
HETATM   12  C8  UNL     1       8.272   0.802   9.022  1.00  0.00     0.000 C 
BRANCH  12  13
HETATM   13  C9  UNL     1       7.440   1.981   8.795  1.00  0.00     0.002 C 
BRANCH  13  14
HETATM   14  C10 UNL     1       6.016   2.056   9.097  1.00  0.00     0.020 C 
BRANCH  14  15
HETATM   15  C11 UNL     1       5.582   2.680  10.376  1.00  0.00     0.128 C 
BRANCH  15  16
HETATM   16  N3  UNL     1       4.428   1.887  10.873  1.00  0.00    -0.364 N 
HETATM   17  C12 UNL     1       4.630   0.623  11.252  1.00  0.00     0.117 A 
HETATM   18  C13 UNL     1       3.574  -0.128  11.716  1.00  0.00     0.073 A 
HETATM   19  N4  UNL     1       3.842  -1.474  12.109  1.00  0.00    -0.100 NA
HETATM   20  C14 UNL     1       2.295   0.415  11.796  1.00  0.00     0.003 A 
HETATM   21  C15 UNL     1       1.243  -0.328  12.257  1.00  0.00     0.014 A 
HETATM   22  C19 UNL     1       2.128   1.733  11.391  1.00  0.00     0.016 A 
HETATM   23  C16 UNL     1       0.013   0.263  12.311  1.00  0.00     0.003 A 
HETATM   24  C17 UNL     1      -0.210   1.555  11.927  1.00  0.00     0.027 A 
HETATM   25  C18 UNL     1       0.871   2.303  11.459  1.00  0.00     0.058 A 
HETATM   26  N5  UNL     1       0.676   3.652  11.049  1.00  0.00    -0.102 NA
HETATM   27  C20 UNL     1       3.224   2.439  10.934  1.00  0.00     0.104 A 
ENDBRANCH  15  16
ENDBRANCH  14  15
ENDBRANCH  13  14
ENDBRANCH  12  13
ENDBRANCH  11  12
ENDBRANCH  10  11
ENDBRANCH   9  10
ENDBRANCH   8   9
ENDBRANCH   3   8
BRANCH   1  28
HETATM   28  N1  UNL     1       8.797  -3.284  15.893  1.00  0.00    -0.380 N 
HETATM   29  C1  UNL     1      10.199  -2.890  15.760  1.00  0.00     0.147 C 
ATOM     30  H1  UNL     1       8.545  -4.181  16.308  1.00  0.00     0.160 HD
ENDBRANCH   1  28
BRANCH   5  31
HETATM   31  C23 UNL     1       4.218  -2.179  15.864  1.00  0.00     0.086 C 
BRANCH  31  32
HETATM   32  C24 UNL     1       3.614  -3.302  15.082  1.00  0.00     0.245 C 
BRANCH  32  33
HETATM   33  N6  UNL     1       3.395  -4.426  15.906  1.00  0.00    -0.039 N 
HETATM   34  C25 UNL     1       2.841  -5.594  15.294  1.00  0.00     0.267 C 
HETATM   35  C26 UNL     1       3.233  -6.734  16.249  1.00  0.00     0.267 C 
HETATM   36  N7  UNL     1       4.049  -6.065  17.206  1.00  0.00    -0.037 N 
HETATM   37  C30 UNL     1       3.173  -5.261  18.048  1.00  0.00     0.267 C 
HETATM   38  C32 UNL     1       4.658  -5.002  16.419  1.00  0.00     0.473 C 
HETATM   39  C31 UNL     1       2.706  -4.144  17.139  1.00  0.00     0.267 C 
BRANCH  36  40
HETATM   40  C27 UNL     1       4.993  -6.856  17.912  1.00  0.00     0.273 C 
BRANCH  40  41
HETATM   41  C28 UNL     1       6.165  -6.108  18.445  1.00  0.00     0.168 C 
BRANCH  41  42
HETATM   42  O1  UNL     1       5.998  -5.741  19.782  1.00  0.00    -0.392 OA
ATOM     43  H1  UNL     1       6.138  -4.812  19.922  1.00  0.00     0.210 HD
ENDBRANCH  41  42
BRANCH  41  44
HETATM   44  C29 UNL     1       7.378  -7.019  18.394  1.00  0.00     0.197 C 
BRANCH  44  45
HETATM   45  O2  UNL     1       8.561  -6.349  18.662  1.00  0.00    -0.398 OA
ATOM     46  H2  UNL     1       9.167  -6.867  19.178  1.00  0.00     0.209 HD
ENDBRANCH  44  45
ENDBRANCH  41  44
ENDBRANCH  40  41
ENDBRANCH  36  40
ENDBRANCH  32  33
ENDBRANCH  31  32
ENDBRANCH   5  31
TORSDOF 18
ENDMDL
MODEL 3
REMARK VINA RESULT: -8.331413191      2.446      9.730
REMARK  18 active torsions:
REMARK  status: ('A' for Active; 'I' for Inactive)
REMARK    1  A    between atoms: N1_2  and  C2_4 
REMARK    2  A    between atoms: N2_6  and  C4_7 
REMARK    3  A    between atoms: C4_7  and  C5_8 
REMARK    4  A    between atoms: C5_8  and  C6_9 
REMARK    5  A    between atoms: C6_9  and  C7_10 
REMARK    6  A    between atoms: C7_10  and  C8_11 
REMARK    7  A    between atoms: C8_11  and  C9_12 
REMARK    8  A    between atoms: C9_12  and  C10_13 
REMARK    9  A    between atoms: C10_13  and  C11_14 
REMARK   10  A    between atoms: C11_14  and  N3_15 
REMARK   11  A    between atoms: C22_28  and  C23_29 
REMARK   12  A    between atoms: C23_29  and  C24_30 
REMARK   13  A    between atoms: C24_30  and  N6_31 
REMARK   14  A    between atoms: N7_34  and  C27_35 
REMARK   15  A    between atoms: C27_35  and  C28_36 
REMARK   16  A    between atoms: C28_36  and  O1_37 
REMARK   17  A    between atoms: C28_36  and  C29_39 
REMARK   18  A    between atoms: C29_39  and  O2_40 
ROOT
HETATM    1  C2  UNL     1       5.583  -1.314  15.684  1.00  0.00     0.116 A 
HETATM    2  C3  UNL     1       5.540  -0.455  14.614  1.00  0.00     0.138 A 
HETATM    3  N2  UNL     1       6.631  -0.250  13.869  1.00  0.00    -0.361 N 
HETATM    4  C21 UNL     1       7.782  -0.907  14.193  1.00  0.00     0.115 A 
HETATM    5  C22 UNL     1       7.824  -1.768  15.265  1.00  0.00     0.028 A 
HETATM    6  N8  UNL     1       6.729  -1.974  16.013  1.00  0.00    -0.344 N 
ATOM      7  H8  UNL     1       6.753  -2.611  16.810  1.00  0.00     0.167 HD
ENDROOT
BRANCH   3   8
HETATM    8  C4  UNL     1       6.570   0.657  12.755  1.00  0.00     0.128 C 
BRANCH   8   9
HETATM    9  C5  UNL     1       7.652   1.718  12.762  1.00  0.00     0.020 C 
BRANCH   9  10
HETATM   10  C6  UNL     1       8.580   1.600  11.606  1.00  0.00     0.002 C 
BRANCH  10  11
HETATM   11  C7  UNL     1       8.323   0.321  10.776  1.00  0.00     0.000 C 
BRANCH  11  12
HETATM   12  C8  UNL     1       8.016   0.628   9.364  1.00  0.00     0.000 C 
BRANCH  12  13
HETATM   13  C9  UNL     1       7.500   1.935   8.969  1.00  0.00     0.002 C 
BRANCH  13  14
HETATM   14  C10 UNL     1       6.092   2.312   9.002  1.00  0.00     0.020 C 
BRANCH  14  15
HETATM   15  C11 UNL     1       5.615   3.223  10.076  1.00  0.00     0.128 C 
BRANCH  15  16
HETATM   16  N3  UNL     1       4.138   3.073  10.145  1.00  0.00    -0.364 N 
HETATM   17  C12 UNL     1       3.378   3.801   9.325  1.00  0.00     0.117 A 
HETATM   18  C13 UNL     1       2.007   3.677   9.374  1.00  0.00     0.073 A 
HETATM   19  N4  UNL     1       1.238   4.477   8.476  1.00  0.00    -0.100 NA
HETATM   20  C14 UNL     1       1.404   2.799  10.269  1.00  0.00     0.003 A 
HETATM   21  C15 UNL     1       0.042   2.671  10.319  1.00  0.00     0.014 A 
HETATM   22  C19 UNL     1       2.231   2.060  11.105  1.00  0.00     0.016 A 
HETATM   23  C16 UNL     1      -0.488   1.792  11.220  1.00  0.00     0.003 A 
HETATM   24  C17 UNL     1       0.277   1.040  12.066  1.00  0.00     0.027 A 
HETATM   25  C18 UNL     1       1.664   1.179  12.005  1.00  0.00     0.058 A 
HETATM   26  N5  UNL     1       2.493   0.412  12.872  1.00  0.00    -0.102 NA
HETATM   27  C20 UNL     1       3.599   2.227  11.012  1.00  0.00     0.104 A 
ENDBRANCH  15  16
ENDBRANCH  14  15
ENDBRANCH  13  14
ENDBRANCH  12  13
ENDBRANCH  11  12
ENDBRANCH  10  11
ENDBRANCH   9  10
ENDBRANCH   8   9
ENDBRANCH   3   8
BRANCH   1  28
HETATM   28  N1  UNL     1       4.543  -1.539  16.432  1.00  0.00    -0.380 N 
HETATM   29  C1  UNL     1       3.610  -2.591  16.033  1.00  0.00     0.147 C 
ATOM     30  H1  UNL     1       4.383  -0.994  17.280  1.00  0.00     0.160 HD
ENDBRANCH   1  28
BRANCH   5  31
HETATM   31  C23 UNL     1       9.086  -2.483  15.614  1.00  0.00     0.086 C 
BRANCH  31  32
HETATM   32  C24 UNL     1       9.162  -3.828  14.965  1.00  0.00     0.245 C 
BRANCH  32  33
HETATM   33  N6  UNL     1       9.446  -4.829  15.917  1.00  0.00    -0.039 N 
HETATM   34  C25 UNL     1      10.447  -4.542  16.898  1.00  0.00     0.267 C 
HETATM   35  C26 UNL     1      10.136  -5.521  18.042  1.00  0.00     0.267 C 
HETATM   36  N7  UNL     1       8.936  -6.144  17.595  1.00  0.00    -0.037 N 
HETATM   37  C30 UNL     1       9.288  -7.055  16.513  1.00  0.00     0.267 C 
HETATM   38  C32 UNL     1       8.300  -5.091  16.816  1.00  0.00     0.473 C 
HETATM   39  C31 UNL     1       9.661  -6.142  15.365  1.00  0.00     0.267 C 
BRANCH  36  40
HETATM   40  C27 UNL     1       8.089  -6.700  18.590  1.00  0.00     0.273 C 
BRANCH  40  41
HETATM   41  C28 UNL     1       6.794  -7.232  18.086  1.00  0.00     0.168 C 
BRANCH  41  42
HETATM   42  O1  UNL     1       6.510  -8.504  18.587  1.00  0.00    -0.392 OA
ATOM     43  H1  UNL     1       5.605  -8.592  18.859  1.00  0.00     0.210 HD
ENDBRANCH  41  42
BRANCH  41  44
HETATM   44  C29 UNL     1       5.681  -6.319  18.569  1.00  0.00     0.197 C 
BRANCH  44  45
HETATM   45  O2  UNL     1       5.988  -5.687  19.763  1.00  0.00    -0.398 OA
ATOM     46  H2  UNL     1       5.608  -6.122  20.517  1.00  0.00     0.209 HD
ENDBRANCH  44  45
ENDBRANCH  41  44
ENDBRANCH  40  41
ENDBRANCH  36  40
ENDBRANCH  32  33
ENDBRANCH  31  32
ENDBRANCH   5  31
TORSDOF 18
ENDMDL
MODEL 4
REMARK VINA RESULT: -8.260288278      2.662      8.702
REMARK  18 active torsions:
REMARK  status: ('A' for Active; 'I' for Inactive)
REMARK    1  A    between atoms: N1_2  and  C2_4 
REMARK    2  A    between atoms: N2_6  and  C4_7 
REMARK    3  A    between atoms: C4_7  and  C5_8 
REMARK    4  A    between atoms: C5_8  and  C6_9 
REMARK    5  A    between atoms: C6_9  and  C7_10 
REMARK    6  A    between atoms: C7_10  and  C8_11 
REMARK    7  A    between atoms: C8_11  and  C9_12 
REMARK    8  A    between atoms: C9_12  and  C10_13 
REMARK    9  A    between atoms: C10_13  and  C11_14 
REMARK   10  A    between atoms: C11_14  and  N3_15 
REMARK   11  A    between atoms: C22_28  and  C23_29 
REMARK   12  A    between atoms: C23_29  and  C24_30 
REMARK   13  A    between atoms: C24_30  and  N6_31 
REMARK   14  A    between atoms: N7_34  and  C27_35 
REMARK   15  A    between atoms: C27_35  and  C28_36 
REMARK   16  A    between atoms: C28_36  and  O1_37 
REMARK   17  A    between atoms: C28_36  and  C29_39 
REMARK   18  A    between atoms: C29_39  and  O2_40 
ROOT
HETATM    1  C2  UNL     1       4.001  -2.387  15.752  1.00  0.00     0.116 A 
HETATM    2  C3  UNL     1       3.437  -1.774  14.664  1.00  0.00     0.138 A 
HETATM    3  N2  UNL     1       4.035  -1.831  13.469  1.00  0.00    -0.361 N 
HETATM    4  C21 UNL     1       5.214  -2.509  13.357  1.00  0.00     0.115 A 
HETATM    5  C22 UNL     1       5.780  -3.125  14.449  1.00  0.00     0.028 A 
HETATM    6  N8  UNL     1       5.178  -3.067  15.648  1.00  0.00    -0.344 N 
ATOM      7  H8  UNL     1       5.593  -3.522  16.463  1.00  0.00     0.167 HD
ENDROOT
BRANCH   3   8
HETATM    8  C4  UNL     1       3.433  -1.178  12.340  1.00  0.00     0.128 C 
BRANCH   8   9
HETATM    9  C5  UNL     1       2.065  -0.591  12.623  1.00  0.00     0.020 C 
BRANCH   9  10
HETATM   10  C6  UNL     1       1.265  -0.374  11.387  1.00  0.00     0.002 C 
BRANCH  10  11
HETATM   11  C7  UNL     1       0.224   0.756  11.555  1.00  0.00     0.000 C 
BRANCH  11  12
HETATM   12  C8  UNL     1       0.312   1.758  10.473  1.00  0.00     0.000 C 
BRANCH  12  13
HETATM   13  C9  UNL     1       1.159   2.941  10.604  1.00  0.00     0.002 C 
BRANCH  13  14
HETATM   14  C10 UNL     1       2.600   2.953  10.386  1.00  0.00     0.020 C 
BRANCH  14  15
HETATM   15  C11 UNL     1       3.505   2.672  11.532  1.00  0.00     0.128 C 
BRANCH  15  16
HETATM   16  N3  UNL     1       4.879   2.552  10.979  1.00  0.00    -0.364 N 
HETATM   17  C12 UNL     1       5.234   3.341   9.962  1.00  0.00     0.117 A 
HETATM   18  C13 UNL     1       6.503   3.245   9.435  1.00  0.00     0.073 A 
HETATM   19  N4  UNL     1       6.835   4.111   8.349  1.00  0.00    -0.100 NA
HETATM   20  C14 UNL     1       7.421   2.336   9.951  1.00  0.00     0.003 A 
HETATM   21  C15 UNL     1       8.683   2.239   9.430  1.00  0.00     0.014 A 
HETATM   22  C19 UNL     1       7.011   1.534  11.008  1.00  0.00     0.016 A 
HETATM   23  C16 UNL     1       9.537   1.326   9.981  1.00  0.00     0.003 A 
HETATM   24  C17 UNL     1       9.188   0.513  11.021  1.00  0.00     0.027 A 
HETATM   25  C18 UNL     1       7.899   0.621  11.544  1.00  0.00     0.058 A 
HETATM   26  N5  UNL     1       7.500  -0.212  12.627  1.00  0.00    -0.102 NA
HETATM   27  C20 UNL     1       5.726   1.673  11.496  1.00  0.00     0.104 A 
ENDBRANCH  15  16
ENDBRANCH  14  15
ENDBRANCH  13  14
ENDBRANCH  12  13
ENDBRANCH  11  12
ENDBRANCH  10  11
ENDBRANCH   9  10
ENDBRANCH   8   9
ENDBRANCH   3   8
BRANCH   1  28
HETATM   28  N1  UNL     1       3.450  -2.353  16.930  1.00  0.00    -0.380 N 
HETATM   29  C1  UNL     1       2.556  -3.445  17.314  1.00  0.00     0.147 C 
ATOM     30  H1  UNL     1       3.636  -1.582  17.571  1.00  0.00     0.160 HD
ENDBRANCH   1  28
BRANCH   5  31
HETATM   31  C23 UNL     1       7.069  -3.864  14.320  1.00  0.00     0.086 C 
BRANCH  31  32
HETATM   32  C24 UNL     1       8.158  -3.228  15.124  1.00  0.00     0.245 C 
BRANCH  32  33
HETATM   33  N6  UNL     1       8.973  -4.207  15.728  1.00  0.00    -0.039 N 
HETATM   34  C25 UNL     1      10.107  -3.753  16.473  1.00  0.00     0.267 C 
HETATM   35  C26 UNL     1      10.429  -4.929  17.410  1.00  0.00     0.267 C 
HETATM   36  N7  UNL     1       9.365  -5.836  17.142  1.00  0.00    -0.037 N 
HETATM   37  C30 UNL     1       9.607  -6.426  15.831  1.00  0.00     0.267 C 
HETATM   38  C32 UNL     1       8.265  -4.946  16.798  1.00  0.00     0.473 C 
HETATM   39  C31 UNL     1       9.358  -5.291  14.861  1.00  0.00     0.267 C 
BRANCH  36  40
HETATM   40  C27 UNL     1       9.038  -6.767  18.163  1.00  0.00     0.273 C 
BRANCH  40  41
HETATM   41  C28 UNL     1       8.674  -8.127  17.679  1.00  0.00     0.168 C 
BRANCH  41  42
HETATM   42  O1  UNL     1       9.420  -9.130  18.300  1.00  0.00    -0.392 OA
ATOM     43  H1  UNL     1       8.974  -9.501  19.052  1.00  0.00     0.210 HD
ENDBRANCH  41  42
BRANCH  41  44
HETATM   44  C29 UNL     1       7.220  -8.387  18.033  1.00  0.00     0.197 C 
BRANCH  44  45
HETATM   45  O2  UNL     1       6.692  -7.418  18.871  1.00  0.00    -0.398 OA
ATOM     46  H2  UNL     1       5.745  -7.367  18.821  1.00  0.00     0.209 HD
ENDBRANCH  44  45
ENDBRANCH  41  44
ENDBRANCH  40  41
ENDBRANCH  36  40
ENDBRANCH  32  33
ENDBRANCH  31  32
ENDBRANCH   5  31
TORSDOF 18
ENDMDL
MODEL 5
REMARK VINA RESULT: -8.250820198      2.400      9.881
REMARK  18 active torsions:
REMARK  status: ('A' for Active; 'I' for Inactive)
REMARK    1  A    between atoms: N1_2  and  C2_4 
REMARK    2  A    between atoms: N2_6  and  C4_7 
REMARK    3  A    between atoms: C4_7  and  C5_8 
REMARK    4  A    between atoms: C5_8  and  C6_9 
REMARK    5  A    between atoms: C6_9  and  C7_10 
REMARK    6  A    between atoms: C7_10  and  C8_11 
REMARK    7  A    between atoms: C8_11  and  C9_12 
REMARK    8  A    between atoms: C9_12  and  C10_13 
REMARK    9  A    between atoms: C10_13  and  C11_14 
REMARK   10  A    between atoms: C11_14  and  N3_15 
REMARK   11  A    between atoms: C22_28  and  C23_29 
REMARK   12  A    between atoms: C23_29  and  C24_30 
REMARK   13  A    between atoms: C24_30  and  N6_31 
REMARK   14  A    between atoms: N7_34  and  C27_35 
REMARK   15  A    between atoms: C27_35  and  C28_36 
REMARK   16  A    between atoms: C28_36  and  O1_37 
REMARK   17  A    between atoms: C28_36  and  C29_39 
REMARK   18  A    between atoms: C29_39  and  O2_40 
ROOT
HETATM    1  C2  UNL     1       7.829  -1.653  15.089  1.00  0.00     0.116 A 
HETATM    2  C3  UNL     1       7.956  -1.050  13.864  1.00  0.00     0.138 A 
HETATM    3  N2  UNL     1       6.874  -0.797  13.119  1.00  0.00    -0.361 N 
HETATM    4  C21 UNL     1       5.648  -1.152  13.602  1.00  0.00     0.115 A 
HETATM    5  C22 UNL     1       5.521  -1.756  14.831  1.00  0.00     0.028 A 
HETATM    6  N8  UNL     1       6.608  -2.009  15.578  1.00  0.00    -0.344 N 
ATOM      7  H8  UNL     1       6.521  -2.458  16.490  1.00  0.00     0.167 HD
ENDROOT
BRANCH   3   8
HETATM    8  C4  UNL     1       7.025  -0.169  11.836  1.00  0.00     0.128 C 
BRANCH   8   9
HETATM    9  C5  UNL     1       8.265   0.693  11.712  1.00  0.00     0.020 C 
BRANCH   9  10
HETATM   10  C6  UNL     1       9.070   0.371  10.503  1.00  0.00     0.002 C 
BRANCH  10  11
HETATM   11  C7  UNL     1       8.648   1.212   9.276  1.00  0.00     0.000 C 
BRANCH  11  12
HETATM   12  C8  UNL     1       8.706   2.662   9.551  1.00  0.00     0.000 C 
BRANCH  12  13
HETATM   13  C9  UNL     1       7.525   3.508   9.403  1.00  0.00     0.002 C 
BRANCH  13  14
HETATM   14  C10 UNL     1       6.155   3.058   9.616  1.00  0.00     0.020 C 
BRANCH  14  15
HETATM   15  C11 UNL     1       5.558   3.180  10.972  1.00  0.00     0.128 C 
BRANCH  15  16
HETATM   16  N3  UNL     1       4.091   2.998  10.816  1.00  0.00    -0.364 N 
HETATM   17  C12 UNL     1       3.434   3.775   9.954  1.00  0.00     0.117 A 
HETATM   18  C13 UNL     1       2.075   3.622   9.795  1.00  0.00     0.073 A 
HETATM   19  N4  UNL     1       1.417   4.477   8.859  1.00  0.00    -0.100 NA
HETATM   20  C14 UNL     1       1.376   2.664  10.524  1.00  0.00     0.003 A 
HETATM   21  C15 UNL     1       0.026   2.508  10.368  1.00  0.00     0.014 A 
HETATM   22  C19 UNL     1       2.098   1.876  11.411  1.00  0.00     0.016 A 
HETATM   23  C16 UNL     1      -0.601   1.550  11.113  1.00  0.00     0.003 A 
HETATM   24  C17 UNL     1       0.059   0.747  12.000  1.00  0.00     0.027 A 
HETATM   25  C18 UNL     1       1.436   0.915  12.150  1.00  0.00     0.058 A 
HETATM   26  N5  UNL     1       2.155   0.097  13.066  1.00  0.00    -0.102 NA
HETATM   27  C20 UNL     1       3.460   2.075  11.529  1.00  0.00     0.104 A 
ENDBRANCH  15  16
ENDBRANCH  14  15
ENDBRANCH  13  14
ENDBRANCH  12  13
ENDBRANCH  11  12
ENDBRANCH  10  11
ENDBRANCH   9  10
ENDBRANCH   8   9
ENDBRANCH   3   8
BRANCH   1  28
HETATM   28  N1  UNL     1       8.858  -1.915  15.842  1.00  0.00    -0.380 N 
HETATM   29  C1  UNL     1       9.741  -3.015  15.459  1.00  0.00     0.147 C 
ATOM     30  H1  UNL     1       9.044  -1.364  16.680  1.00  0.00     0.160 HD
ENDBRANCH   1  28
BRANCH   5  31
HETATM   31  C23 UNL     1       4.178  -2.142  15.352  1.00  0.00     0.086 C 
BRANCH  31  32
HETATM   32  C24 UNL     1       3.632  -3.343  14.648  1.00  0.00     0.245 C 
BRANCH  32  33
HETATM   33  N6  UNL     1       3.377  -4.387  15.561  1.00  0.00    -0.039 N 
HETATM   34  C25 UNL     1       2.770  -5.577  15.049  1.00  0.00     0.267 C 
HETATM   35  C26 UNL     1       3.127  -6.651  16.090  1.00  0.00     0.267 C 
HETATM   36  N7  UNL     1       3.979  -5.942  16.984  1.00  0.00    -0.037 N 
HETATM   37  C30 UNL     1       3.145  -5.038  17.765  1.00  0.00     0.267 C 
HETATM   38  C32 UNL     1       4.621  -4.971  16.110  1.00  0.00     0.473 C 
HETATM   39  C31 UNL     1       2.713  -3.980  16.773  1.00  0.00     0.267 C 
BRANCH  36  40
HETATM   40  C27 UNL     1       4.899  -6.711  17.744  1.00  0.00     0.273 C 
BRANCH  40  41
HETATM   41  C28 UNL     1       6.052  -5.947  18.294  1.00  0.00     0.168 C 
BRANCH  41  42
HETATM   42  O1  UNL     1       5.947  -5.741  19.670  1.00  0.00    -0.392 OA
ATOM     43  H1  UNL     1       6.664  -5.222  20.015  1.00  0.00     0.210 HD
ENDBRANCH  41  42
BRANCH  41  44
HETATM   44  C29 UNL     1       7.315  -6.761  18.074  1.00  0.00     0.197 C 
BRANCH  44  45
HETATM   45  O2  UNL     1       8.434  -6.177  18.644  1.00  0.00    -0.398 OA
ATOM     46  H2  UNL     1       9.140  -6.797  18.784  1.00  0.00     0.209 HD
ENDBRANCH  44  45
ENDBRANCH  41  44
ENDBRANCH  40  41
ENDBRANCH  36  40
ENDBRANCH  32  33
ENDBRANCH  31  32
ENDBRANCH   5  31
TORSDOF 18
ENDMDL
