MODEL 1
REMARK VINA RESULT: -9.415289147      0.000      0.000
REMARK  15 active torsions:
REMARK  status: ('A' for Active; 'I' for Inactive)
REMARK    1  A    between atoms: N1_2  and  C3_4 
REMARK    2  A    between atoms: N1_2  and  C17_22 
REMARK    3  A    between atoms: C4_5  and  C5_6 
REMARK    4  A    between atoms: C5_6  and  C6_7 
REMARK    5  A    between atoms: C6_7  and  C7_8 
REMARK    6  A    between atoms: C7_8  and  N2_9 
REMARK    7  A    between atoms: C17_22  and  C18_23 
REMARK    8  A    between atoms: C19_26  and  C20_27 
REMARK    9  A    between atoms: C20_27  and  O1_28 
REMARK   10  A    between atoms: C21_30  and  C22_31 
REMARK   11  A    between atoms: C22_31  and  C23_32 
REMARK   12  A    between atoms: C23_32  and  C24_33 
REMARK   13  A    between atoms: C24_33  and  N5_34 
REMARK   14  A    between atoms: N8_41  and  C27_42 
REMARK   15  A    between atoms: C27_42  and  C28_43 
ROOT
HETATM    1  C18 UNL     1      14.145  28.315  11.247  1.00  0.00     0.209 C 
HETATM    2  N4  UNL     1      15.079  28.628  12.296  1.00  0.00    -0.393 N 
ATOM      3  H4  UNL     1      14.929  28.318  13.256  1.00  0.00     0.155 HD
HETATM    4  C19 UNL     1      16.223  29.392  11.928  1.00  0.00     0.115 C 
HETATM    5  C21 UNL     1      15.866  30.796  11.505  1.00  0.00     0.102 C 
HETATM    6  C26 UNL     1      14.550  30.710  10.836  1.00  0.00     0.228 C 
HETATM    7  O2  UNL     1      13.891  31.773  10.636  1.00  0.00    -0.273 OA
HETATM    8  N8  UNL     1      13.999  29.495  10.415  1.00  0.00    -0.323 N 
ENDROOT
BRANCH   1   9
HETATM    9  C17 UNL     1      12.818  27.896  11.819  1.00  0.00     0.288 C 
BRANCH   9  10
HETATM   10  N1  UNL     1      12.580  26.503  11.980  1.00  0.00    -0.051 N 
HETATM   11  C1  UNL     1      13.314  25.672  10.994  1.00  0.00     0.278 C 
HETATM   12  C2  UNL     1      11.198  26.166  11.689  1.00  0.00     0.278 C 
BRANCH  10  13
HETATM   13  C3  UNL     1      12.941  25.956  13.246  1.00  0.00     0.198 C 
HETATM   14  C4  UNL     1      13.034  26.758  14.443  1.00  0.00    -0.002 C 
BRANCH  14  15
HETATM   15  C5  UNL     1      11.977  27.471  15.136  1.00  0.00     0.030 C 
BRANCH  15  16
HETATM   16  C6  UNL     1      12.146  28.881  15.554  1.00  0.00     0.023 C 
BRANCH  16  17
HETATM   17  C7  UNL     1      13.081  29.783  14.874  1.00  0.00     0.120 C 
BRANCH  17  18
HETATM   18  N2  UNL     1      13.870  30.583  15.802  1.00  0.00    -0.389 N 
HETATM   19  C8  UNL     1      14.412  31.679  15.449  1.00  0.00     0.041 A 
HETATM   20  C9  UNL     1      14.337  32.239  14.206  1.00  0.00     0.047 A 
HETATM   21  C16 UNL     1      15.141  32.357  16.430  1.00  0.00     0.017 A 
HETATM   22  C10 UNL     1      14.967  33.456  13.914  1.00  0.00     0.090 A 
HETATM   23  N3  UNL     1      15.663  34.097  14.862  1.00  0.00    -0.365 N 
HETATM   24  C11 UNL     1      15.739  33.544  16.091  1.00  0.00     0.044 A 
ATOM     25  H3  UNL     1      16.125  34.983  14.659  1.00  0.00     0.165 HD
HETATM   26  C12 UNL     1      16.455  34.190  17.089  1.00  0.00     0.030 A 
HETATM   27  C13 UNL     1      16.566  33.672  18.362  1.00  0.00     0.002 A 
HETATM   28  C14 UNL     1      15.955  32.482  18.666  1.00  0.00     0.001 A 
HETATM   29  C15 UNL     1      15.236  31.806  17.710  1.00  0.00     0.016 A 
ATOM     30  H2  UNL     1      13.992  30.255  16.760  1.00  0.00     0.159 HD
ENDBRANCH  17  18
ENDBRANCH  16  17
ENDBRANCH  15  16
ENDBRANCH  14  15
ENDBRANCH  10  13
ENDBRANCH   9  10
ENDBRANCH   1   9
BRANCH   8  31
HETATM   31  C27 UNL     1      13.259  29.359   9.151  1.00  0.00     0.186 C 
BRANCH  31  32
HETATM   32  C28 UNL     1      14.189  28.684   8.181  1.00  0.00     0.043 A 
HETATM   33  C29 UNL     1      14.071  27.411   7.662  1.00  0.00     0.115 A 
HETATM   34  N9  UNL     1      15.093  27.173   6.829  1.00  0.00    -0.360 N 
HETATM   35  C30 UNL     1      15.856  28.282   6.817  1.00  0.00     0.180 A 
ATOM     36  H9  UNL     1      15.261  26.314   6.304  1.00  0.00     0.166 HD
HETATM   37  N10 UNL     1      15.308  29.196   7.636  1.00  0.00    -0.353 N 
ATOM     38  H10 UNL     1      15.681  30.128   7.817  1.00  0.00     0.166 HD
ENDBRANCH  31  32
ENDBRANCH   8  31
BRANCH   4  39
HETATM   39  C20 UNL     1      17.111  29.416  13.181  1.00  0.00     0.189 C 
BRANCH  39  40
HETATM   40  O1  UNL     1      18.192  30.258  12.961  1.00  0.00    -0.399 OA
ATOM     41  H1  UNL     1      18.647  30.406  13.782  1.00  0.00     0.209 HD
ENDBRANCH  39  40
ENDBRANCH   4  39
BRANCH   5  42
HETATM   42  C22 UNL     1      16.788  31.361  10.446  1.00  0.00     0.018 C 
BRANCH  42  43
HETATM   43  C23 UNL     1      16.953  32.830  10.443  1.00  0.00     0.020 C 
BRANCH  43  44
HETATM   44  C24 UNL     1      18.386  33.110  10.923  1.00  0.00     0.122 C 
BRANCH  44  45
HETATM   45  N5  UNL     1      18.377  33.508  12.316  1.00  0.00    -0.367 N 
HETATM   46  C25 UNL     1      18.350  34.739  12.688  1.00  0.00     0.196 C 
HETATM   47  N6  UNL     1      18.329  35.754  11.694  1.00  0.00    -0.067 NA
HETATM   48  N7  UNL     1      18.342  35.150  14.035  1.00  0.00    -0.067 NA
ATOM     49  H5  UNL     1      18.392  32.781  13.031  1.00  0.00     0.161 HD
ENDBRANCH  44  45
ENDBRANCH  43  44
ENDBRANCH  42  43
ENDBRANCH   5  42
TORSDOF 15
ENDMDL
MODEL 2
REMARK VINA RESULT: -9.124234726      1.886      8.951
REMARK  15 active torsions:
REMARK  status: ('A' for Active; 'I' for Inactive)
REMARK    1  A    between atoms: N1_2  and  C3_4 
REMARK    2  A    between atoms: N1_2  and  C17_22 
REMARK    3  A    between atoms: C4_5  and  C5_6 
REMARK    4  A    between atoms: C5_6  and  C6_7 
REMARK    5  A    between atoms: C6_7  and  C7_8 
REMARK    6  A    between atoms: C7_8  and  N2_9 
REMARK    7  A    between atoms: C17_22  and  C18_23 
REMARK    8  A    between atoms: C19_26  and  C20_27 
REMARK    9  A    between atoms: C20_27  and  O1_28 
REMARK   10  A    between atoms: C21_30  and  C22_31 
REMARK   11  A    between atoms: C22_31  and  C23_32 
REMARK   12  A    between atoms: C23_32  and  C24_33 
REMARK   13  A    between atoms: C24_33  and  N5_34 
REMARK   14  A    between atoms: N8_41  and  C27_42 
REMARK   15  A    between atoms: C27_42  and  C28_43 
ROOT
HETATM    1  C18 UNL     1      17.100  33.463  14.019  1.00  0.00     0.209 C 
HETATM    2  N4  UNL     1      17.468  32.304  13.249  1.00  0.00    -0.393 N 
ATOM      3  H4  UNL     1      17.979  32.386  12.370  1.00  0.00     0.155 HD
HETATM    4  C19 UNL     1      17.085  31.038  13.776  1.00  0.00     0.115 C 
HETATM    5  C21 UNL     1      15.588  30.847  13.785  1.00  0.00     0.102 C 
HETATM    6  C26 UNL     1      14.998  32.179  14.041  1.00  0.00     0.228 C 
HETATM    7  O2  UNL     1      13.763  32.357  13.821  1.00  0.00    -0.273 OA
HETATM    8  N8  UNL     1      15.753  33.256  14.517  1.00  0.00    -0.323 N 
ENDROOT
BRANCH   1   9
HETATM    9  C17 UNL     1      17.175  34.709  13.180  1.00  0.00     0.288 C 
BRANCH   9  10
HETATM   10  N1  UNL     1      18.410  35.414  13.154  1.00  0.00    -0.051 N 
HETATM   11  C1  UNL     1      19.105  35.412  14.465  1.00  0.00     0.278 C 
HETATM   12  C2  UNL     1      18.205  36.832  12.923  1.00  0.00     0.278 C 
BRANCH  10  13
HETATM   13  C3  UNL     1      19.382  34.924  12.234  1.00  0.00     0.198 C 
HETATM   14  C4  UNL     1      19.039  34.085  11.111  1.00  0.00    -0.002 C 
BRANCH  14  15
HETATM   15  C5  UNL     1      18.222  34.412   9.957  1.00  0.00     0.030 C 
BRANCH  15  16
HETATM   16  C6  UNL     1      17.174  33.486   9.468  1.00  0.00     0.023 C 
BRANCH  16  17
HETATM   17  C7  UNL     1      16.805  32.276  10.209  1.00  0.00     0.120 C 
BRANCH  17  18
HETATM   18  N2  UNL     1      16.465  31.161   9.335  1.00  0.00    -0.389 N 
HETATM   19  C8  UNL     1      15.508  30.366   9.604  1.00  0.00     0.041 A 
HETATM   20  C9  UNL     1      14.699  30.439  10.701  1.00  0.00     0.047 A 
HETATM   21  C16 UNL     1      15.278  29.337   8.687  1.00  0.00     0.017 A 
HETATM   22  C10 UNL     1      13.666  29.515  10.909  1.00  0.00     0.090 A 
HETATM   23  N3  UNL     1      13.454  28.533  10.023  1.00  0.00    -0.365 N 
HETATM   24  C11 UNL     1      14.254  28.460   8.938  1.00  0.00     0.044 A 
ATOM     25  H3  UNL     1      12.705  27.857  10.165  1.00  0.00     0.165 HD
HETATM   26  C12 UNL     1      14.053  27.451   8.007  1.00  0.00     0.030 A 
HETATM   27  C13 UNL     1      14.839  27.328   6.881  1.00  0.00     0.002 A 
HETATM   28  C14 UNL     1      15.855  28.223   6.661  1.00  0.00     0.001 A 
HETATM   29  C15 UNL     1      16.091  29.238   7.556  1.00  0.00     0.016 A 
ATOM     30  H2  UNL     1      17.009  31.013   8.485  1.00  0.00     0.159 HD
ENDBRANCH  17  18
ENDBRANCH  16  17
ENDBRANCH  15  16
ENDBRANCH  14  15
ENDBRANCH  10  13
ENDBRANCH   9  10
ENDBRANCH   1   9
BRANCH   8  31
HETATM   31  C27 UNL     1      15.231  34.209  15.508  1.00  0.00     0.186 C 
BRANCH  31  32
HETATM   32  C28 UNL     1      15.724  33.743  16.851  1.00  0.00     0.043 A 
HETATM   33  C29 UNL     1      16.656  34.362  17.657  1.00  0.00     0.115 A 
HETATM   34  N9  UNL     1      16.827  33.642  18.774  1.00  0.00    -0.360 N 
HETATM   35  C30 UNL     1      16.012  32.575  18.683  1.00  0.00     0.180 A 
ATOM     36  H9  UNL     1      17.455  33.862  19.548  1.00  0.00     0.166 HD
HETATM   37  N10 UNL     1      15.345  32.637  17.516  1.00  0.00    -0.353 N 
ATOM     38  H10 UNL     1      14.661  31.954  17.189  1.00  0.00     0.166 HD
ENDBRANCH  31  32
ENDBRANCH   8  31
BRANCH   4  39
HETATM   39  C20 UNL     1      17.755  30.002  12.860  1.00  0.00     0.189 C 
BRANCH  39  40
HETATM   40  O1  UNL     1      17.371  28.727  13.253  1.00  0.00    -0.399 OA
ATOM     41  H1  UNL     1      17.910  28.085  12.804  1.00  0.00     0.209 HD
ENDBRANCH  39  40
ENDBRANCH   4  39
BRANCH   5  42
HETATM   42  C22 UNL     1      15.094  29.992  14.930  1.00  0.00     0.018 C 
BRANCH  42  43
HETATM   43  C23 UNL     1      14.176  28.889  14.572  1.00  0.00     0.020 C 
BRANCH  43  44
HETATM   44  C24 UNL     1      12.790  29.285  15.107  1.00  0.00     0.122 C 
BRANCH  44  45
HETATM   45  N5  UNL     1      11.753  28.616  14.347  1.00  0.00    -0.367 N 
HETATM   46  C25 UNL     1      10.691  28.138  14.890  1.00  0.00     0.196 C 
HETATM   47  N6  UNL     1      10.522  28.268  16.294  1.00  0.00    -0.067 NA
HETATM   48  N7  UNL     1       9.670  27.483  14.172  1.00  0.00    -0.067 NA
ATOM     49  H5  UNL     1      11.872  28.521  13.338  1.00  0.00     0.161 HD
ENDBRANCH  44  45
ENDBRANCH  43  44
ENDBRANCH  42  43
ENDBRANCH   5  42
TORSDOF 15
ENDMDL
MODEL 3
REMARK VINA RESULT: -8.979580450      1.962      5.882
REMARK  15 active torsions:
REMARK  status: ('A' for Active; 'I' for Inactive)
REMARK    1  A    between atoms: N1_2  and  C3_4 
REMARK    2  A    between atoms: N1_2  and  C17_22 
REMARK    3  A    between atoms: C4_5  and  C5_6 
REMARK    4  A    between atoms: C5_6  and  C6_7 
REMARK    5  A    between atoms: C6_7  and  C7_8 
REMARK    6  A    between atoms: C7_8  and  N2_9 
REMARK    7  A    between atoms: C17_22  and  C18_23 
REMARK    8  A    between atoms: C19_26  and  C20_27 
REMARK    9  A    between atoms: C20_27  and  O1_28 
REMARK   10  A    between atoms: C21_30  and  C22_31 
REMARK   11  A    between atoms: C22_31  and  C23_32 
REMARK   12  A    between atoms: C23_32  and  C24_33 
REMARK   13  A    between atoms: C24_33  and  N5_34 
REMARK   14  A    between atoms: N8_41  and  C27_42 
REMARK   15  A    between atoms: C27_42  and  C28_43 
ROOT
HETATM    1  C18 UNL     1      13.132  28.161  11.077  1.00  0.00     0.209 C 
HETATM    2  N4  UNL     1      13.796  29.432  11.203  1.00  0.00    -0.393 N 
ATOM      3  H4  UNL     1      14.509  29.732  10.538  1.00  0.00     0.155 HD
HETATM    4  C19 UNL     1      13.408  30.251  12.302  1.00  0.00     0.115 C 
HETATM    5  C21 UNL     1      13.796  29.650  13.631  1.00  0.00     0.102 C 
HETATM    6  C26 UNL     1      13.684  28.184  13.478  1.00  0.00     0.228 C 
HETATM    7  O2  UNL     1      14.217  27.432  14.346  1.00  0.00    -0.273 OA
HETATM    8  N8  UNL     1      13.009  27.590  12.406  1.00  0.00    -0.323 N 
ENDROOT
BRANCH   1   9
HETATM    9  C17 UNL     1      13.904  27.242  10.169  1.00  0.00     0.288 C 
BRANCH   9  10
HETATM   10  N1  UNL     1      13.338  26.942   8.899  1.00  0.00    -0.051 N 
HETATM   11  C1  UNL     1      12.198  25.997   8.982  1.00  0.00     0.278 C 
HETATM   12  C2  UNL     1      14.274  26.214   8.062  1.00  0.00     0.278 C 
BRANCH  10  13
HETATM   13  C3  UNL     1      12.825  28.056   8.172  1.00  0.00     0.198 C 
HETATM   14  C4  UNL     1      13.626  29.215   7.854  1.00  0.00    -0.002 C 
BRANCH  14  15
HETATM   15  C5  UNL     1      14.799  29.294   7.004  1.00  0.00     0.030 C 
BRANCH  15  16
HETATM   16  C6  UNL     1      16.162  29.373   7.578  1.00  0.00     0.023 C 
BRANCH  16  17
HETATM   17  C7  UNL     1      16.390  29.727   8.982  1.00  0.00     0.120 C 
BRANCH  17  18
HETATM   18  N2  UNL     1      16.681  31.143   9.168  1.00  0.00    -0.389 N 
HETATM   19  C8  UNL     1      17.025  31.615  10.299  1.00  0.00     0.041 A 
HETATM   20  C9  UNL     1      17.163  30.895  11.451  1.00  0.00     0.047 A 
HETATM   21  C16 UNL     1      17.280  32.987  10.349  1.00  0.00     0.017 A 
HETATM   22  C10 UNL     1      17.550  31.506  12.651  1.00  0.00     0.090 A 
HETATM   23  N3  UNL     1      17.793  32.822  12.687  1.00  0.00    -0.365 N 
HETATM   24  C11 UNL     1      17.656  33.535  11.548  1.00  0.00     0.044 A 
ATOM     25  H3  UNL     1      18.076  33.276  13.555  1.00  0.00     0.165 HD
HETATM   26  C12 UNL     1      17.902  34.901  11.562  1.00  0.00     0.030 A 
HETATM   27  C13 UNL     1      17.778  35.678  10.430  1.00  0.00     0.002 A 
HETATM   28  C14 UNL     1      17.400  35.097   9.246  1.00  0.00     0.001 A 
HETATM   29  C15 UNL     1      17.146  33.748   9.185  1.00  0.00     0.016 A 
ATOM     30  H2  UNL     1      16.607  31.773   8.369  1.00  0.00     0.159 HD
ENDBRANCH  17  18
ENDBRANCH  16  17
ENDBRANCH  15  16
ENDBRANCH  14  15
ENDBRANCH  10  13
ENDBRANCH   9  10
ENDBRANCH   1   9
BRANCH   8  31
HETATM   31  C27 UNL     1      12.176  26.389  12.564  1.00  0.00     0.186 C 
BRANCH  31  32
HETATM   32  C28 UNL     1      10.745  26.849  12.487  1.00  0.00     0.043 A 
HETATM   33  C29 UNL     1      10.144  27.832  13.244  1.00  0.00     0.115 A 
HETATM   34  N9  UNL     1       8.860  27.953  12.879  1.00  0.00    -0.360 N 
HETATM   35  C30 UNL     1       8.644  27.057  11.898  1.00  0.00     0.180 A 
ATOM     36  H9  UNL     1       8.177  28.602  13.270  1.00  0.00     0.166 HD
HETATM   37  N10 UNL     1       9.787  26.388  11.662  1.00  0.00    -0.353 N 
ATOM     38  H10 UNL     1       9.907  25.649  10.969  1.00  0.00     0.166 HD
ENDBRANCH  31  32
ENDBRANCH   8  31
BRANCH   4  39
HETATM   39  C20 UNL     1      14.132  31.588  12.082  1.00  0.00     0.189 C 
BRANCH  39  40
HETATM   40  O1  UNL     1      13.313  32.626  12.504  1.00  0.00    -0.399 OA
ATOM     41  H1  UNL     1      13.164  33.222  11.779  1.00  0.00     0.209 HD
ENDBRANCH  39  40
ENDBRANCH   4  39
BRANCH   5  42
HETATM   42  C22 UNL     1      12.834  29.985  14.749  1.00  0.00     0.018 C 
BRANCH  42  43
HETATM   43  C23 UNL     1      13.442  30.417  16.026  1.00  0.00     0.020 C 
BRANCH  43  44
HETATM   44  C24 UNL     1      14.912  30.748  15.719  1.00  0.00     0.122 C 
BRANCH  44  45
HETATM   45  N5  UNL     1      15.389  31.777  16.620  1.00  0.00    -0.367 N 
HETATM   46  C25 UNL     1      15.594  32.990  16.244  1.00  0.00     0.196 C 
HETATM   47  N6  UNL     1      15.342  33.339  14.891  1.00  0.00    -0.067 NA
HETATM   48  N7  UNL     1      16.059  34.007  17.101  1.00  0.00    -0.067 NA
ATOM     49  H5  UNL     1      15.571  31.529  17.592  1.00  0.00     0.161 HD
ENDBRANCH  44  45
ENDBRANCH  43  44
ENDBRANCH  42  43
ENDBRANCH   5  42
TORSDOF 15
ENDMDL
MODEL 4
REMARK VINA RESULT: -8.965978308      1.944      6.374
REMARK  15 active torsions:
REMARK  status: ('A' for Active; 'I' for Inactive)
REMARK    1  A    between atoms: N1_2  and  C3_4 
REMARK    2  A    between atoms: N1_2  and  C17_22 
REMARK    3  A    between atoms: C4_5  and  C5_6 
REMARK    4  A    between atoms: C5_6  and  C6_7 
REMARK    5  A    between atoms: C6_7  and  C7_8 
REMARK    6  A    between atoms: C7_8  and  N2_9 
REMARK    7  A    between atoms: C17_22  and  C18_23 
REMARK    8  A    between atoms: C19_26  and  C20_27 
REMARK    9  A    between atoms: C20_27  and  O1_28 
REMARK   10  A    between atoms: C21_30  and  C22_31 
REMARK   11  A    between atoms: C22_31  and  C23_32 
REMARK   12  A    between atoms: C23_32  and  C24_33 
REMARK   13  A    between atoms: C24_33  and  N5_34 
REMARK   14  A    between atoms: N8_41  and  C27_42 
REMARK   15  A    between atoms: C27_42  and  C28_43 
ROOT
HETATM    1  C18 UNL     1      14.159  30.502  15.303  1.00  0.00     0.209 C 
HETATM    2  N4  UNL     1      14.341  31.061  16.616  1.00  0.00    -0.393 N 
ATOM      3  H4  UNL     1      13.636  30.955  17.346  1.00  0.00     0.155 HD
HETATM    4  C19 UNL     1      15.555  31.769  16.848  1.00  0.00     0.115 C 
HETATM    5  C21 UNL     1      15.643  33.040  16.039  1.00  0.00     0.102 C 
HETATM    6  C26 UNL     1      14.952  32.770  14.759  1.00  0.00     0.228 C 
HETATM    7  O2  UNL     1      14.635  33.744  14.014  1.00  0.00    -0.273 OA
HETATM    8  N8  UNL     1      14.633  31.476  14.336  1.00  0.00    -0.323 N 
ENDROOT
BRANCH   1   9
HETATM    9  C17 UNL     1      12.713  30.167  15.059  1.00  0.00     0.288 C 
BRANCH   9  10
HETATM   10  N1  UNL     1      12.388  28.811  14.783  1.00  0.00    -0.051 N 
HETATM   11  C1  UNL     1      11.329  28.666  13.755  1.00  0.00     0.278 C 
HETATM   12  C2  UNL     1      11.780  28.168  15.934  1.00  0.00     0.278 C 
BRANCH  10  13
HETATM   13  C3  UNL     1      13.461  28.003  14.306  1.00  0.00     0.198 C 
HETATM   14  C4  UNL     1      13.424  26.560  14.338  1.00  0.00    -0.002 C 
BRANCH  14  15
HETATM   15  C5  UNL     1      12.531  25.664  13.626  1.00  0.00     0.030 C 
BRANCH  15  16
HETATM   16  C6  UNL     1      12.707  25.391  12.181  1.00  0.00     0.023 C 
BRANCH  16  17
HETATM   17  C7  UNL     1      12.102  26.243  11.154  1.00  0.00     0.120 C 
BRANCH  17  18
HETATM   18  N2  UNL     1      13.056  27.163  10.549  1.00  0.00    -0.389 N 
HETATM   19  C8  UNL     1      13.502  26.988   9.370  1.00  0.00     0.041 A 
HETATM   20  C9  UNL     1      13.166  25.959   8.538  1.00  0.00     0.047 A 
HETATM   21  C16 UNL     1      14.410  27.941   8.900  1.00  0.00     0.017 A 
HETATM   22  C10 UNL     1      13.710  25.853   7.251  1.00  0.00     0.090 A 
HETATM   23  N3  UNL     1      14.579  26.773   6.811  1.00  0.00    -0.365 N 
HETATM   24  C11 UNL     1      14.912  27.791   7.633  1.00  0.00     0.044 A 
ATOM     25  H3  UNL     1      14.980  26.705   5.876  1.00  0.00     0.165 HD
HETATM   26  C12 UNL     1      15.811  28.754   7.199  1.00  0.00     0.030 A 
HETATM   27  C13 UNL     1      16.187  29.815   7.995  1.00  0.00     0.002 A 
HETATM   28  C14 UNL     1      15.665  29.935   9.258  1.00  0.00     0.001 A 
HETATM   29  C15 UNL     1      14.772  29.004   9.730  1.00  0.00     0.016 A 
ATOM     30  H2  UNL     1      13.376  27.969  11.086  1.00  0.00     0.159 HD
ENDBRANCH  17  18
ENDBRANCH  16  17
ENDBRANCH  15  16
ENDBRANCH  14  15
ENDBRANCH  10  13
ENDBRANCH   9  10
ENDBRANCH   1   9
BRANCH   8  31
HETATM   31  C27 UNL     1      14.748  31.052  12.933  1.00  0.00     0.186 C 
BRANCH  31  32
HETATM   32  C28 UNL     1      16.139  31.415  12.489  1.00  0.00     0.043 A 
HETATM   33  C29 UNL     1      17.304  30.724  12.751  1.00  0.00     0.115 A 
HETATM   34  N9  UNL     1      18.337  31.361  12.183  1.00  0.00    -0.360 N 
HETATM   35  C30 UNL     1      17.837  32.447  11.565  1.00  0.00     0.180 A 
ATOM     36  H9  UNL     1      19.316  31.076  12.214  1.00  0.00     0.166 HD
HETATM   37  N10 UNL     1      16.506  32.479  11.752  1.00  0.00    -0.353 N 
ATOM     38  H10 UNL     1      15.875  33.196  11.393  1.00  0.00     0.166 HD
ENDBRANCH  31  32
ENDBRANCH   8  31
BRANCH   4  39
HETATM   39  C20 UNL     1      15.554  32.087  18.352  1.00  0.00     0.189 C 
BRANCH  39  40
HETATM   40  O1  UNL     1      16.577  32.982  18.630  1.00  0.00    -0.399 OA
ATOM     41  H1  UNL     1      16.809  32.917  19.550  1.00  0.00     0.209 HD
ENDBRANCH  39  40
ENDBRANCH   4  39
BRANCH   5  42
HETATM   42  C22 UNL     1      17.055  33.402  15.634  1.00  0.00     0.018 C 
BRANCH  42  43
HETATM   43  C23 UNL     1      17.456  34.807  15.853  1.00  0.00     0.020 C 
BRANCH  43  44
HETATM   44  C24 UNL     1      17.953  35.336  14.498  1.00  0.00     0.122 C 
BRANCH  44  45
HETATM   45  N5  UNL     1      19.310  34.889  14.255  1.00  0.00    -0.367 N 
HETATM   46  C25 UNL     1      20.250  35.685  13.885  1.00  0.00     0.196 C 
HETATM   47  N6  UNL     1      19.949  37.062  13.706  1.00  0.00    -0.067 NA
HETATM   48  N7  UNL     1      21.575  35.274  13.642  1.00  0.00    -0.067 NA
ATOM     49  H5  UNL     1      19.528  33.901  14.383  1.00  0.00     0.161 HD
ENDBRANCH  44  45
ENDBRANCH  43  44
ENDBRANCH  42  43
ENDBRANCH   5  42
TORSDOF 15
ENDMDL
MODEL 5
REMARK VINA RESULT: -8.907562294      2.064      7.233
REMARK  15 active torsions:
REMARK  status: ('A' for Active; 'I' for Inactive)
REMARK    1  A    between atoms: N1_2  and  C3_4 
REMARK    2  A    between atoms: N1_2  and  C17_22 
REMARK    3  A    between atoms: C4_5  and  C5_6 
REMARK    4  A    between atoms: C5_6  and  C6_7 
REMARK    5  A    between atoms: C6_7  and  C7_8 
REMARK    6  A    between atoms: C7_8  and  N2_9 
REMARK    7  A    between atoms: C17_22  and  C18_23 
REMARK    8  A    between atoms: C19_26  and  C20_27 
REMARK    9  A    between atoms: C20_27  and  O1_28 
REMARK   10  A    between atoms: C21_30  and  C22_31 
REMARK   11  A    between atoms: C22_31  and  C23_32 
REMARK   12  A    between atoms: C23_32  and  C24_33 
REMARK   13  A    between atoms: C24_33  and  N5_34 
REMARK   14  A    between atoms: N8_41  and  C27_42 
REMARK   15  A    between atoms: C27_42  and  C28_43 
ROOT
HETATM    1  C18 UNL     1      14.197  30.665  14.948  1.00  0.00     0.209 C 
HETATM    2  N4  UNL     1      12.993  30.112  15.509  1.00  0.00    -0.393 N 
ATOM      3  H4  UNL     1      12.630  30.425  16.410  1.00  0.00     0.155 HD
HETATM    4  C19 UNL     1      12.335  29.106  14.747  1.00  0.00     0.115 C 
HETATM    5  C21 UNL     1      13.148  27.839  14.641  1.00  0.00     0.102 C 
HETATM    6  C26 UNL     1      14.567  28.253  14.606  1.00  0.00     0.228 C 
HETATM    7  O2  UNL     1      15.467  27.384  14.803  1.00  0.00    -0.273 OA
HETATM    8  N8  UNL     1      14.958  29.574  14.365  1.00  0.00    -0.323 N 
ENDROOT
BRANCH   1   9
HETATM    9  C17 UNL     1      15.003  31.375  16.002  1.00  0.00     0.288 C 
BRANCH   9  10
HETATM   10  N1  UNL     1      15.548  32.646  15.670  1.00  0.00    -0.051 N 
HETATM   11  C1  UNL     1      14.836  33.306  14.548  1.00  0.00     0.278 C 
HETATM   12  C2  UNL     1      16.894  32.522  15.141  1.00  0.00     0.278 C 
BRANCH  10  13
HETATM   13  C3  UNL     1      15.541  33.614  16.716  1.00  0.00     0.198 C 
HETATM   14  C4  UNL     1      16.683  34.444  17.017  1.00  0.00    -0.002 C 
BRANCH  14  15
HETATM   15  C5  UNL     1      17.308  35.456  16.186  1.00  0.00     0.030 C 
BRANCH  15  16
HETATM   16  C6  UNL     1      18.776  35.497  15.996  1.00  0.00     0.023 C 
BRANCH  16  17
HETATM   17  C7  UNL     1      19.379  35.882  14.716  1.00  0.00     0.120 C 
BRANCH  17  18
HETATM   18  N2  UNL     1      18.873  35.099  13.596  1.00  0.00    -0.389 N 
HETATM   19  C8  UNL     1      18.282  35.646  12.609  1.00  0.00     0.041 A 
HETATM   20  C9  UNL     1      18.048  36.983  12.464  1.00  0.00     0.047 A 
HETATM   21  C16 UNL     1      17.845  34.790  11.595  1.00  0.00     0.017 A 
HETATM   22  C10 UNL     1      17.391  37.491  11.336  1.00  0.00     0.090 A 
HETATM   23  N3  UNL     1      16.976  36.662  10.370  1.00  0.00    -0.365 N 
HETATM   24  C11 UNL     1      17.206  35.339  10.512  1.00  0.00     0.044 A 
ATOM     25  H3  UNL     1      16.497  37.021   9.545  1.00  0.00     0.165 HD
HETATM   26  C12 UNL     1      16.785  34.461   9.524  1.00  0.00     0.030 A 
HETATM   27  C13 UNL     1      16.993  33.101   9.616  1.00  0.00     0.002 A 
HETATM   28  C14 UNL     1      17.636  32.586  10.713  1.00  0.00     0.001 A 
HETATM   29  C15 UNL     1      18.070  33.417  11.717  1.00  0.00     0.016 A 
ATOM     30  H2  UNL     1      18.994  34.087  13.603  1.00  0.00     0.159 HD
ENDBRANCH  17  18
ENDBRANCH  16  17
ENDBRANCH  15  16
ENDBRANCH  14  15
ENDBRANCH  10  13
ENDBRANCH   9  10
ENDBRANCH   1   9
BRANCH   8  31
HETATM   31  C27 UNL     1      16.128  29.914  13.542  1.00  0.00     0.186 C 
BRANCH  31  32
HETATM   32  C28 UNL     1      15.714  29.721  12.109  1.00  0.00     0.043 A 
HETATM   33  C29 UNL     1      14.733  30.408  11.426  1.00  0.00     0.115 A 
HETATM   34  N9  UNL     1      14.663  29.951  10.168  1.00  0.00    -0.360 N 
HETATM   35  C30 UNL     1      15.591  28.983  10.049  1.00  0.00     0.180 A 
ATOM     36  H9  UNL     1      14.028  30.276   9.438  1.00  0.00     0.166 HD
HETATM   37  N10 UNL     1      16.227  28.844  11.226  1.00  0.00    -0.353 N 
ATOM     38  H10 UNL     1      16.977  28.180  11.419  1.00  0.00     0.166 HD
ENDBRANCH  31  32
ENDBRANCH   8  31
BRANCH   4  39
HETATM   39  C20 UNL     1      11.015  28.839  15.487  1.00  0.00     0.189 C 
BRANCH  39  40
HETATM   40  O1  UNL     1      11.293  28.384  16.768  1.00  0.00    -0.399 OA
ATOM     41  H1  UNL     1      10.942  28.998  17.402  1.00  0.00     0.209 HD
ENDBRANCH  39  40
ENDBRANCH   4  39
BRANCH   5  42
HETATM   42  C22 UNL     1      12.943  27.095  13.340  1.00  0.00     0.018 C 
BRANCH  42  43
HETATM   43  C23 UNL     1      12.312  27.861  12.244  1.00  0.00     0.020 C 
BRANCH  43  44
HETATM   44  C24 UNL     1      11.799  26.828  11.228  1.00  0.00     0.122 C 
BRANCH  44  45
HETATM   45  N5  UNL     1      12.562  26.915   9.999  1.00  0.00    -0.367 N 
HETATM   46  C25 UNL     1      13.393  26.006   9.629  1.00  0.00     0.196 C 
HETATM   47  N6  UNL     1      13.574  24.867  10.457  1.00  0.00    -0.067 NA
HETATM   48  N7  UNL     1      14.146  26.070   8.440  1.00  0.00    -0.067 NA
ATOM     49  H5  UNL     1      12.433  27.733   9.402  1.00  0.00     0.161 HD
ENDBRANCH  44  45
ENDBRANCH  43  44
ENDBRANCH  42  43
ENDBRANCH   5  42
TORSDOF 15
ENDMDL
