MODEL 1
REMARK VINA RESULT: -8.952281284      0.000      0.000
REMARK  17 active torsions:
REMARK  status: ('A' for Active; 'I' for Inactive)
REMARK    1  A    between atoms: C2_2  and  C3_3 
REMARK    2  A    between atoms: C3_3  and  C4_4 
REMARK    3  A    between atoms: C4_4  and  C5_5 
REMARK    4  A    between atoms: C5_5  and  C6_6 
REMARK    5  A    between atoms: C6_6  and  S1_7 
REMARK    6  A    between atoms: S1_7  and  C7_9 
REMARK    7  A    between atoms: C7_9  and  C8_10 
REMARK    8  A    between atoms: C7_9  and  C16_24 
REMARK    9  A    between atoms: C8_10  and  C9_11 
REMARK   10  A    between atoms: C12_14  and  N1_15 
REMARK       I    between atoms: N1_15  and  C13_17 
REMARK       I    between atoms: C16_24  and  N4_26 
REMARK   11  A    between atoms: N4_26  and  C17_27 
REMARK   12  A    between atoms: N4_26  and  C25_41 
REMARK   13  A    between atoms: C17_27  and  C18_28 
REMARK   14  A    between atoms: C18_28  and  C19_29 
REMARK   15  A    between atoms: C22_32  and  S2_33 
REMARK   16  A    between atoms: S2_33  and  N5_34 
REMARK   17  A    between atoms: C25_41  and  C26_42 
ROOT
HETATM    1  C7  UNL     1      15.911  32.069  14.177  1.00  0.00     0.175 C 
ENDROOT
BRANCH   1   2
HETATM    2  S1  UNL     1      14.459  31.234  14.406  1.00  0.00     0.028 S 
HETATM    3  O1  UNL     1      14.002  30.963  16.007  1.00  0.00    -0.257 OA
BRANCH   2   4
HETATM    4  C6  UNL     1      13.805  30.094  13.308  1.00  0.00     0.109 C 
BRANCH   4   5
HETATM    5  C5  UNL     1      14.038  28.642  13.791  1.00  0.00     0.013 C 
BRANCH   5   6
HETATM    6  C4  UNL     1      12.790  27.834  13.811  1.00  0.00     0.001 C 
BRANCH   6   7
HETATM    7  C3  UNL     1      12.386  27.322  15.155  1.00  0.00    -0.000 C 
BRANCH   7   8
HETATM    8  C2  UNL     1      11.547  28.358  15.894  1.00  0.00    -0.005 C 
HETATM    9  C1  UNL     1      10.625  29.107  14.980  1.00  0.00     0.005 C 
ENDBRANCH   7   8
ENDBRANCH   6   7
ENDBRANCH   5   6
ENDBRANCH   4   5
ENDBRANCH   2   4
ENDBRANCH   1   2
BRANCH   1  10
HETATM   10  C8  UNL     1      16.865  32.215  15.288  1.00  0.00     0.065 C 
BRANCH  10  11
HETATM   11  C9  UNL     1      17.191  33.518  15.859  1.00  0.00    -0.056 A 
HETATM   12  C10 UNL     1      16.965  33.851  17.178  1.00  0.00     0.009 A 
HETATM   13  C11 UNL     1      17.294  35.081  17.699  1.00  0.00     0.030 A 
HETATM   14  C12 UNL     1      17.873  36.057  16.930  1.00  0.00     0.034 A 
HETATM   15  C14 UNL     1      18.107  35.749  15.611  1.00  0.00     0.030 A 
HETATM   16  C15 UNL     1      17.784  34.524  15.075  1.00  0.00     0.009 A 
BRANCH  14  17
HETATM   17  N1  UNL     1      18.200  37.313  17.495  1.00  0.00    -0.331 N 
HETATM   18  C13 UNL     1      18.173  38.502  16.723  1.00  0.00     0.186 C 
HETATM   19  N2  UNL     1      19.205  38.830  16.012  1.00  0.00    -0.373 N 
HETATM   20  N3  UNL     1      17.052  39.353  16.702  1.00  0.00    -0.064 NA
ATOM     21  H22 UNL     1      20.017  38.213  16.028  1.00  0.00     0.158 HD
ATOM     22  H21 UNL     1      19.185  39.686  15.457  1.00  0.00     0.158 HD
ATOM     23  H1  UNL     1      18.461  37.363  18.480  1.00  0.00     0.168 HD
ENDBRANCH  14  17
ENDBRANCH  10  11
ENDBRANCH   1  10
BRANCH   1  24
HETATM   24  C16 UNL     1      16.678  31.414  13.042  1.00  0.00     0.236 C 
HETATM   25  O2  UNL     1      17.412  30.457  13.362  1.00  0.00    -0.272 OA
HETATM   26  N4  UNL     1      16.577  31.843  11.701  1.00  0.00    -0.343 N 
BRANCH  26  27
HETATM   27  C17 UNL     1      17.310  31.115  10.686  1.00  0.00     0.131 C 
BRANCH  27  28
HETATM   28  C18 UNL     1      16.515  31.112   9.401  1.00  0.00     0.058 C 
BRANCH  28  29
HETATM   29  C19 UNL     1      15.781  29.866   9.174  1.00  0.00    -0.057 A 
HETATM   30  C20 UNL     1      15.507  29.338   7.931  1.00  0.00     0.009 A 
HETATM   31  C21 UNL     1      14.812  28.159   7.772  1.00  0.00     0.026 A 
HETATM   32  C22 UNL     1      14.356  27.452   8.873  1.00  0.00     0.079 A 
HETATM   33  C23 UNL     1      14.617  27.960  10.113  1.00  0.00     0.026 A 
HETATM   34  C24 UNL     1      15.321  29.154  10.264  1.00  0.00     0.009 A 
BRANCH  32  35
HETATM   35  S2  UNL     1      13.473  25.952   8.613  1.00  0.00     0.256 S 
HETATM   36  O3  UNL     1      13.662  25.017   9.767  1.00  0.00    -0.201 OA
HETATM   37  O4  UNL     1      14.005  25.246   7.386  1.00  0.00    -0.201 OA
BRANCH  35  38
HETATM   38  N5  UNL     1      11.795  26.313   8.376  1.00  0.00    -0.324 N 
ATOM     39  H52 UNL     1      11.429  27.235   8.140  1.00  0.00     0.169 HD
ATOM     40  H51 UNL     1      11.247  25.463   8.510  1.00  0.00     0.169 HD
ENDBRANCH  35  38
ENDBRANCH  32  35
ENDBRANCH  28  29
ENDBRANCH  27  28
ENDBRANCH  26  27
BRANCH  26  41
HETATM   41  C25 UNL     1      15.821  32.985  11.247  1.00  0.00     0.225 C 
BRANCH  41  42
HETATM   42  C26 UNL     1      16.690  34.133  10.894  1.00  0.00     0.249 C 
HETATM   43  N6  UNL     1      16.402  34.883   9.731  1.00  0.00    -0.061 NA
HETATM   44  O5  UNL     1      17.674  34.457  11.594  1.00  0.00    -0.275 OA
ENDBRANCH  41  42
ENDBRANCH  26  41
ENDBRANCH   1  24
TORSDOF 17
ENDMDL
MODEL 2
REMARK VINA RESULT: -8.912612936      0.848      1.123
REMARK  17 active torsions:
REMARK  status: ('A' for Active; 'I' for Inactive)
REMARK    1  A    between atoms: C2_2  and  C3_3 
REMARK    2  A    between atoms: C3_3  and  C4_4 
REMARK    3  A    between atoms: C4_4  and  C5_5 
REMARK    4  A    between atoms: C5_5  and  C6_6 
REMARK    5  A    between atoms: C6_6  and  S1_7 
REMARK    6  A    between atoms: S1_7  and  C7_9 
REMARK    7  A    between atoms: C7_9  and  C8_10 
REMARK    8  A    between atoms: C7_9  and  C16_24 
REMARK    9  A    between atoms: C8_10  and  C9_11 
REMARK   10  A    between atoms: C12_14  and  N1_15 
REMARK       I    between atoms: N1_15  and  C13_17 
REMARK       I    between atoms: C16_24  and  N4_26 
REMARK   11  A    between atoms: N4_26  and  C17_27 
REMARK   12  A    between atoms: N4_26  and  C25_41 
REMARK   13  A    between atoms: C17_27  and  C18_28 
REMARK   14  A    between atoms: C18_28  and  C19_29 
REMARK   15  A    between atoms: C22_32  and  S2_33 
REMARK   16  A    between atoms: S2_33  and  N5_34 
REMARK   17  A    between atoms: C25_41  and  C26_42 
ROOT
HETATM    1  C7  UNL     1      15.817  31.903  14.048  1.00  0.00     0.175 C 
ENDROOT
BRANCH   1   2
HETATM    2  S1  UNL     1      14.376  31.028  14.174  1.00  0.00     0.028 S 
HETATM    3  O1  UNL     1      13.259  31.251  12.930  1.00  0.00    -0.257 OA
BRANCH   2   4
HETATM    4  C6  UNL     1      13.663  30.531  15.650  1.00  0.00     0.109 C 
BRANCH   4   5
HETATM    5  C5  UNL     1      12.709  29.329  15.445  1.00  0.00     0.013 C 
BRANCH   5   6
HETATM    6  C4  UNL     1      13.354  28.198  14.727  1.00  0.00     0.001 C 
BRANCH   6   7
HETATM    7  C3  UNL     1      12.526  26.959  14.620  1.00  0.00    -0.000 C 
BRANCH   7   8
HETATM    8  C2  UNL     1      12.649  26.350  13.228  1.00  0.00    -0.005 C 
HETATM    9  C1  UNL     1      11.715  26.982  12.241  1.00  0.00     0.005 C 
ENDBRANCH   7   8
ENDBRANCH   6   7
ENDBRANCH   5   6
ENDBRANCH   4   5
ENDBRANCH   2   4
ENDBRANCH   1   2
BRANCH   1  10
HETATM   10  C8  UNL     1      16.720  32.014  15.204  1.00  0.00     0.065 C 
BRANCH  10  11
HETATM   11  C9  UNL     1      17.076  33.304  15.786  1.00  0.00    -0.056 A 
HETATM   12  C10 UNL     1      16.768  33.668  17.080  1.00  0.00     0.009 A 
HETATM   13  C11 UNL     1      17.127  34.885  17.613  1.00  0.00     0.030 A 
HETATM   14  C12 UNL     1      17.816  35.817  16.881  1.00  0.00     0.034 A 
HETATM   15  C14 UNL     1      18.133  35.477  15.588  1.00  0.00     0.030 A 
HETATM   16  C15 UNL     1      17.782  34.265  15.040  1.00  0.00     0.009 A 
BRANCH  14  17
HETATM   17  N1  UNL     1      18.170  37.060  17.458  1.00  0.00    -0.331 N 
HETATM   18  C13 UNL     1      18.144  38.260  16.703  1.00  0.00     0.186 C 
HETATM   19  N2  UNL     1      19.167  38.585  15.977  1.00  0.00    -0.373 N 
HETATM   20  N3  UNL     1      17.034  39.126  16.714  1.00  0.00    -0.064 NA
ATOM     21  H22 UNL     1      19.971  37.958  15.969  1.00  0.00     0.158 HD
ATOM     22  H21 UNL     1      19.148  39.449  15.434  1.00  0.00     0.158 HD
ATOM     23  H1  UNL     1      18.450  37.093  18.438  1.00  0.00     0.168 HD
ENDBRANCH  14  17
ENDBRANCH  10  11
ENDBRANCH   1  10
BRANCH   1  24
HETATM   24  C16 UNL     1      16.646  31.323  12.916  1.00  0.00     0.236 C 
HETATM   25  O2  UNL     1      17.386  30.366  13.219  1.00  0.00    -0.272 OA
HETATM   26  N4  UNL     1      16.592  31.817  11.595  1.00  0.00    -0.343 N 
BRANCH  26  27
HETATM   27  C17 UNL     1      17.383  31.157  10.577  1.00  0.00     0.131 C 
BRANCH  27  28
HETATM   28  C18 UNL     1      16.599  31.111   9.287  1.00  0.00     0.058 C 
BRANCH  28  29
HETATM   29  C19 UNL     1      15.848  29.867   9.107  1.00  0.00    -0.057 A 
HETATM   30  C20 UNL     1      15.600  29.276   7.887  1.00  0.00     0.009 A 
HETATM   31  C21 UNL     1      14.887  28.102   7.771  1.00  0.00     0.026 A 
HETATM   32  C22 UNL     1      14.386  27.465   8.896  1.00  0.00     0.079 A 
HETATM   33  C23 UNL     1      14.622  28.036  10.114  1.00  0.00     0.026 A 
HETATM   34  C24 UNL     1      15.344  29.224  10.220  1.00  0.00     0.009 A 
BRANCH  32  35
HETATM   35  S2  UNL     1      13.483  25.969   8.692  1.00  0.00     0.256 S 
HETATM   36  O3  UNL     1      13.702  25.053   9.856  1.00  0.00    -0.201 OA
HETATM   37  O4  UNL     1      13.968  25.237   7.461  1.00  0.00    -0.201 OA
BRANCH  35  38
HETATM   38  N5  UNL     1      11.801  26.341   8.504  1.00  0.00    -0.324 N 
ATOM     39  H52 UNL     1      11.440  27.226   8.149  1.00  0.00     0.169 HD
ATOM     40  H51 UNL     1      11.245  25.540   8.803  1.00  0.00     0.169 HD
ENDBRANCH  35  38
ENDBRANCH  32  35
ENDBRANCH  28  29
ENDBRANCH  27  28
ENDBRANCH  26  27
BRANCH  26  41
HETATM   41  C25 UNL     1      15.831  32.966  11.166  1.00  0.00     0.225 C 
BRANCH  41  42
HETATM   42  C26 UNL     1      16.693  34.132  10.860  1.00  0.00     0.249 C 
HETATM   43  N6  UNL     1      16.399  34.928   9.730  1.00  0.00    -0.061 NA
HETATM   44  O5  UNL     1      17.675  34.433  11.573  1.00  0.00    -0.275 OA
ENDBRANCH  41  42
ENDBRANCH  26  41
ENDBRANCH   1  24
TORSDOF 17
ENDMDL
MODEL 3
REMARK VINA RESULT: -8.662402484      1.141      1.549
REMARK  17 active torsions:
REMARK  status: ('A' for Active; 'I' for Inactive)
REMARK    1  A    between atoms: C2_2  and  C3_3 
REMARK    2  A    between atoms: C3_3  and  C4_4 
REMARK    3  A    between atoms: C4_4  and  C5_5 
REMARK    4  A    between atoms: C5_5  and  C6_6 
REMARK    5  A    between atoms: C6_6  and  S1_7 
REMARK    6  A    between atoms: S1_7  and  C7_9 
REMARK    7  A    between atoms: C7_9  and  C8_10 
REMARK    8  A    between atoms: C7_9  and  C16_24 
REMARK    9  A    between atoms: C8_10  and  C9_11 
REMARK   10  A    between atoms: C12_14  and  N1_15 
REMARK       I    between atoms: N1_15  and  C13_17 
REMARK       I    between atoms: C16_24  and  N4_26 
REMARK   11  A    between atoms: N4_26  and  C17_27 
REMARK   12  A    between atoms: N4_26  and  C25_41 
REMARK   13  A    between atoms: C17_27  and  C18_28 
REMARK   14  A    between atoms: C18_28  and  C19_29 
REMARK   15  A    between atoms: C22_32  and  S2_33 
REMARK   16  A    between atoms: S2_33  and  N5_34 
REMARK   17  A    between atoms: C25_41  and  C26_42 
ROOT
HETATM    1  C7  UNL     1      16.437  32.747  13.382  1.00  0.00     0.175 C 
ENDROOT
BRANCH   1   2
HETATM    2  S1  UNL     1      14.876  32.288  13.842  1.00  0.00     0.028 S 
HETATM    3  O1  UNL     1      13.632  32.731  12.792  1.00  0.00    -0.257 OA
BRANCH   2   4
HETATM    4  C6  UNL     1      14.359  32.075  15.461  1.00  0.00     0.109 C 
BRANCH   4   5
HETATM    5  C5  UNL     1      14.432  30.590  15.890  1.00  0.00     0.013 C 
BRANCH   5   6
HETATM    6  C4  UNL     1      13.463  29.731  15.161  1.00  0.00     0.001 C 
BRANCH   6   7
HETATM    7  C3  UNL     1      12.184  29.461  15.883  1.00  0.00    -0.000 C 
BRANCH   7   8
HETATM    8  C2  UNL     1      11.705  28.038  15.614  1.00  0.00    -0.005 C 
HETATM    9  C1  UNL     1      12.733  27.212  14.903  1.00  0.00     0.005 C 
ENDBRANCH   7   8
ENDBRANCH   6   7
ENDBRANCH   5   6
ENDBRANCH   4   5
ENDBRANCH   2   4
ENDBRANCH   1   2
BRANCH   1  10
HETATM   10  C8  UNL     1      17.507  32.846  14.389  1.00  0.00     0.065 C 
BRANCH  10  11
HETATM   11  C9  UNL     1      17.676  34.032  15.221  1.00  0.00    -0.056 A 
HETATM   12  C10 UNL     1      17.213  34.128  16.516  1.00  0.00     0.009 A 
HETATM   13  C11 UNL     1      17.398  35.252  17.288  1.00  0.00     0.030 A 
HETATM   14  C12 UNL     1      18.059  36.354  16.810  1.00  0.00     0.034 A 
HETATM   15  C14 UNL     1      18.529  36.282  15.521  1.00  0.00     0.030 A 
HETATM   16  C15 UNL     1      18.353  35.167  14.735  1.00  0.00     0.009 A 
BRANCH  14  17
HETATM   17  N1  UNL     1      18.233  37.495  17.629  1.00  0.00    -0.331 N 
HETATM   18  C13 UNL     1      18.201  38.806  17.088  1.00  0.00     0.186 C 
HETATM   19  N2  UNL     1      19.276  39.315  16.575  1.00  0.00    -0.373 N 
HETATM   20  N3  UNL     1      17.029  39.586  17.091  1.00  0.00    -0.064 NA
ATOM     21  H22 UNL     1      20.124  38.749  16.573  1.00  0.00     0.158 HD
ATOM     22  H21 UNL     1      19.252  40.258  16.186  1.00  0.00     0.158 HD
ATOM     23  H1  UNL     1      18.384  37.371  18.630  1.00  0.00     0.168 HD
ENDBRANCH  14  17
ENDBRANCH  10  11
ENDBRANCH   1  10
BRANCH   1  24
HETATM   24  C16 UNL     1      16.940  31.782  12.323  1.00  0.00     0.236 C 
HETATM   25  O2  UNL     1      17.385  30.695  12.744  1.00  0.00    -0.272 OA
HETATM   26  N4  UNL     1      16.908  32.075  10.942  1.00  0.00    -0.343 N 
BRANCH  26  27
HETATM   27  C17 UNL     1      17.362  31.064  10.011  1.00  0.00     0.131 C 
BRANCH  27  28
HETATM   28  C18 UNL     1      16.374  30.954   8.873  1.00  0.00     0.058 C 
BRANCH  28  29
HETATM   29  C19 UNL     1      15.625  29.696   8.873  1.00  0.00    -0.057 A 
HETATM   30  C20 UNL     1      15.121  29.088  10.002  1.00  0.00     0.009 A 
HETATM   31  C21 UNL     1      14.420  27.903   9.948  1.00  0.00     0.026 A 
HETATM   32  C22 UNL     1      14.193  27.271   8.735  1.00  0.00     0.079 A 
HETATM   33  C23 UNL     1      14.685  27.858   7.605  1.00  0.00     0.026 A 
HETATM   34  C24 UNL     1      15.393  29.057   7.671  1.00  0.00     0.009 A 
BRANCH  32  35
HETATM   35  S2  UNL     1      13.293  25.759   8.722  1.00  0.00     0.256 S 
HETATM   36  O3  UNL     1      13.631  24.928   9.921  1.00  0.00    -0.201 OA
HETATM   37  O4  UNL     1      13.669  24.945   7.505  1.00  0.00    -0.201 OA
BRANCH  35  38
HETATM   38  N5  UNL     1      11.596  26.108   8.668  1.00  0.00    -0.324 N 
ATOM     39  H52 UNL     1      11.184  27.013   8.890  1.00  0.00     0.169 HD
ATOM     40  H51 UNL     1      11.090  25.269   8.382  1.00  0.00     0.169 HD
ENDBRANCH  35  38
ENDBRANCH  32  35
ENDBRANCH  28  29
ENDBRANCH  27  28
ENDBRANCH  26  27
BRANCH  26  41
HETATM   41  C25 UNL     1      16.488  33.331  10.368  1.00  0.00     0.225 C 
BRANCH  41  42
HETATM   42  C26 UNL     1      17.623  34.102   9.808  1.00  0.00     0.249 C 
HETATM   43  N6  UNL     1      17.620  34.431   8.433  1.00  0.00    -0.061 NA
HETATM   44  O5  UNL     1      18.585  34.471  10.516  1.00  0.00    -0.275 OA
ENDBRANCH  41  42
ENDBRANCH  26  41
ENDBRANCH   1  24
TORSDOF 17
ENDMDL
MODEL 4
REMARK VINA RESULT: -8.639084440      2.627      5.290
REMARK  17 active torsions:
REMARK  status: ('A' for Active; 'I' for Inactive)
REMARK    1  A    between atoms: C2_2  and  C3_3 
REMARK    2  A    between atoms: C3_3  and  C4_4 
REMARK    3  A    between atoms: C4_4  and  C5_5 
REMARK    4  A    between atoms: C5_5  and  C6_6 
REMARK    5  A    between atoms: C6_6  and  S1_7 
REMARK    6  A    between atoms: S1_7  and  C7_9 
REMARK    7  A    between atoms: C7_9  and  C8_10 
REMARK    8  A    between atoms: C7_9  and  C16_24 
REMARK    9  A    between atoms: C8_10  and  C9_11 
REMARK   10  A    between atoms: C12_14  and  N1_15 
REMARK       I    between atoms: N1_15  and  C13_17 
REMARK       I    between atoms: C16_24  and  N4_26 
REMARK   11  A    between atoms: N4_26  and  C17_27 
REMARK   12  A    between atoms: N4_26  and  C25_41 
REMARK   13  A    between atoms: C17_27  and  C18_28 
REMARK   14  A    between atoms: C18_28  and  C19_29 
REMARK   15  A    between atoms: C22_32  and  S2_33 
REMARK   16  A    between atoms: S2_33  and  N5_34 
REMARK   17  A    between atoms: C25_41  and  C26_42 
ROOT
HETATM    1  C7  UNL     1      16.042  31.579  11.390  1.00  0.00     0.175 C 
ENDROOT
BRANCH   1   2
HETATM    2  S1  UNL     1      16.254  30.023  10.763  1.00  0.00     0.028 S 
HETATM    3  O1  UNL     1      16.971  29.927   9.239  1.00  0.00    -0.257 OA
BRANCH   2   4
HETATM    4  C6  UNL     1      15.262  28.678  11.136  1.00  0.00     0.109 C 
BRANCH   4   5
HETATM    5  C5  UNL     1      14.443  28.218   9.906  1.00  0.00     0.013 C 
BRANCH   5   6
HETATM    6  C4  UNL     1      13.625  29.310   9.315  1.00  0.00     0.001 C 
BRANCH   6   7
HETATM    7  C3  UNL     1      13.226  29.106   7.891  1.00  0.00    -0.000 C 
BRANCH   7   8
HETATM    8  C2  UNL     1      14.432  29.246   6.969  1.00  0.00    -0.005 C 
HETATM    9  C1  UNL     1      14.812  27.948   6.322  1.00  0.00     0.005 C 
ENDBRANCH   7   8
ENDBRANCH   6   7
ENDBRANCH   5   6
ENDBRANCH   4   5
ENDBRANCH   2   4
ENDBRANCH   1   2
BRANCH   1  10
HETATM   10  C8  UNL     1      15.918  32.733  10.484  1.00  0.00     0.065 C 
BRANCH  10  11
HETATM   11  C9  UNL     1      16.529  34.022  10.788  1.00  0.00    -0.056 A 
HETATM   12  C10 UNL     1      16.624  35.055   9.879  1.00  0.00     0.009 A 
HETATM   13  C11 UNL     1      17.191  36.269  10.192  1.00  0.00     0.030 A 
HETATM   14  C12 UNL     1      17.700  36.526  11.440  1.00  0.00     0.034 A 
HETATM   15  C14 UNL     1      17.617  35.511  12.362  1.00  0.00     0.030 A 
HETATM   16  C15 UNL     1      17.054  34.292  12.065  1.00  0.00     0.009 A 
BRANCH  14  17
HETATM   17  N1  UNL     1      18.276  37.785  11.731  1.00  0.00    -0.331 N 
HETATM   18  C13 UNL     1      18.614  38.155  13.058  1.00  0.00     0.186 C 
HETATM   19  N2  UNL     1      17.709  38.666  13.832  1.00  0.00    -0.373 N 
HETATM   20  N3  UNL     1      19.913  37.988  13.573  1.00  0.00    -0.064 NA
ATOM     21  H22 UNL     1      16.767  38.786  13.459  1.00  0.00     0.158 HD
ATOM     22  H21 UNL     1      17.952  38.932  14.786  1.00  0.00     0.158 HD
ATOM     23  H1  UNL     1      18.453  38.441  10.970  1.00  0.00     0.168 HD
ENDBRANCH  14  17
ENDBRANCH  10  11
ENDBRANCH   1  10
BRANCH   1  24
HETATM   24  C16 UNL     1      14.800  31.591  12.264  1.00  0.00     0.236 C 
HETATM   25  O2  UNL     1      13.745  31.953  11.705  1.00  0.00    -0.272 OA
HETATM   26  N4  UNL     1      14.817  31.213  13.624  1.00  0.00    -0.343 N 
BRANCH  26  27
HETATM   27  C17 UNL     1      13.566  31.208  14.354  1.00  0.00     0.131 C 
BRANCH  27  28
HETATM   28  C18 UNL     1      13.434  29.905  15.107  1.00  0.00     0.058 C 
BRANCH  28  29
HETATM   29  C19 UNL     1      13.057  28.776  14.255  1.00  0.00    -0.057 A 
HETATM   30  C20 UNL     1      13.586  27.508  14.360  1.00  0.00     0.009 A 
HETATM   31  C21 UNL     1      13.196  26.478  13.532  1.00  0.00     0.026 A 
HETATM   32  C22 UNL     1      12.241  26.684  12.549  1.00  0.00     0.079 A 
HETATM   33  C23 UNL     1      11.705  27.934  12.429  1.00  0.00     0.026 A 
HETATM   34  C24 UNL     1      12.107  28.970  13.272  1.00  0.00     0.009 A 
BRANCH  32  35
HETATM   35  S2  UNL     1      11.779  25.335  11.519  1.00  0.00     0.256 S 
HETATM   36  O3  UNL     1      10.519  24.695  12.015  1.00  0.00    -0.201 OA
HETATM   37  O4  UNL     1      12.852  24.270  11.551  1.00  0.00    -0.201 OA
BRANCH  35  38
HETATM   38  N5  UNL     1      11.590  25.899   9.892  1.00  0.00    -0.324 N 
ATOM     39  H52 UNL     1      12.051  26.723   9.507  1.00  0.00     0.169 HD
ATOM     40  H51 UNL     1      10.950  25.280   9.394  1.00  0.00     0.169 HD
ENDBRANCH  35  38
ENDBRANCH  32  35
ENDBRANCH  28  29
ENDBRANCH  27  28
ENDBRANCH  26  27
BRANCH  26  41
HETATM   41  C25 UNL     1      15.997  30.859  14.375  1.00  0.00     0.225 C 
BRANCH  41  42
HETATM   42  C26 UNL     1      16.379  31.906  15.352  1.00  0.00     0.249 C 
HETATM   43  N6  UNL     1      15.946  31.787  16.693  1.00  0.00    -0.061 NA
HETATM   44  O5  UNL     1      17.073  32.893  15.026  1.00  0.00    -0.275 OA
ENDBRANCH  41  42
ENDBRANCH  26  41
ENDBRANCH   1  24
TORSDOF 17
ENDMDL
MODEL 5
REMARK VINA RESULT: -8.631968911      2.861     10.296
REMARK  17 active torsions:
REMARK  status: ('A' for Active; 'I' for Inactive)
REMARK    1  A    between atoms: C2_2  and  C3_3 
REMARK    2  A    between atoms: C3_3  and  C4_4 
REMARK    3  A    between atoms: C4_4  and  C5_5 
REMARK    4  A    between atoms: C5_5  and  C6_6 
REMARK    5  A    between atoms: C6_6  and  S1_7 
REMARK    6  A    between atoms: S1_7  and  C7_9 
REMARK    7  A    between atoms: C7_9  and  C8_10 
REMARK    8  A    between atoms: C7_9  and  C16_24 
REMARK    9  A    between atoms: C8_10  and  C9_11 
REMARK   10  A    between atoms: C12_14  and  N1_15 
REMARK       I    between atoms: N1_15  and  C13_17 
REMARK       I    between atoms: C16_24  and  N4_26 
REMARK   11  A    between atoms: N4_26  and  C17_27 
REMARK   12  A    between atoms: N4_26  and  C25_41 
REMARK   13  A    between atoms: C17_27  and  C18_28 
REMARK   14  A    between atoms: C18_28  and  C19_29 
REMARK   15  A    between atoms: C22_32  and  S2_33 
REMARK   16  A    between atoms: S2_33  and  N5_34 
REMARK   17  A    between atoms: C25_41  and  C26_42 
ROOT
HETATM    1  C7  UNL     1      15.314  30.262  11.274  1.00  0.00     0.175 C 
ENDROOT
BRANCH   1   2
HETATM    2  S1  UNL     1      15.937  31.819  11.058  1.00  0.00     0.028 S 
HETATM    3  O1  UNL     1      14.979  33.088  11.620  1.00  0.00    -0.257 OA
BRANCH   2   4
HETATM    4  C6  UNL     1      17.003  32.276   9.797  1.00  0.00     0.109 C 
BRANCH   4   5
HETATM    5  C5  UNL     1      16.961  33.802   9.543  1.00  0.00     0.013 C 
BRANCH   5   6
HETATM    6  C4  UNL     1      18.256  34.471   9.839  1.00  0.00     0.001 C 
BRANCH   6   7
HETATM    7  C3  UNL     1      18.947  34.000  11.076  1.00  0.00    -0.000 C 
BRANCH   7   8
HETATM    8  C2  UNL     1      18.314  34.622  12.315  1.00  0.00    -0.005 C 
HETATM    9  C1  UNL     1      18.197  36.113  12.212  1.00  0.00     0.005 C 
ENDBRANCH   7   8
ENDBRANCH   6   7
ENDBRANCH   5   6
ENDBRANCH   4   5
ENDBRANCH   2   4
ENDBRANCH   1   2
BRANCH   1  10
HETATM   10  C8  UNL     1      15.865  29.130  10.510  1.00  0.00     0.065 C 
BRANCH  10  11
HETATM   11  C9  UNL     1      15.013  28.231   9.739  1.00  0.00    -0.056 A 
HETATM   12  C10 UNL     1      14.988  28.200   8.360  1.00  0.00     0.009 A 
HETATM   13  C11 UNL     1      14.188  27.333   7.653  1.00  0.00     0.030 A 
HETATM   14  C12 UNL     1      13.359  26.441   8.284  1.00  0.00     0.034 A 
HETATM   15  C14 UNL     1      13.366  26.454   9.658  1.00  0.00     0.030 A 
HETATM   16  C15 UNL     1      14.160  27.315  10.380  1.00  0.00     0.009 A 
BRANCH  14  17
HETATM   17  N1  UNL     1      12.547  25.562   7.529  1.00  0.00    -0.331 N 
HETATM   18  C13 UNL     1      11.294  25.109   8.015  1.00  0.00     0.186 C 
HETATM   19  N2  UNL     1      11.244  24.082   8.804  1.00  0.00    -0.373 N 
HETATM   20  N3  UNL     1      10.085  25.741   7.666  1.00  0.00    -0.064 NA
ATOM     21  H22 UNL     1      12.120  23.625   9.056  1.00  0.00     0.158 HD
ATOM     22  H21 UNL     1      10.342  23.757   9.153  1.00  0.00     0.158 HD
ATOM     23  H1  UNL     1      12.871  25.246   6.614  1.00  0.00     0.168 HD
ENDBRANCH  14  17
ENDBRANCH  10  11
ENDBRANCH   1  10
BRANCH   1  24
HETATM   24  C16 UNL     1      15.436  29.884  12.739  1.00  0.00     0.236 C 
HETATM   25  O2  UNL     1      16.583  29.588  13.132  1.00  0.00    -0.272 OA
HETATM   26  N4  UNL     1      14.334  29.868  13.621  1.00  0.00    -0.343 N 
BRANCH  26  27
HETATM   27  C17 UNL     1      14.568  29.546  15.014  1.00  0.00     0.131 C 
BRANCH  27  28
HETATM   28  C18 UNL     1      14.004  30.646  15.882  1.00  0.00     0.058 C 
BRANCH  28  29
HETATM   29  C19 UNL     1      14.946  31.742  16.116  1.00  0.00    -0.057 A 
HETATM   30  C20 UNL     1      15.529  32.023  17.332  1.00  0.00     0.009 A 
HETATM   31  C21 UNL     1      16.411  33.069  17.500  1.00  0.00     0.026 A 
HETATM   32  C22 UNL     1      16.748  33.888  16.434  1.00  0.00     0.079 A 
HETATM   33  C23 UNL     1      16.180  33.625  15.220  1.00  0.00     0.026 A 
HETATM   34  C24 UNL     1      15.288  32.565  15.061  1.00  0.00     0.009 A 
BRANCH  32  35
HETATM   35  S2  UNL     1      17.879  35.208  16.702  1.00  0.00     0.256 S 
HETATM   36  O3  UNL     1      19.147  34.986  15.937  1.00  0.00    -0.201 OA
HETATM   37  O4  UNL     1      18.257  35.275  18.165  1.00  0.00    -0.201 OA
BRANCH  35  38
HETATM   38  N5  UNL     1      17.131  36.702  16.242  1.00  0.00    -0.324 N 
ATOM     39  H52 UNL     1      16.142  36.809  16.018  1.00  0.00     0.169 HD
ATOM     40  H51 UNL     1      17.834  37.441  16.233  1.00  0.00     0.169 HD
ENDBRANCH  35  38
ENDBRANCH  32  35
ENDBRANCH  28  29
ENDBRANCH  27  28
ENDBRANCH  26  27
BRANCH  26  41
HETATM   41  C25 UNL     1      12.963  30.116  13.244  1.00  0.00     0.225 C 
BRANCH  41  42
HETATM   42  C26 UNL     1      12.066  28.996  13.615  1.00  0.00     0.249 C 
HETATM   43  N6  UNL     1      10.968  29.248  14.470  1.00  0.00    -0.061 NA
HETATM   44  O5  UNL     1      12.250  27.834  13.195  1.00  0.00    -0.275 OA
ENDBRANCH  41  42
ENDBRANCH  26  41
ENDBRANCH   1  24
TORSDOF 17
ENDMDL
