MODEL 1
REMARK VINA RESULT: -10.031287535      0.000      0.000
REMARK  16 active torsions:
REMARK  status: ('A' for Active; 'I' for Inactive)
REMARK    1  A    between atoms: C2_2  and  C3_3 
REMARK    2  A    between atoms: C3_3  and  N1_4 
REMARK       I    between atoms: C4_6  and  N3_8 
REMARK    3  A    between atoms: C5_10  and  C6_11 
REMARK    4  A    between atoms: C5_10  and  C21_32 
REMARK    5  A    between atoms: C6_11  and  C7_12 
REMARK    6  A    between atoms: C7_12  and  C8_13 
REMARK    7  A    between atoms: C8_13  and  C9_14 
REMARK    8  A    between atoms: C8_13  and  N4_17 
REMARK    9  A    between atoms: N4_17  and  C11_19 
REMARK   10  A    between atoms: C11_19  and  C12_20 
REMARK       I    between atoms: C12_20  and  N5_22 
REMARK   11  A    between atoms: N5_22  and  C13_24 
REMARK   12  A    between atoms: C13_24  and  C14_25 
REMARK   13  A    between atoms: C21_32  and  N6_33 
REMARK       I    between atoms: N6_33  and  C22_35 
REMARK   14  A    between atoms: C22_35  and  C23_37 
REMARK   15  A    between atoms: C23_37  and  C24_38 
REMARK   16  A    between atoms: C27_41  and  C28_42 
ROOT
HETATM    1  N1  UNL     1      18.137  32.894  11.725  1.00  0.00    -0.364 N 
ATOM      2  H1  UNL     1      18.266  32.403  12.610  1.00  0.00     0.162 HD
HETATM    3  C4  UNL     1      17.183  32.517  10.920  1.00  0.00     0.188 C 
HETATM    4  N2  UNL     1      17.055  33.242   9.701  1.00  0.00    -0.064 NA
HETATM    5  N3  UNL     1      16.389  31.463  11.314  1.00  0.00    -0.336 N 
ATOM      6  H3  UNL     1      15.897  31.649  12.188  1.00  0.00     0.168 HD
HETATM    7  C5  UNL     1      16.131  30.329  10.847  1.00  0.00     0.007 C 
ENDROOT
BRANCH   7   8
HETATM    8  C6  UNL     1      16.671  29.740   9.607  1.00  0.00     0.057 C 
BRANCH   8   9
HETATM    9  C7  UNL     1      15.811  29.832   8.405  1.00  0.00     0.053 C 
BRANCH   9  10
HETATM   10  C8  UNL     1      15.154  28.580   7.988  1.00  0.00     0.323 C 
BRANCH  10  11
HETATM   11  C9  UNL     1      14.707  28.623   6.586  1.00  0.00     0.207 C 
HETATM   12  O1  UNL     1      14.031  29.503   6.033  1.00  0.00    -0.646 OA
HETATM   13  O2  UNL     1      15.081  27.538   5.742  1.00  0.00    -0.646 OA
ENDBRANCH  10  11
BRANCH  10  14
HETATM   14  N4  UNL     1      14.027  28.222   8.871  1.00  0.00     0.107 N 
HETATM   15  C10 UNL     1      13.006  29.264   8.650  1.00  0.00     0.311 C 
BRANCH  14  16
HETATM   16  C11 UNL     1      13.423  26.978   8.419  1.00  0.00     0.375 C 
BRANCH  16  17
HETATM   17  C12 UNL     1      13.056  26.147   9.567  1.00  0.00     0.246 C 
HETATM   18  O3  UNL     1      13.828  25.244   9.984  1.00  0.00    -0.272 OA
HETATM   19  N5  UNL     1      11.824  26.301  10.277  1.00  0.00    -0.355 N 
ATOM     20  H5  UNL     1      11.180  27.027   9.963  1.00  0.00     0.162 HD
BRANCH  19  21
HETATM   21  C13 UNL     1      11.437  25.499  11.402  1.00  0.00     0.161 C 
BRANCH  21  22
HETATM   22  C14 UNL     1      11.540  26.241  12.689  1.00  0.00    -0.041 A 
HETATM   23  C15 UNL     1      12.644  26.274  13.481  1.00  0.00     0.009 A 
HETATM   24  C16 UNL     1      12.646  26.997  14.662  1.00  0.00     0.007 A 
HETATM   25  C17 UNL     1      11.539  27.711  15.081  1.00  0.00    -0.062 A 
HETATM   26  C18 UNL     1      11.539  28.491  16.350  1.00  0.00     0.048 C 
HETATM   27  C19 UNL     1      10.409  27.687  14.285  1.00  0.00     0.007 A 
HETATM   28  C20 UNL     1      10.429  26.949  13.097  1.00  0.00     0.009 A 
ENDBRANCH  21  22
ENDBRANCH  19  21
ENDBRANCH  16  17
ENDBRANCH  14  16
ENDBRANCH  10  14
ENDBRANCH   9  10
ENDBRANCH   8   9
ENDBRANCH   7   8
BRANCH   7  29
HETATM   29  C21 UNL     1      15.090  29.531  11.615  1.00  0.00     0.175 C 
BRANCH  29  30
HETATM   30  N6  UNL     1      15.298  29.644  13.030  1.00  0.00    -0.356 N 
HETATM   31  C22 UNL     1      14.399  30.190  13.967  1.00  0.00     0.222 C 
HETATM   32  O4  UNL     1      13.294  30.650  13.602  1.00  0.00    -0.273 OA
ATOM     33  H6  UNL     1      16.184  29.293  13.394  1.00  0.00     0.162 HD
BRANCH  31  34
HETATM   34  C23 UNL     1      14.746  30.228  15.398  1.00  0.00     0.141 C 
BRANCH  34  35
HETATM   35  C24 UNL     1      15.450  31.486  15.753  1.00  0.00    -0.049 A 
HETATM   36  C25 UNL     1      15.136  32.091  16.975  1.00  0.00     0.008 A 
HETATM   37  C26 UNL     1      15.792  33.254  17.301  1.00  0.00     0.015 A 
HETATM   38  C27 UNL     1      16.724  33.807  16.467  1.00  0.00     0.004 A 
HETATM   39  C29 UNL     1      17.023  33.202  15.269  1.00  0.00     0.015 A 
HETATM   40  C30 UNL     1      16.382  32.038  14.917  1.00  0.00     0.008 A 
BRANCH  38  41
HETATM   41  C28 UNL     1      17.400  35.030  16.833  1.00  0.00     0.120 C 
HETATM   42  N7  UNL     1      17.391  36.107  16.137  1.00  0.00    -0.387 N 
ATOM     43  H72 UNL     1      16.869  36.100  15.261  1.00  0.00     0.157 HD
ATOM     44  H71 UNL     1      17.869  36.970  16.396  1.00  0.00     0.157 HD
HETATM   45  N8  UNL     1      18.139  35.040  18.072  1.00  0.00    -0.082 NA
ENDBRANCH  38  41
ENDBRANCH  34  35
ENDBRANCH  31  34
ENDBRANCH  29  30
ENDBRANCH   7  29
BRANCH   1  46
HETATM   46  C3  UNL     1      19.006  33.982  11.394  1.00  0.00     0.122 C 
BRANCH  46  47
HETATM   47  C2  UNL     1      19.148  34.994  12.515  1.00  0.00     0.015 C 
HETATM   48  C1  UNL     1      17.954  35.939  12.389  1.00  0.00     0.006 C 
ENDBRANCH  46  47
ENDBRANCH   1  46
TORSDOF 16
ENDMDL
MODEL 2
REMARK VINA RESULT: -9.980750584      1.982      7.026
REMARK  16 active torsions:
REMARK  status: ('A' for Active; 'I' for Inactive)
REMARK    1  A    between atoms: C2_2  and  C3_3 
REMARK    2  A    between atoms: C3_3  and  N1_4 
REMARK       I    between atoms: C4_6  and  N3_8 
REMARK    3  A    between atoms: C5_10  and  C6_11 
REMARK    4  A    between atoms: C5_10  and  C21_32 
REMARK    5  A    between atoms: C6_11  and  C7_12 
REMARK    6  A    between atoms: C7_12  and  C8_13 
REMARK    7  A    between atoms: C8_13  and  C9_14 
REMARK    8  A    between atoms: C8_13  and  N4_17 
REMARK    9  A    between atoms: N4_17  and  C11_19 
REMARK   10  A    between atoms: C11_19  and  C12_20 
REMARK       I    between atoms: C12_20  and  N5_22 
REMARK   11  A    between atoms: N5_22  and  C13_24 
REMARK   12  A    between atoms: C13_24  and  C14_25 
REMARK   13  A    between atoms: C21_32  and  N6_33 
REMARK       I    between atoms: N6_33  and  C22_35 
REMARK   14  A    between atoms: C22_35  and  C23_37 
REMARK   15  A    between atoms: C23_37  and  C24_38 
REMARK   16  A    between atoms: C27_41  and  C28_42 
ROOT
HETATM    1  N1  UNL     1       9.120  27.126  11.823  1.00  0.00    -0.364 N 
ATOM      2  H1  UNL     1       9.271  28.119  12.003  1.00  0.00     0.162 HD
HETATM    3  C4  UNL     1      10.086  26.282  12.056  1.00  0.00     0.188 C 
HETATM    4  N2  UNL     1       9.814  24.911  11.785  1.00  0.00    -0.064 NA
HETATM    5  N3  UNL     1      11.274  26.783  12.542  1.00  0.00    -0.336 N 
ATOM      6  H3  UNL     1      11.162  27.261  13.435  1.00  0.00     0.168 HD
HETATM    7  C5  UNL     1      12.461  26.788  12.139  1.00  0.00     0.007 C 
ENDROOT
BRANCH   7   8
HETATM    8  C6  UNL     1      12.973  26.194  10.889  1.00  0.00     0.057 C 
BRANCH   8   9
HETATM    9  C7  UNL     1      14.012  26.966  10.170  1.00  0.00     0.053 C 
BRANCH   9  10
HETATM   10  C8  UNL     1      13.686  27.344   8.783  1.00  0.00     0.323 C 
BRANCH  10  11
HETATM   11  C9  UNL     1      14.160  26.350   7.806  1.00  0.00     0.207 C 
HETATM   12  O1  UNL     1      13.750  25.191   7.644  1.00  0.00    -0.646 OA
HETATM   13  O2  UNL     1      15.213  26.738   6.929  1.00  0.00    -0.646 OA
ENDBRANCH  10  11
BRANCH  10  14
HETATM   14  N4  UNL     1      14.198  28.683   8.436  1.00  0.00     0.107 N 
HETATM   15  C10 UNL     1      13.104  29.346   7.699  1.00  0.00     0.311 C 
BRANCH  14  16
HETATM   16  C11 UNL     1      14.385  29.467   9.647  1.00  0.00     0.375 C 
BRANCH  16  17
HETATM   17  C12 UNL     1      15.712  30.086   9.649  1.00  0.00     0.246 C 
HETATM   18  O3  UNL     1      16.564  29.788   8.772  1.00  0.00    -0.272 OA
HETATM   19  N5  UNL     1      16.120  31.049  10.624  1.00  0.00    -0.355 N 
ATOM     20  H5  UNL     1      15.449  31.312  11.346  1.00  0.00     0.162 HD
BRANCH  19  21
HETATM   21  C13 UNL     1      17.414  31.669  10.652  1.00  0.00     0.161 C 
BRANCH  21  22
HETATM   22  C14 UNL     1      17.332  33.155  10.604  1.00  0.00    -0.041 A 
HETATM   23  C15 UNL     1      16.936  33.877   9.522  1.00  0.00     0.009 A 
HETATM   24  C16 UNL     1      16.888  35.260   9.575  1.00  0.00     0.007 A 
HETATM   25  C17 UNL     1      17.234  35.959  10.715  1.00  0.00    -0.062 A 
HETATM   26  C18 UNL     1      17.180  37.446  10.775  1.00  0.00     0.048 C 
HETATM   27  C19 UNL     1      17.637  35.238  11.824  1.00  0.00     0.007 A 
HETATM   28  C20 UNL     1      17.679  33.842  11.748  1.00  0.00     0.009 A 
ENDBRANCH  21  22
ENDBRANCH  19  21
ENDBRANCH  16  17
ENDBRANCH  14  16
ENDBRANCH  10  14
ENDBRANCH   9  10
ENDBRANCH   8   9
ENDBRANCH   7   8
BRANCH   7  29
HETATM   29  C21 UNL     1      13.469  27.406  13.093  1.00  0.00     0.175 C 
BRANCH  29  30
HETATM   30  N6  UNL     1      13.213  28.805  13.277  1.00  0.00    -0.356 N 
HETATM   31  C22 UNL     1      14.175  29.832  13.328  1.00  0.00     0.222 C 
HETATM   32  O4  UNL     1      15.394  29.574  13.220  1.00  0.00    -0.273 OA
ATOM     33  H6  UNL     1      12.237  29.084  13.380  1.00  0.00     0.162 HD
BRANCH  31  34
HETATM   34  C23 UNL     1      13.760  31.234  13.511  1.00  0.00     0.141 C 
BRANCH  34  35
HETATM   35  C24 UNL     1      14.556  31.902  14.571  1.00  0.00    -0.049 A 
HETATM   36  C25 UNL     1      14.555  31.331  15.849  1.00  0.00     0.008 A 
HETATM   37  C26 UNL     1      15.296  31.950  16.828  1.00  0.00     0.015 A 
HETATM   38  C27 UNL     1      16.013  33.085  16.570  1.00  0.00     0.004 A 
HETATM   39  C29 UNL     1      16.006  33.636  15.311  1.00  0.00     0.015 A 
HETATM   40  C30 UNL     1      15.275  33.038  14.312  1.00  0.00     0.008 A 
BRANCH  38  41
HETATM   41  C28 UNL     1      16.784  33.717  17.616  1.00  0.00     0.120 C 
HETATM   42  N7  UNL     1      16.606  33.527  18.872  1.00  0.00    -0.387 N 
ATOM     43  H72 UNL     1      15.867  32.882  19.153  1.00  0.00     0.157 HD
ATOM     44  H71 UNL     1      17.150  33.973  19.610  1.00  0.00     0.157 HD
HETATM   45  N8  UNL     1      17.829  34.629  17.219  1.00  0.00    -0.082 NA
ENDBRANCH  38  41
ENDBRANCH  34  35
ENDBRANCH  31  34
ENDBRANCH  29  30
ENDBRANCH   7  29
BRANCH   1  46
HETATM   46  C3  UNL     1       7.853  26.689  11.321  1.00  0.00     0.122 C 
BRANCH  46  47
HETATM   47  C2  UNL     1       6.678  27.282  12.073  1.00  0.00     0.015 C 
HETATM   48  C1  UNL     1       6.293  28.558  11.325  1.00  0.00     0.006 C 
ENDBRANCH  46  47
ENDBRANCH   1  46
TORSDOF 16
ENDMDL
MODEL 3
REMARK VINA RESULT: -9.689805300      2.325      6.994
REMARK  16 active torsions:
REMARK  status: ('A' for Active; 'I' for Inactive)
REMARK    1  A    between atoms: C2_2  and  C3_3 
REMARK    2  A    between atoms: C3_3  and  N1_4 
REMARK       I    between atoms: C4_6  and  N3_8 
REMARK    3  A    between atoms: C5_10  and  C6_11 
REMARK    4  A    between atoms: C5_10  and  C21_32 
REMARK    5  A    between atoms: C6_11  and  C7_12 
REMARK    6  A    between atoms: C7_12  and  C8_13 
REMARK    7  A    between atoms: C8_13  and  C9_14 
REMARK    8  A    between atoms: C8_13  and  N4_17 
REMARK    9  A    between atoms: N4_17  and  C11_19 
REMARK   10  A    between atoms: C11_19  and  C12_20 
REMARK       I    between atoms: C12_20  and  N5_22 
REMARK   11  A    between atoms: N5_22  and  C13_24 
REMARK   12  A    between atoms: C13_24  and  C14_25 
REMARK   13  A    between atoms: C21_32  and  N6_33 
REMARK       I    between atoms: N6_33  and  C22_35 
REMARK   14  A    between atoms: C22_35  and  C23_37 
REMARK   15  A    between atoms: C23_37  and  C24_38 
REMARK   16  A    between atoms: C27_41  and  C28_42 
ROOT
HETATM    1  N1  UNL     1       8.401  28.184  12.464  1.00  0.00    -0.364 N 
ATOM      2  H1  UNL     1       8.727  29.150  12.444  1.00  0.00     0.162 HD
HETATM    3  C4  UNL     1       8.957  27.340  13.289  1.00  0.00     0.188 C 
HETATM    4  N2  UNL     1       8.458  26.007  13.268  1.00  0.00    -0.064 NA
HETATM    5  N3  UNL     1       9.966  27.807  14.102  1.00  0.00    -0.336 N 
ATOM      6  H3  UNL     1       9.658  28.563  14.714  1.00  0.00     0.168 HD
HETATM    7  C5  UNL     1      11.175  27.518  14.264  1.00  0.00     0.007 C 
ENDROOT
BRANCH   7   8
HETATM    8  C6  UNL     1      11.940  26.482  13.544  1.00  0.00     0.057 C 
BRANCH   8   9
HETATM    9  C7  UNL     1      12.941  26.965  12.565  1.00  0.00     0.053 C 
BRANCH   9  10
HETATM   10  C8  UNL     1      12.699  26.585  11.160  1.00  0.00     0.323 C 
BRANCH  10  11
HETATM   11  C9  UNL     1      12.678  25.125  10.971  1.00  0.00     0.207 C 
HETATM   12  O1  UNL     1      11.692  24.401  10.775  1.00  0.00    -0.646 OA
HETATM   13  O2  UNL     1      13.925  24.437  11.014  1.00  0.00    -0.646 OA
ENDBRANCH  10  11
BRANCH  10  14
HETATM   14  N4  UNL     1      13.674  27.203  10.242  1.00  0.00     0.107 N 
HETATM   15  C10 UNL     1      13.124  27.000   8.887  1.00  0.00     0.311 C 
BRANCH  14  16
HETATM   16  C11 UNL     1      13.695  28.644  10.444  1.00  0.00     0.375 C 
BRANCH  16  17
HETATM   17  C12 UNL     1      15.069  29.144  10.378  1.00  0.00     0.246 C 
HETATM   18  O3  UNL     1      15.972  28.649  11.102  1.00  0.00    -0.272 OA
HETATM   19  N5  UNL     1      15.471  30.206   9.508  1.00  0.00    -0.355 N 
ATOM     20  H5  UNL     1      14.761  30.625   8.908  1.00  0.00     0.162 HD
BRANCH  19  21
HETATM   21  C13 UNL     1      16.809  30.718   9.426  1.00  0.00     0.161 C 
BRANCH  21  22
HETATM   22  C14 UNL     1      16.995  31.948  10.243  1.00  0.00    -0.041 A 
HETATM   23  C15 UNL     1      16.841  33.218   9.781  1.00  0.00     0.009 A 
HETATM   24  C16 UNL     1      17.033  34.303  10.620  1.00  0.00     0.007 A 
HETATM   25  C17 UNL     1      17.385  34.146  11.947  1.00  0.00    -0.062 A 
HETATM   26  C18 UNL     1      17.590  35.311  12.851  1.00  0.00     0.048 C 
HETATM   27  C19 UNL     1      17.545  32.860  12.430  1.00  0.00     0.007 A 
HETATM   28  C20 UNL     1      17.347  31.779  11.565  1.00  0.00     0.009 A 
ENDBRANCH  21  22
ENDBRANCH  19  21
ENDBRANCH  16  17
ENDBRANCH  14  16
ENDBRANCH  10  14
ENDBRANCH   9  10
ENDBRANCH   8   9
ENDBRANCH   7   8
BRANCH   7  29
HETATM   29  C21 UNL     1      11.880  28.273  15.378  1.00  0.00     0.175 C 
BRANCH  29  30
HETATM   30  N6  UNL     1      12.305  29.569  14.933  1.00  0.00    -0.356 N 
HETATM   31  C22 UNL     1      13.617  29.946  14.589  1.00  0.00     0.222 C 
HETATM   32  O4  UNL     1      14.560  29.126  14.661  1.00  0.00    -0.273 OA
ATOM     33  H6  UNL     1      11.585  30.288  14.859  1.00  0.00     0.162 HD
BRANCH  31  34
HETATM   34  C23 UNL     1      13.903  31.318  14.135  1.00  0.00     0.141 C 
BRANCH  34  35
HETATM   35  C24 UNL     1      14.689  32.071  15.144  1.00  0.00    -0.049 A 
HETATM   36  C25 UNL     1      15.062  31.402  16.316  1.00  0.00     0.008 A 
HETATM   37  C26 UNL     1      15.792  32.102  17.247  1.00  0.00     0.015 A 
HETATM   38  C27 UNL     1      16.146  33.407  17.044  1.00  0.00     0.004 A 
HETATM   39  C29 UNL     1      15.773  34.052  15.889  1.00  0.00     0.015 A 
HETATM   40  C30 UNL     1      15.043  33.377  14.940  1.00  0.00     0.008 A 
BRANCH  38  41
HETATM   41  C28 UNL     1      16.913  34.120  18.039  1.00  0.00     0.120 C 
HETATM   42  N7  UNL     1      16.610  34.192  19.283  1.00  0.00    -0.387 N 
ATOM     43  H72 UNL     1      15.766  33.711  19.593  1.00  0.00     0.157 HD
ATOM     44  H71 UNL     1      17.151  34.696  19.985  1.00  0.00     0.157 HD
HETATM   45  N8  UNL     1      18.107  34.802  17.601  1.00  0.00    -0.082 NA
ENDBRANCH  38  41
ENDBRANCH  34  35
ENDBRANCH  31  34
ENDBRANCH  29  30
ENDBRANCH   7  29
BRANCH   1  46
HETATM   46  C3  UNL     1       7.344  27.782  11.587  1.00  0.00     0.122 C 
BRANCH  46  47
HETATM   47  C2  UNL     1       5.997  28.363  11.971  1.00  0.00     0.015 C 
HETATM   48  C1  UNL     1       5.890  29.706  11.250  1.00  0.00     0.006 C 
ENDBRANCH  46  47
ENDBRANCH   1  46
TORSDOF 16
ENDMDL
MODEL 4
REMARK VINA RESULT: -9.627956366      3.254      7.062
REMARK  16 active torsions:
REMARK  status: ('A' for Active; 'I' for Inactive)
REMARK    1  A    between atoms: C2_2  and  C3_3 
REMARK    2  A    between atoms: C3_3  and  N1_4 
REMARK       I    between atoms: C4_6  and  N3_8 
REMARK    3  A    between atoms: C5_10  and  C6_11 
REMARK    4  A    between atoms: C5_10  and  C21_32 
REMARK    5  A    between atoms: C6_11  and  C7_12 
REMARK    6  A    between atoms: C7_12  and  C8_13 
REMARK    7  A    between atoms: C8_13  and  C9_14 
REMARK    8  A    between atoms: C8_13  and  N4_17 
REMARK    9  A    between atoms: N4_17  and  C11_19 
REMARK   10  A    between atoms: C11_19  and  C12_20 
REMARK       I    between atoms: C12_20  and  N5_22 
REMARK   11  A    between atoms: N5_22  and  C13_24 
REMARK   12  A    between atoms: C13_24  and  C14_25 
REMARK   13  A    between atoms: C21_32  and  N6_33 
REMARK       I    between atoms: N6_33  and  C22_35 
REMARK   14  A    between atoms: C22_35  and  C23_37 
REMARK   15  A    between atoms: C23_37  and  C24_38 
REMARK   16  A    between atoms: C27_41  and  C28_42 
ROOT
HETATM    1  N1  UNL     1      19.777  39.462  15.833  1.00  0.00    -0.364 N 
ATOM      2  H1  UNL     1      20.661  39.022  16.086  1.00  0.00     0.162 HD
HETATM    3  C4  UNL     1      18.755  38.710  15.529  1.00  0.00     0.188 C 
HETATM    4  N2  UNL     1      17.549  39.383  15.185  1.00  0.00    -0.064 NA
HETATM    5  N3  UNL     1      18.929  37.344  15.569  1.00  0.00    -0.336 N 
ATOM      6  H3  UNL     1      19.197  37.010  16.494  1.00  0.00     0.168 HD
HETATM    7  C5  UNL     1      18.833  36.417  14.730  1.00  0.00     0.007 C 
ENDROOT
BRANCH   7   8
HETATM    8  C6  UNL     1      18.472  36.547  13.306  1.00  0.00     0.057 C 
BRANCH   8   9
HETATM    9  C7  UNL     1      17.504  35.557  12.779  1.00  0.00     0.053 C 
BRANCH   9  10
HETATM   10  C8  UNL     1      17.778  35.052  11.421  1.00  0.00     0.323 C 
BRANCH  10  11
HETATM   11  C9  UNL     1      16.929  35.693  10.404  1.00  0.00     0.207 C 
HETATM   12  O1  UNL     1      16.732  36.906  10.236  1.00  0.00    -0.646 OA
HETATM   13  O2  UNL     1      16.239  34.845   9.491  1.00  0.00    -0.646 OA
ENDBRANCH  10  11
BRANCH  10  14
HETATM   14  N4  UNL     1      17.653  33.584  11.338  1.00  0.00     0.107 N 
HETATM   15  C10 UNL     1      19.021  33.085  11.100  1.00  0.00     0.311 C 
BRANCH  14  16
HETATM   16  C11 UNL     1      17.260  33.050  12.632  1.00  0.00     0.375 C 
BRANCH  16  17
HETATM   17  C12 UNL     1      17.004  31.612  12.529  1.00  0.00     0.246 C 
HETATM   18  O3  UNL     1      17.497  30.807  13.362  1.00  0.00    -0.272 OA
HETATM   19  N5  UNL     1      16.196  31.037  11.498  1.00  0.00    -0.355 N 
ATOM     20  H5  UNL     1      15.782  31.666  10.810  1.00  0.00     0.162 HD
BRANCH  19  21
HETATM   21  C13 UNL     1      15.933  29.632  11.371  1.00  0.00     0.161 C 
BRANCH  21  22
HETATM   22  C14 UNL     1      15.712  29.223   9.956  1.00  0.00    -0.041 A 
HETATM   23  C15 UNL     1      16.339  29.773   8.882  1.00  0.00     0.009 A 
HETATM   24  C16 UNL     1      16.071  29.322   7.601  1.00  0.00     0.007 A 
HETATM   25  C17 UNL     1      15.166  28.306   7.359  1.00  0.00    -0.062 A 
HETATM   26  C18 UNL     1      14.878  27.818   5.982  1.00  0.00     0.048 C 
HETATM   27  C19 UNL     1      14.521  27.737   8.442  1.00  0.00     0.007 A 
HETATM   28  C20 UNL     1      14.807  28.209   9.728  1.00  0.00     0.009 A 
ENDBRANCH  21  22
ENDBRANCH  19  21
ENDBRANCH  16  17
ENDBRANCH  14  16
ENDBRANCH  10  14
ENDBRANCH   9  10
ENDBRANCH   8   9
ENDBRANCH   7   8
BRANCH   7  29
HETATM   29  C21 UNL     1      19.039  35.017  15.283  1.00  0.00     0.175 C 
BRANCH  29  30
HETATM   30  N6  UNL     1      17.864  34.555  15.965  1.00  0.00    -0.356 N 
HETATM   31  C22 UNL     1      17.562  34.738  17.328  1.00  0.00     0.222 C 
HETATM   32  O4  UNL     1      18.353  35.346  18.084  1.00  0.00    -0.273 OA
ATOM     33  H6  UNL     1      17.180  34.044  15.407  1.00  0.00     0.162 HD
BRANCH  31  34
HETATM   34  C23 UNL     1      16.304  34.215  17.890  1.00  0.00     0.141 C 
BRANCH  34  35
HETATM   35  C24 UNL     1      15.673  33.227  16.980  1.00  0.00    -0.049 A 
HETATM   36  C25 UNL     1      15.133  33.697  15.776  1.00  0.00     0.008 A 
HETATM   37  C26 UNL     1      14.552  32.779  14.935  1.00  0.00     0.015 A 
HETATM   38  C27 UNL     1      14.498  31.450  15.253  1.00  0.00     0.004 A 
HETATM   39  C29 UNL     1      15.032  31.002  16.438  1.00  0.00     0.015 A 
HETATM   40  C30 UNL     1      15.620  31.898  17.300  1.00  0.00     0.008 A 
BRANCH  38  41
HETATM   41  C28 UNL     1      13.881  30.505  14.351  1.00  0.00     0.120 C 
HETATM   42  N7  UNL     1      13.800  29.243  14.558  1.00  0.00    -0.387 N 
ATOM     43  H72 UNL     1      14.199  28.878  15.423  1.00  0.00     0.157 HD
ATOM     44  H71 UNL     1      13.364  28.576  13.920  1.00  0.00     0.157 HD
HETATM   45  N8  UNL     1      13.316  31.021  13.128  1.00  0.00    -0.082 NA
ENDBRANCH  38  41
ENDBRANCH  34  35
ENDBRANCH  31  34
ENDBRANCH  29  30
ENDBRANCH   7  29
BRANCH   1  46
HETATM   46  C3  UNL     1      19.681  40.890  15.820  1.00  0.00     0.122 C 
BRANCH  46  47
HETATM   47  C2  UNL     1      20.843  41.558  15.111  1.00  0.00     0.015 C 
HETATM   48  C1  UNL     1      20.777  41.095  13.656  1.00  0.00     0.006 C 
ENDBRANCH  46  47
ENDBRANCH   1  46
TORSDOF 16
ENDMDL
MODEL 5
REMARK VINA RESULT: -9.592514641      1.191      1.810
REMARK  16 active torsions:
REMARK  status: ('A' for Active; 'I' for Inactive)
REMARK    1  A    between atoms: C2_2  and  C3_3 
REMARK    2  A    between atoms: C3_3  and  N1_4 
REMARK       I    between atoms: C4_6  and  N3_8 
REMARK    3  A    between atoms: C5_10  and  C6_11 
REMARK    4  A    between atoms: C5_10  and  C21_32 
REMARK    5  A    between atoms: C6_11  and  C7_12 
REMARK    6  A    between atoms: C7_12  and  C8_13 
REMARK    7  A    between atoms: C8_13  and  C9_14 
REMARK    8  A    between atoms: C8_13  and  N4_17 
REMARK    9  A    between atoms: N4_17  and  C11_19 
REMARK   10  A    between atoms: C11_19  and  C12_20 
REMARK       I    between atoms: C12_20  and  N5_22 
REMARK   11  A    between atoms: N5_22  and  C13_24 
REMARK   12  A    between atoms: C13_24  and  C14_25 
REMARK   13  A    between atoms: C21_32  and  N6_33 
REMARK       I    between atoms: N6_33  and  C22_35 
REMARK   14  A    between atoms: C22_35  and  C23_37 
REMARK   15  A    between atoms: C23_37  and  C24_38 
REMARK   16  A    between atoms: C27_41  and  C28_42 
ROOT
HETATM    1  N1  UNL     1      17.566  32.964  12.002  1.00  0.00    -0.364 N 
ATOM      2  H1  UNL     1      18.276  32.486  12.556  1.00  0.00     0.162 HD
HETATM    3  C4  UNL     1      16.411  32.388  11.812  1.00  0.00     0.188 C 
HETATM    4  N2  UNL     1      15.462  33.106  11.030  1.00  0.00    -0.064 NA
HETATM    5  N3  UNL     1      16.209  31.150  12.383  1.00  0.00    -0.336 N 
ATOM      6  H3  UNL     1      16.298  31.168  13.398  1.00  0.00     0.168 HD
HETATM    7  C5  UNL     1      15.942  30.008  11.941  1.00  0.00     0.007 C 
ENDROOT
BRANCH   7   8
HETATM    8  C6  UNL     1      15.751  29.629  10.529  1.00  0.00     0.057 C 
BRANCH   8   9
HETATM    9  C7  UNL     1      14.696  28.627  10.252  1.00  0.00     0.053 C 
BRANCH   9  10
HETATM   10  C8  UNL     1      14.646  28.111   8.872  1.00  0.00     0.323 C 
BRANCH  10  11
HETATM   11  C9  UNL     1      14.319  29.161   7.894  1.00  0.00     0.207 C 
HETATM   12  O1  UNL     1      15.091  29.734   7.110  1.00  0.00    -0.646 OA
HETATM   13  O2  UNL     1      12.963  29.589   7.815  1.00  0.00    -0.646 OA
ENDBRANCH  10  11
BRANCH  10  14
HETATM   14  N4  UNL     1      13.712  26.978   8.735  1.00  0.00     0.107 N 
HETATM   15  C10 UNL     1      13.892  26.481   7.357  1.00  0.00     0.311 C 
BRANCH  14  16
HETATM   16  C11 UNL     1      14.129  25.887   9.603  1.00  0.00     0.375 C 
BRANCH  16  17
HETATM   17  C12 UNL     1      13.039  25.513  10.504  1.00  0.00     0.246 C 
HETATM   18  O3  UNL     1      13.067  24.423  11.133  1.00  0.00    -0.272 OA
HETATM   19  N5  UNL     1      11.893  26.340  10.726  1.00  0.00    -0.355 N 
ATOM     20  H5  UNL     1      11.844  27.231  10.231  1.00  0.00     0.162 HD
BRANCH  19  21
HETATM   21  C13 UNL     1      10.809  25.996  11.600  1.00  0.00     0.161 C 
BRANCH  21  22
HETATM   22  C14 UNL     1      10.853  26.752  12.882  1.00  0.00    -0.041 A 
HETATM   23  C15 UNL     1       9.886  27.605  13.315  1.00  0.00     0.009 A 
HETATM   24  C16 UNL     1      10.014  28.262  14.527  1.00  0.00     0.007 A 
HETATM   25  C17 UNL     1      11.116  28.082  15.341  1.00  0.00    -0.062 A 
HETATM   26  C18 UNL     1      11.255  28.786  16.646  1.00  0.00     0.048 C 
HETATM   27  C19 UNL     1      12.107  27.217  14.914  1.00  0.00     0.007 A 
HETATM   28  C20 UNL     1      11.957  26.565  13.686  1.00  0.00     0.009 A 
ENDBRANCH  21  22
ENDBRANCH  19  21
ENDBRANCH  16  17
ENDBRANCH  14  16
ENDBRANCH  10  14
ENDBRANCH   9  10
ENDBRANCH   8   9
ENDBRANCH   7   8
BRANCH   7  29
HETATM   29  C21 UNL     1      15.718  28.939  12.998  1.00  0.00     0.175 C 
BRANCH  29  30
HETATM   30  N6  UNL     1      15.316  29.525  14.244  1.00  0.00    -0.356 N 
HETATM   31  C22 UNL     1      14.114  30.214  14.496  1.00  0.00     0.222 C 
HETATM   32  O4  UNL     1      13.268  30.379  13.588  1.00  0.00    -0.273 OA
ATOM     33  H6  UNL     1      15.965  29.433  15.026  1.00  0.00     0.162 HD
BRANCH  31  34
HETATM   34  C23 UNL     1      13.830  30.755  15.837  1.00  0.00     0.141 C 
BRANCH  34  35
HETATM   35  C24 UNL     1      14.805  31.808  16.214  1.00  0.00    -0.049 A 
HETATM   36  C25 UNL     1      15.155  32.755  15.244  1.00  0.00     0.008 A 
HETATM   37  C26 UNL     1      16.056  33.731  15.599  1.00  0.00     0.015 A 
HETATM   38  C27 UNL     1      16.596  33.784  16.854  1.00  0.00     0.004 A 
HETATM   39  C29 UNL     1      16.243  32.848  17.797  1.00  0.00     0.015 A 
HETATM   40  C30 UNL     1      15.344  31.860  17.471  1.00  0.00     0.008 A 
BRANCH  38  41
HETATM   41  C28 UNL     1      17.541  34.820  17.201  1.00  0.00     0.120 C 
HETATM   42  N7  UNL     1      17.543  35.467  18.308  1.00  0.00    -0.387 N 
ATOM     43  H72 UNL     1      16.826  35.233  18.995  1.00  0.00     0.157 HD
ATOM     44  H71 UNL     1      18.210  36.199  18.553  1.00  0.00     0.157 HD
HETATM   45  N8  UNL     1      18.555  35.152  16.230  1.00  0.00    -0.082 NA
ENDBRANCH  38  41
ENDBRANCH  34  35
ENDBRANCH  31  34
ENDBRANCH  29  30
ENDBRANCH   7  29
BRANCH   1  46
HETATM   46  C3  UNL     1      17.857  34.251  11.447  1.00  0.00     0.122 C 
BRANCH  46  47
HETATM   47  C2  UNL     1      18.765  34.186  10.235  1.00  0.00     0.015 C 
HETATM   48  C1  UNL     1      17.967  34.772   9.072  1.00  0.00     0.006 C 
ENDBRANCH  46  47
ENDBRANCH   1  46
TORSDOF 16
ENDMDL
