MODEL 1
REMARK VINA RESULT: -7.821205245      0.000      0.000
REMARK  4 active torsions:
REMARK  status: ('A' for Active; 'I' for Inactive)
REMARK    1  A    between atoms: C2_5  and  N3_6 
REMARK    2  A    between atoms: N3_6  and  C3_8 
REMARK    3  A    between atoms: N5_17  and  C10_18 
REMARK    4  A    between atoms: C13_21  and  O1_22 
ROOT
HETATM    1  N1  UNL     1      -5.843 -28.263  20.124  1.00  0.00    -0.063 NA
HETATM    2  C1  UNL     1      -7.060 -28.162  19.397  1.00  0.00     0.195 A 
HETATM    3  N2  UNL     1      -7.977 -29.141  19.363  1.00  0.00    -0.315 N 
ATOM      4  H2  UNL     1      -7.801 -30.002  19.880  1.00  0.00     0.170 HD
HETATM    5  C2  UNL     1      -9.120 -29.017  18.666  1.00  0.00     0.135 A 
HETATM    6  C8  UNL     1      -9.387 -27.872  17.957  1.00  0.00     0.122 A 
HETATM    7  N4  UNL     1     -10.399 -27.451  17.187  1.00  0.00    -0.346 N 
ATOM      8  H4  UNL     1     -11.243 -27.983  16.976  1.00  0.00     0.167 HD
HETATM    9  C9  UNL     1     -10.116 -26.196  16.732  1.00  0.00     0.185 A 
HETATM   10  N5  UNL     1      -8.916 -25.829  17.221  1.00  0.00    -0.322 N 
HETATM   11  C16 UNL     1      -8.450 -26.860  17.986  1.00  0.00     0.142 A 
HETATM   12  N6  UNL     1      -7.318 -27.039  18.703  1.00  0.00    -0.314 N 
ATOM     13  H6  UNL     1      -6.628 -26.288  18.719  1.00  0.00     0.170 HD
ENDROOT
BRANCH  10  14
HETATM   14  C10 UNL     1      -8.168 -24.603  17.039  1.00  0.00     0.092 C 
HETATM   15  C11 UNL     1      -7.947 -24.336  15.565  1.00  0.00     0.028 C 
HETATM   16  C12 UNL     1      -7.049 -23.098  15.528  1.00  0.00     0.034 C 
HETATM   17  C13 UNL     1      -7.861 -21.948  16.019  1.00  0.00     0.118 C 
HETATM   18  C14 UNL     1      -8.554 -22.132  17.302  1.00  0.00     0.034 C 
HETATM   19  C15 UNL     1      -8.938 -23.496  17.698  1.00  0.00     0.028 C 
BRANCH  17  20
HETATM   20  O1  UNL     1      -6.997 -20.834  16.132  1.00  0.00    -0.396 OA
ATOM     21  H1  UNL     1      -7.458 -20.162  16.620  1.00  0.00     0.210 HD
ENDBRANCH  17  20
ENDBRANCH  10  14
BRANCH   5  22
HETATM   22  N3  UNL     1     -10.005 -29.954  18.630  1.00  0.00    -0.370 N 
ATOM     23  H3  UNL     1     -10.996 -29.711  18.599  1.00  0.00     0.161 HD
BRANCH  22  24
HETATM   24  C3  UNL     1      -9.616 -31.329  18.632  1.00  0.00     0.083 C 
HETATM   25  C4  UNL     1     -10.107 -32.112  19.806  1.00  0.00     0.025 C 
HETATM   26  C5  UNL     1     -10.621 -33.434  19.284  1.00  0.00     0.002 C 
HETATM   27  C6  UNL     1     -10.530 -33.395  17.791  1.00  0.00     0.002 C 
HETATM   28  C7  UNL     1     -10.164 -31.994  17.387  1.00  0.00     0.025 C 
ENDBRANCH  22  24
ENDBRANCH   5  22
TORSDOF 4
ENDMDL
MODEL 2
REMARK VINA RESULT: -7.783794287      3.628      8.269
REMARK  4 active torsions:
REMARK  status: ('A' for Active; 'I' for Inactive)
REMARK    1  A    between atoms: C2_5  and  N3_6 
REMARK    2  A    between atoms: N3_6  and  C3_8 
REMARK    3  A    between atoms: N5_17  and  C10_18 
REMARK    4  A    between atoms: C13_21  and  O1_22 
ROOT
HETATM    1  N1  UNL     1      -5.339 -22.589  14.230  1.00  0.00    -0.063 NA
HETATM    2  C1  UNL     1      -6.329 -22.634  15.249  1.00  0.00     0.195 A 
HETATM    3  N2  UNL     1      -6.746 -21.545  15.914  1.00  0.00    -0.315 N 
ATOM      4  H2  UNL     1      -6.339 -20.638  15.684  1.00  0.00     0.170 HD
HETATM    5  C2  UNL     1      -7.685 -21.617  16.873  1.00  0.00     0.135 A 
HETATM    6  C8  UNL     1      -8.252 -22.823  17.209  1.00  0.00     0.122 A 
HETATM    7  N4  UNL     1      -9.180 -23.218  18.089  1.00  0.00    -0.346 N 
ATOM      8  H4  UNL     1      -9.680 -22.609  18.737  1.00  0.00     0.167 HD
HETATM    9  C9  UNL     1      -9.348 -24.568  17.978  1.00  0.00     0.185 A 
HETATM   10  N5  UNL     1      -8.517 -25.021  17.019  1.00  0.00    -0.322 N 
HETATM   11  C16 UNL     1      -7.829 -23.947  16.531  1.00  0.00     0.142 A 
HETATM   12  N6  UNL     1      -6.882 -23.816  15.575  1.00  0.00    -0.314 N 
ATOM     13  H6  UNL     1      -6.572 -24.651  15.079  1.00  0.00     0.170 HD
ENDROOT
BRANCH  10  14
HETATM   14  C10 UNL     1      -8.310 -26.364  16.520  1.00  0.00     0.092 C 
HETATM   15  C11 UNL     1      -7.830 -27.270  17.634  1.00  0.00     0.028 C 
HETATM   16  C12 UNL     1      -7.535 -28.604  16.945  1.00  0.00     0.034 C 
HETATM   17  C13 UNL     1      -8.842 -29.175  16.510  1.00  0.00     0.118 C 
HETATM   18  C14 UNL     1      -9.717 -28.291  15.727  1.00  0.00     0.034 C 
HETATM   19  C15 UNL     1      -9.608 -26.838  15.934  1.00  0.00     0.028 C 
BRANCH  17  20
HETATM   20  O1  UNL     1      -8.567 -30.329  15.740  1.00  0.00    -0.396 OA
ATOM     21  H1  UNL     1      -9.394 -30.654  15.406  1.00  0.00     0.210 HD
ENDBRANCH  17  20
ENDBRANCH  10  14
BRANCH   5  22
HETATM   22  N3  UNL     1      -8.090 -20.575  17.516  1.00  0.00    -0.370 N 
ATOM     23  H3  UNL     1      -7.866 -20.475  18.506  1.00  0.00     0.161 HD
BRANCH  22  24
HETATM   24  C3  UNL     1      -8.850 -19.559  16.857  1.00  0.00     0.083 C 
HETATM   25  C4  UNL     1      -8.457 -19.310  15.438  1.00  0.00     0.025 C 
HETATM   26  C5  UNL     1      -9.729 -19.193  14.631  1.00  0.00     0.002 C 
HETATM   27  C6  UNL     1     -10.874 -19.475  15.552  1.00  0.00     0.002 C 
HETATM   28  C7  UNL     1     -10.309 -19.964  16.856  1.00  0.00     0.025 C 
ENDBRANCH  22  24
ENDBRANCH   5  22
TORSDOF 4
ENDMDL
MODEL 3
REMARK VINA RESULT: -7.748056505      3.178      7.682
REMARK  4 active torsions:
REMARK  status: ('A' for Active; 'I' for Inactive)
REMARK    1  A    between atoms: C2_5  and  N3_6 
REMARK    2  A    between atoms: N3_6  and  C3_8 
REMARK    3  A    between atoms: N5_17  and  C10_18 
REMARK    4  A    between atoms: C13_21  and  O1_22 
ROOT
HETATM    1  N1  UNL     1      -5.811 -28.297  20.167  1.00  0.00    -0.063 NA
HETATM    2  C1  UNL     1      -6.978 -27.987  19.418  1.00  0.00     0.195 A 
HETATM    3  N2  UNL     1      -7.307 -26.737  19.056  1.00  0.00    -0.315 N 
ATOM      4  H2  UNL     1      -6.697 -25.966  19.328  1.00  0.00     0.170 HD
HETATM    5  C2  UNL     1      -8.418 -26.474  18.346  1.00  0.00     0.135 A 
HETATM    6  C8  UNL     1      -9.263 -27.489  17.966  1.00  0.00     0.122 A 
HETATM    7  N4  UNL     1     -10.409 -27.555  17.279  1.00  0.00    -0.346 N 
ATOM      8  H4  UNL     1     -10.905 -26.762  16.874  1.00  0.00     0.167 HD
HETATM    9  C9  UNL     1     -10.806 -28.860  17.207  1.00  0.00     0.185 A 
HETATM   10  N5  UNL     1      -9.899 -29.615  17.856  1.00  0.00    -0.322 N 
HETATM   11  C16 UNL     1      -8.932 -28.777  18.334  1.00  0.00     0.142 A 
HETATM   12  N6  UNL     1      -7.803 -28.983  19.047  1.00  0.00    -0.314 N 
ATOM     13  H6  UNL     1      -7.565 -29.938  19.318  1.00  0.00     0.170 HD
ENDROOT
BRANCH  10  14
HETATM   14  C10 UNL     1      -9.855 -31.046  18.069  1.00  0.00     0.092 C 
HETATM   15  C11 UNL     1     -10.306 -31.382  19.475  1.00  0.00     0.028 C 
HETATM   16  C12 UNL     1     -10.090 -32.892  19.598  1.00  0.00     0.034 C 
HETATM   17  C13 UNL     1     -11.078 -33.555  18.699  1.00  0.00     0.118 C 
HETATM   18  C14 UNL     1     -11.123 -33.080  17.309  1.00  0.00     0.034 C 
HETATM   19  C15 UNL     1     -10.729 -31.689  17.033  1.00  0.00     0.028 C 
BRANCH  17  20
HETATM   20  O1  UNL     1     -10.784 -34.938  18.691  1.00  0.00    -0.396 OA
ATOM     21  H1  UNL     1     -10.059 -35.073  18.092  1.00  0.00     0.210 HD
ENDBRANCH  17  20
ENDBRANCH  10  14
BRANCH   5  22
HETATM   22  N3  UNL     1      -8.740 -25.276  17.996  1.00  0.00    -0.370 N 
ATOM     23  H3  UNL     1      -9.710 -24.970  18.079  1.00  0.00     0.161 HD
BRANCH  22  24
HETATM   24  C3  UNL     1      -7.755 -24.371  17.493  1.00  0.00     0.083 C 
HETATM   25  C4  UNL     1      -7.390 -24.584  16.060  1.00  0.00     0.025 C 
HETATM   26  C5  UNL     1      -7.333 -23.225  15.402  1.00  0.00     0.002 C 
HETATM   27  C6  UNL     1      -7.766 -22.214  16.417  1.00  0.00     0.002 C 
HETATM   28  C7  UNL     1      -8.282 -22.957  17.618  1.00  0.00     0.025 C 
ENDBRANCH  22  24
ENDBRANCH   5  22
TORSDOF 4
ENDMDL
MODEL 4
REMARK VINA RESULT: -7.545781505      3.224      7.409
REMARK  4 active torsions:
REMARK  status: ('A' for Active; 'I' for Inactive)
REMARK    1  A    between atoms: C2_5  and  N3_6 
REMARK    2  A    between atoms: N3_6  and  C3_8 
REMARK    3  A    between atoms: N5_17  and  C10_18 
REMARK    4  A    between atoms: C13_21  and  O1_22 
ROOT
HETATM    1  N1  UNL     1      -5.544 -28.081  20.497  1.00  0.00    -0.063 NA
HETATM    2  C1  UNL     1      -6.656 -27.819  19.652  1.00  0.00     0.195 A 
HETATM    3  N2  UNL     1      -7.089 -26.579  19.374  1.00  0.00    -0.315 N 
ATOM      4  H2  UNL     1      -6.605 -25.781  19.785  1.00  0.00     0.170 HD
HETATM    5  C2  UNL     1      -8.145 -26.361  18.571  1.00  0.00     0.135 A 
HETATM    6  C8  UNL     1      -8.822 -27.413  18.003  1.00  0.00     0.122 A 
HETATM    7  N4  UNL     1      -9.877 -27.527  17.186  1.00  0.00    -0.346 N 
ATOM      8  H4  UNL     1     -10.418 -26.751  16.805  1.00  0.00     0.167 HD
HETATM    9  C9  UNL     1     -10.110 -28.851  16.948  1.00  0.00     0.185 A 
HETATM   10  N5  UNL     1      -9.193 -29.571  17.622  1.00  0.00    -0.322 N 
HETATM   11  C16 UNL     1      -8.384 -28.690  18.283  1.00  0.00     0.142 A 
HETATM   12  N6  UNL     1      -7.317 -28.851  19.098  1.00  0.00    -0.314 N 
ATOM     13  H6  UNL     1      -6.999 -29.799  19.303  1.00  0.00     0.170 HD
ENDROOT
BRANCH  10  14
HETATM   14  C10 UNL     1      -9.004 -31.004  17.703  1.00  0.00     0.092 C 
HETATM   15  C11 UNL     1      -7.682 -31.396  17.076  1.00  0.00     0.028 C 
HETATM   16  C12 UNL     1      -7.675 -32.925  17.118  1.00  0.00     0.034 C 
HETATM   17  C13 UNL     1      -7.566 -33.328  18.550  1.00  0.00     0.118 C 
HETATM   18  C14 UNL     1      -8.529 -32.720  19.479  1.00  0.00     0.034 C 
HETATM   19  C15 UNL     1      -9.072 -31.392  19.151  1.00  0.00     0.028 C 
BRANCH  17  20
HETATM   20  O1  UNL     1      -7.712 -34.733  18.609  1.00  0.00    -0.396 OA
ATOM     21  H1  UNL     1      -8.361 -34.981  17.961  1.00  0.00     0.210 HD
ENDBRANCH  17  20
ENDBRANCH  10  14
BRANCH   5  22
HETATM   22  N3  UNL     1      -8.567 -25.173  18.300  1.00  0.00    -0.370 N 
ATOM     23  H3  UNL     1      -9.521 -24.909  18.545  1.00  0.00     0.161 HD
BRANCH  22  24
HETATM   24  C3  UNL     1      -7.713 -24.222  17.661  1.00  0.00     0.083 C 
HETATM   25  C4  UNL     1      -7.406 -24.524  16.230  1.00  0.00     0.025 C 
HETATM   26  C5  UNL     1      -7.532 -23.232  15.458  1.00  0.00     0.002 C 
HETATM   27  C6  UNL     1      -8.014 -22.183  16.410  1.00  0.00     0.002 C 
HETATM   28  C7  UNL     1      -8.381 -22.863  17.700  1.00  0.00     0.025 C 
ENDBRANCH  22  24
ENDBRANCH   5  22
TORSDOF 4
ENDMDL
MODEL 5
REMARK VINA RESULT: -7.433219243      1.526      1.699
REMARK  4 active torsions:
REMARK  status: ('A' for Active; 'I' for Inactive)
REMARK    1  A    between atoms: C2_5  and  N3_6 
REMARK    2  A    between atoms: N3_6  and  C3_8 
REMARK    3  A    between atoms: N5_17  and  C10_18 
REMARK    4  A    between atoms: C13_21  and  O1_22 
ROOT
HETATM    1  N1  UNL     1      -6.331 -28.616  19.959  1.00  0.00    -0.063 NA
HETATM    2  C1  UNL     1      -7.282 -28.353  18.936  1.00  0.00     0.195 A 
HETATM    3  N2  UNL     1      -8.189 -29.255  18.529  1.00  0.00    -0.315 N 
ATOM      4  H2  UNL     1      -8.204 -30.175  18.968  1.00  0.00     0.170 HD
HETATM    5  C2  UNL     1      -9.077 -28.978  17.559  1.00  0.00     0.135 A 
HETATM    6  C8  UNL     1      -9.083 -27.749  16.944  1.00  0.00     0.122 A 
HETATM    7  N4  UNL     1      -9.814 -27.180  15.977  1.00  0.00    -0.346 N 
ATOM      8  H4  UNL     1     -10.582 -27.624  15.475  1.00  0.00     0.167 HD
HETATM    9  C9  UNL     1      -9.362 -25.908  15.773  1.00  0.00     0.185 A 
HETATM   10  N5  UNL     1      -8.340 -25.680  16.621  1.00  0.00    -0.322 N 
HETATM   11  C16 UNL     1      -8.155 -26.816  17.357  1.00  0.00     0.142 A 
HETATM   12  N6  UNL     1      -7.285 -27.148  18.336  1.00  0.00    -0.314 N 
ATOM     13  H6  UNL     1      -6.600 -26.455  18.635  1.00  0.00     0.170 HD
ENDROOT
BRANCH  10  14
HETATM   14  C10 UNL     1      -7.523 -24.499  16.805  1.00  0.00     0.092 C 
HETATM   15  C11 UNL     1      -7.679 -23.564  15.623  1.00  0.00     0.028 C 
HETATM   16  C12 UNL     1      -6.678 -22.438  15.889  1.00  0.00     0.034 C 
HETATM   17  C13 UNL     1      -7.178 -21.671  17.066  1.00  0.00     0.118 C 
HETATM   18  C14 UNL     1      -7.516 -22.452  18.264  1.00  0.00     0.034 C 
HETATM   19  C15 UNL     1      -7.944 -23.849  18.090  1.00  0.00     0.028 C 
BRANCH  17  20
HETATM   20  O1  UNL     1      -6.185 -20.726  17.412  1.00  0.00    -0.396 OA
ATOM     21  H1  UNL     1      -6.547 -20.164  18.086  1.00  0.00     0.210 HD
ENDBRANCH  17  20
ENDBRANCH  10  14
BRANCH   5  22
HETATM   22  N3  UNL     1      -9.951 -29.840  17.163  1.00  0.00    -0.370 N 
ATOM     23  H3  UNL     1      -9.806 -30.336  16.283  1.00  0.00     0.161 HD
BRANCH  22  24
HETATM   24  C3  UNL     1     -11.120 -30.107  17.940  1.00  0.00     0.083 C 
HETATM   25  C4  UNL     1     -12.409 -29.809  17.247  1.00  0.00     0.025 C 
HETATM   26  C5  UNL     1     -13.346 -30.962  17.521  1.00  0.00     0.002 C 
HETATM   27  C6  UNL     1     -12.580 -31.993  18.290  1.00  0.00     0.002 C 
HETATM   28  C7  UNL     1     -11.136 -31.576  18.309  1.00  0.00     0.025 C 
ENDBRANCH  22  24
ENDBRANCH   5  22
TORSDOF 4
ENDMDL
