MODEL 1
REMARK VINA RESULT: -7.520079747      0.000      0.000
REMARK  4 active torsions:
REMARK  status: ('A' for Active; 'I' for Inactive)
REMARK    1  A    between atoms: C2_2  and  C3_3 
REMARK    2  A    between atoms: C3_3  and  C4_4 
REMARK    3  A    between atoms: C4_4  and  N1_5 
REMARK    4  A    between atoms: N2_12  and  C8_13 
ROOT
HETATM    1  C8  UNL     1      -9.156 -30.529  17.266  1.00  0.00     0.076 A 
HETATM    2  C9  UNL     1      -9.282 -31.385  16.193  1.00  0.00     0.098 A 
HETATM    3  C10 UNL     1      -9.663 -30.862  14.916  1.00  0.00     0.104 C 
HETATM    4  N3  UNL     1      -9.985 -30.453  13.883  1.00  0.00    -0.191 NA
HETATM    5  C11 UNL     1      -9.044 -32.752  16.324  1.00  0.00     0.092 A 
HETATM    6  N4  UNL     1      -9.169 -33.647  15.223  1.00  0.00    -0.099 NA
HETATM    7  C12 UNL     1      -8.674 -33.298  17.532  1.00  0.00     0.096 A 
HETATM    8  C13 UNL     1      -8.431 -34.712  17.654  1.00  0.00     0.103 C 
HETATM    9  N5  UNL     1      -8.242 -35.853  17.772  1.00  0.00    -0.191 NA
HETATM   10  C14 UNL     1      -8.546 -32.454  18.611  1.00  0.00     0.092 A 
HETATM   11  N6  UNL     1      -8.166 -32.998  19.866  1.00  0.00    -0.099 NA
HETATM   12  C15 UNL     1      -8.781 -31.105  18.482  1.00  0.00     0.098 A 
HETATM   13  C16 UNL     1      -8.650 -30.213  19.604  1.00  0.00     0.104 C 
HETATM   14  N7  UNL     1      -8.551 -29.475  20.504  1.00  0.00    -0.191 NA
ENDROOT
BRANCH   1  15
HETATM   15  N2  UNL     1      -9.399 -29.129  17.136  1.00  0.00    -0.378 N 
HETATM   16  C7  UNL     1     -10.719 -28.658  17.445  1.00  0.00     0.123 C 
HETATM   17  C6  UNL     1     -11.040 -27.291  16.971  1.00  0.00     0.021 C 
HETATM   18  C5  UNL     1      -9.931 -26.568  16.274  1.00  0.00     0.014 C 
HETATM   19  C3  UNL     1      -8.566 -26.841  16.860  1.00  0.00    -0.001 C 
HETATM   20  C17 UNL     1      -8.297 -28.307  16.705  1.00  0.00     0.134 C 
BRANCH  19  21
HETATM   21  C2  UNL     1      -7.543 -26.022  16.135  1.00  0.00     0.008 C 
HETATM   22  C1  UNL     1      -7.956 -24.617  15.836  1.00  0.00     0.006 C 
ENDBRANCH  19  21
BRANCH  19  23
HETATM   23  C4  UNL     1      -8.551 -26.440  18.325  1.00  0.00     0.240 C 
BRANCH  23  24
HETATM   24  N1  UNL     1      -7.347 -26.904  18.986  1.00  0.00    -0.079 N 
ATOM     25  H13 UNL     1      -6.571 -26.258  18.847  1.00  0.00     0.274 HD
ATOM     26  H12 UNL     1      -7.427 -26.836  20.001  1.00  0.00     0.274 HD
ATOM     27  H11 UNL     1      -7.104 -27.850  18.692  1.00  0.00     0.274 HD
ENDBRANCH  23  24
ENDBRANCH  19  23
ENDBRANCH   1  15
TORSDOF 4
ENDMDL
MODEL 2
REMARK VINA RESULT: -7.512396399      0.104      2.951
REMARK  4 active torsions:
REMARK  status: ('A' for Active; 'I' for Inactive)
REMARK    1  A    between atoms: C2_2  and  C3_3 
REMARK    2  A    between atoms: C3_3  and  C4_4 
REMARK    3  A    between atoms: C4_4  and  N1_5 
REMARK    4  A    between atoms: N2_12  and  C8_13 
ROOT
HETATM    1  C8  UNL     1      -9.166 -30.434  17.273  1.00  0.00     0.076 A 
HETATM    2  C9  UNL     1      -8.779 -30.979  18.479  1.00  0.00     0.098 A 
HETATM    3  C10 UNL     1      -8.622 -30.127  19.618  1.00  0.00     0.104 C 
HETATM    4  N3  UNL     1      -8.477 -29.446  20.542  1.00  0.00    -0.191 NA
HETATM    5  C11 UNL     1      -8.538 -32.346  18.612  1.00  0.00     0.092 A 
HETATM    6  N4  UNL     1      -8.138 -32.920  19.853  1.00  0.00    -0.099 NA
HETATM    7  C12 UNL     1      -8.678 -33.202  17.545  1.00  0.00     0.096 A 
HETATM    8  C13 UNL     1      -8.425 -34.612  17.696  1.00  0.00     0.103 C 
HETATM    9  N5  UNL     1      -8.215 -35.750  17.800  1.00  0.00    -0.191 NA
HETATM   10  C14 UNL     1      -9.064 -32.670  16.335  1.00  0.00     0.092 A 
HETATM   11  N6  UNL     1      -9.212 -33.537  15.222  1.00  0.00    -0.099 NA
HETATM   12  C15 UNL     1      -9.301 -31.322  16.203  1.00  0.00     0.098 A 
HETATM   13  C16 UNL     1      -9.705 -30.755  14.942  1.00  0.00     0.104 C 
HETATM   14  N7  UNL     1     -10.031 -30.278  13.928  1.00  0.00    -0.191 NA
ENDROOT
BRANCH   1  15
HETATM   15  N2  UNL     1      -9.415 -29.037  17.131  1.00  0.00    -0.378 N 
HETATM   16  C7  UNL     1     -10.736 -28.568  17.436  1.00  0.00     0.123 C 
HETATM   17  C6  UNL     1     -11.062 -27.207  16.950  1.00  0.00     0.021 C 
HETATM   18  C5  UNL     1      -9.957 -26.486  16.247  1.00  0.00     0.014 C 
HETATM   19  C3  UNL     1      -8.591 -26.748  16.835  1.00  0.00    -0.001 C 
HETATM   20  C17 UNL     1      -8.316 -28.214  16.693  1.00  0.00     0.134 C 
BRANCH  19  21
HETATM   21  C2  UNL     1      -7.571 -25.931  16.103  1.00  0.00     0.008 C 
HETATM   22  C1  UNL     1      -7.988 -24.530  15.794  1.00  0.00     0.006 C 
ENDBRANCH  19  21
BRANCH  19  23
HETATM   23  C4  UNL     1      -8.577 -26.334  18.296  1.00  0.00     0.240 C 
BRANCH  23  24
HETATM   24  N1  UNL     1      -7.397 -26.834  18.975  1.00  0.00    -0.079 N 
ATOM     25  H13 UNL     1      -6.580 -26.819  18.365  1.00  0.00     0.274 HD
ATOM     26  H12 UNL     1      -7.071 -26.182  19.689  1.00  0.00     0.274 HD
ATOM     27  H11 UNL     1      -7.558 -27.763  19.361  1.00  0.00     0.274 HD
ENDBRANCH  23  24
ENDBRANCH  19  23
ENDBRANCH   1  15
TORSDOF 4
ENDMDL
MODEL 3
REMARK VINA RESULT: -7.144907182      2.180      6.876
REMARK  4 active torsions:
REMARK  status: ('A' for Active; 'I' for Inactive)
REMARK    1  A    between atoms: C2_2  and  C3_3 
REMARK    2  A    between atoms: C3_3  and  C4_4 
REMARK    3  A    between atoms: C4_4  and  N1_5 
REMARK    4  A    between atoms: N2_12  and  C8_13 
ROOT
HETATM    1  C8  UNL     1      -8.784 -28.453  18.054  1.00  0.00     0.076 A 
HETATM    2  C9  UNL     1      -8.268 -27.580  18.987  1.00  0.00     0.098 A 
HETATM    3  C10 UNL     1      -7.835 -28.082  20.256  1.00  0.00     0.104 C 
HETATM    4  N3  UNL     1      -7.495 -28.472  21.290  1.00  0.00    -0.191 NA
HETATM    5  C11 UNL     1      -8.156 -26.216  18.720  1.00  0.00     0.092 A 
HETATM    6  N4  UNL     1      -7.623 -25.304  19.676  1.00  0.00    -0.099 NA
HETATM    7  C12 UNL     1      -8.558 -25.690  17.514  1.00  0.00     0.096 A 
HETATM    8  C13 UNL     1      -8.438 -24.280  17.251  1.00  0.00     0.103 C 
HETATM    9  N5  UNL     1      -8.357 -23.142  17.028  1.00  0.00    -0.191 NA
HETATM   10  C14 UNL     1      -9.077 -26.552  16.574  1.00  0.00     0.092 A 
HETATM   11  N6  UNL     1      -9.498 -26.029  15.324  1.00  0.00    -0.099 NA
HETATM   12  C15 UNL     1      -9.187 -27.898  16.837  1.00  0.00     0.098 A 
HETATM   13  C16 UNL     1      -9.728 -28.808  15.861  1.00  0.00     0.104 C 
HETATM   14  N7  UNL     1     -10.166 -29.560  15.082  1.00  0.00    -0.191 NA
ENDROOT
BRANCH   1  15
HETATM   15  N2  UNL     1      -8.900 -29.849  18.322  1.00  0.00    -0.378 N 
HETATM   16  C7  UNL     1      -7.724 -30.653  18.149  1.00  0.00     0.123 C 
HETATM   17  C6  UNL     1      -7.950 -32.116  18.087  1.00  0.00     0.021 C 
HETATM   18  C5  UNL     1      -9.368 -32.562  18.258  1.00  0.00     0.014 C 
HETATM   19  C3  UNL     1     -10.146 -31.740  19.258  1.00  0.00    -0.001 C 
HETATM   20  C17 UNL     1     -10.191 -30.334  18.744  1.00  0.00     0.134 C 
BRANCH  19  21
HETATM   21  C2  UNL     1     -11.525 -32.309  19.401  1.00  0.00     0.008 C 
HETATM   22  C1  UNL     1     -12.516 -31.823  18.393  1.00  0.00     0.006 C 
ENDBRANCH  19  21
BRANCH  19  23
HETATM   23  C4  UNL     1      -9.461 -31.801  20.612  1.00  0.00     0.240 C 
BRANCH  23  24
HETATM   24  N1  UNL     1     -10.371 -32.260  21.643  1.00  0.00    -0.079 N 
ATOM     25  H13 UNL     1     -10.057 -33.138  22.055  1.00  0.00     0.274 HD
ATOM     26  H12 UNL     1     -10.323 -31.671  22.474  1.00  0.00     0.274 HD
ATOM     27  H11 UNL     1     -11.325 -32.332  21.290  1.00  0.00     0.274 HD
ENDBRANCH  23  24
ENDBRANCH  19  23
ENDBRANCH   1  15
TORSDOF 4
ENDMDL
MODEL 4
REMARK VINA RESULT: -7.112537274      2.192      6.236
REMARK  4 active torsions:
REMARK  status: ('A' for Active; 'I' for Inactive)
REMARK    1  A    between atoms: C2_2  and  C3_3 
REMARK    2  A    between atoms: C3_3  and  C4_4 
REMARK    3  A    between atoms: C4_4  and  N1_5 
REMARK    4  A    between atoms: N2_12  and  C8_13 
ROOT
HETATM    1  C8  UNL     1      -8.762 -28.378  18.048  1.00  0.00     0.076 A 
HETATM    2  C9  UNL     1      -9.135 -27.844  16.833  1.00  0.00     0.098 A 
HETATM    3  C10 UNL     1      -9.655 -28.707  15.815  1.00  0.00     0.104 C 
HETATM    4  N3  UNL     1     -10.063 -29.395  14.981  1.00  0.00    -0.191 NA
HETATM    5  C11 UNL     1      -9.016 -26.480  16.573  1.00  0.00     0.092 A 
HETATM    6  N4  UNL     1      -9.398 -25.917  15.321  1.00  0.00    -0.099 NA
HETATM    7  C12 UNL     1      -8.522 -25.614  17.521  1.00  0.00     0.096 A 
HETATM    8  C13 UNL     1      -8.404 -24.206  17.240  1.00  0.00     0.103 C 
HETATM    9  N5  UNL     1      -8.293 -23.070  17.025  1.00  0.00    -0.191 NA
HETATM   10  C14 UNL     1      -8.146 -26.135  18.739  1.00  0.00     0.092 A 
HETATM   11  N6  UNL     1      -7.633 -25.258  19.730  1.00  0.00    -0.099 NA
HETATM   12  C15 UNL     1      -8.262 -27.481  18.995  1.00  0.00     0.098 A 
HETATM   13  C16 UNL     1      -7.872 -28.036  20.265  1.00  0.00     0.104 C 
HETATM   14  N7  UNL     1      -7.558 -28.503  21.288  1.00  0.00    -0.191 NA
ENDROOT
BRANCH   1  15
HETATM   15  N2  UNL     1      -8.882 -29.773  18.318  1.00  0.00    -0.378 N 
HETATM   16  C7  UNL     1      -7.698 -30.573  18.185  1.00  0.00     0.123 C 
HETATM   17  C6  UNL     1      -7.918 -32.037  18.122  1.00  0.00     0.021 C 
HETATM   18  C5  UNL     1      -9.338 -32.488  18.251  1.00  0.00     0.014 C 
HETATM   19  C3  UNL     1     -10.149 -31.664  19.224  1.00  0.00    -0.001 C 
HETATM   20  C17 UNL     1     -10.183 -30.260  18.702  1.00  0.00     0.134 C 
BRANCH  19  21
HETATM   21  C2  UNL     1     -11.529 -32.238  19.327  1.00  0.00     0.008 C 
HETATM   22  C1  UNL     1     -12.512 -31.699  18.338  1.00  0.00     0.006 C 
ENDBRANCH  19  21
BRANCH  19  23
HETATM   23  C4  UNL     1      -9.506 -31.717  20.598  1.00  0.00     0.240 C 
BRANCH  23  24
HETATM   24  N1  UNL     1     -10.401 -32.302  21.577  1.00  0.00    -0.079 N 
ATOM     25  H13 UNL     1     -10.215 -33.296  21.707  1.00  0.00     0.274 HD
ATOM     26  H12 UNL     1     -10.186 -31.978  22.521  1.00  0.00     0.274 HD
ATOM     27  H11 UNL     1     -11.376 -32.132  21.336  1.00  0.00     0.274 HD
ENDBRANCH  23  24
ENDBRANCH  19  23
ENDBRANCH   1  15
TORSDOF 4
ENDMDL
MODEL 5
REMARK VINA RESULT: -6.694377159      2.436      6.256
REMARK  4 active torsions:
REMARK  status: ('A' for Active; 'I' for Inactive)
REMARK    1  A    between atoms: C2_2  and  C3_3 
REMARK    2  A    between atoms: C3_3  and  C4_4 
REMARK    3  A    between atoms: C4_4  and  N1_5 
REMARK    4  A    between atoms: N2_12  and  C8_13 
ROOT
HETATM    1  C8  UNL     1      -9.085 -27.551  17.519  1.00  0.00     0.076 A 
HETATM    2  C9  UNL     1      -9.087 -26.325  16.889  1.00  0.00     0.098 A 
HETATM    3  C10 UNL     1      -9.718 -26.191  15.611  1.00  0.00     0.104 C 
HETATM    4  N3  UNL     1     -10.212 -26.074  14.572  1.00  0.00    -0.191 NA
HETATM    5  C11 UNL     1      -8.486 -25.210  17.472  1.00  0.00     0.092 A 
HETATM    6  N4  UNL     1      -8.483 -23.937  16.831  1.00  0.00    -0.099 NA
HETATM    7  C12 UNL     1      -7.869 -25.291  18.699  1.00  0.00     0.096 A 
HETATM    8  C13 UNL     1      -7.253 -24.132  19.290  1.00  0.00     0.103 C 
HETATM    9  N5  UNL     1      -6.742 -23.208  19.775  1.00  0.00    -0.191 NA
HETATM   10  C14 UNL     1      -7.861 -26.511  19.338  1.00  0.00     0.092 A 
HETATM   11  N6  UNL     1      -7.228 -26.616  20.604  1.00  0.00    -0.099 NA
HETATM   12  C15 UNL     1      -8.452 -27.611  18.763  1.00  0.00     0.098 A 
HETATM   13  C16 UNL     1      -8.448 -28.891  19.422  1.00  0.00     0.104 C 
HETATM   14  N7  UNL     1      -8.452 -29.937  19.942  1.00  0.00    -0.191 NA
ENDROOT
BRANCH   1  15
HETATM   15  N2  UNL     1      -9.697 -28.695  16.927  1.00  0.00    -0.378 N 
HETATM   16  C7  UNL     1      -8.925 -29.435  15.970  1.00  0.00     0.123 C 
HETATM   17  C6  UNL     1      -9.688 -30.382  15.124  1.00  0.00     0.021 C 
HETATM   18  C5  UNL     1     -11.153 -30.474  15.411  1.00  0.00     0.014 C 
HETATM   19  C3  UNL     1     -11.492 -30.362  16.878  1.00  0.00    -0.001 C 
HETATM   20  C17 UNL     1     -11.042 -29.011  17.341  1.00  0.00     0.134 C 
BRANCH  19  21
HETATM   21  C2  UNL     1     -12.969 -30.533  17.060  1.00  0.00     0.008 C 
HETATM   22  C1  UNL     1     -13.580 -31.640  16.262  1.00  0.00     0.006 C 
ENDBRANCH  19  21
BRANCH  19  23
HETATM   23  C4  UNL     1     -10.785 -31.463  17.650  1.00  0.00     0.240 C 
BRANCH  23  24
HETATM   24  N1  UNL     1     -11.102 -31.402  19.064  1.00  0.00    -0.079 N 
ATOM     25  H13 UNL     1     -10.270 -31.230  19.627  1.00  0.00     0.274 HD
ATOM     26  H12 UNL     1     -11.624 -30.556  19.294  1.00  0.00     0.274 HD
ATOM     27  H11 UNL     1     -11.595 -32.240  19.370  1.00  0.00     0.274 HD
ENDBRANCH  23  24
ENDBRANCH  19  23
ENDBRANCH   1  15
TORSDOF 4
ENDMDL
