MODEL 1
REMARK VINA RESULT: -7.237015208      0.000      0.000
REMARK  3 active torsions:
REMARK  status: ('A' for Active; 'I' for Inactive)
REMARK    1  A    between atoms: C2_2  and  C4_4 
REMARK    2  A    between atoms: C7_10  and  N2_11 
REMARK    3  A    between atoms: C14_23  and  N6_24 
ROOT
HETATM    1  C4  UNL     1     -10.046 -27.787  17.393  1.00  0.00     0.055 A 
HETATM    2  N1  UNL     1      -9.085 -28.595  17.787  1.00  0.00    -0.353 N 
ATOM      3  H1  UNL     1      -8.143 -28.235  17.935  1.00  0.00     0.166 HD
HETATM    4  C5  UNL     1      -9.339 -29.860  17.988  1.00  0.00     0.050 A 
HETATM    5  C6  UNL     1     -10.607 -30.303  17.773  1.00  0.00     0.073 A 
HETATM    6  S1  UNL     1     -11.390 -28.828  17.290  1.00  0.00    -0.074 SA
HETATM    7  C7  UNL     1     -11.043 -31.746  17.835  1.00  0.00     0.308 C 
HETATM    8  N3  UNL     1     -12.460 -31.698  18.087  1.00  0.00    -0.323 N 
ATOM      9  H3  UNL     1     -13.040 -31.260  17.371  1.00  0.00     0.165 HD
HETATM   10  C12 UNL     1     -13.055 -32.147  19.108  1.00  0.00     0.186 C 
HETATM   11  N4  UNL     1     -14.459 -32.078  19.312  1.00  0.00    -0.064 NA
HETATM   12  N5  UNL     1     -12.239 -32.763  20.127  1.00  0.00    -0.362 N 
ATOM     13  H5  UNL     1     -12.599 -33.478  20.758  1.00  0.00     0.162 HD
HETATM   14  C13 UNL     1     -10.865 -32.292  20.188  1.00  0.00     0.170 C 
HETATM   15  C14 UNL     1     -10.219 -32.492  18.776  1.00  0.00     0.216 C 
HETATM   16  C15 UNL     1      -8.856 -32.008  18.949  1.00  0.00     0.020 C 
HETATM   17  C16 UNL     1      -8.411 -30.845  18.624  1.00  0.00     0.029 C 
ENDROOT
BRANCH   7  18
HETATM   18  N2  UNL     1     -10.877 -32.225  16.440  1.00  0.00     0.126 N 
HETATM   19  C8  UNL     1     -12.037 -32.639  15.805  1.00  0.00     0.276 C 
HETATM   20  C9  UNL     1     -11.883 -32.271  14.353  1.00  0.00     0.032 C 
HETATM   21  C10 UNL     1     -10.674 -31.385  14.273  1.00  0.00     0.032 C 
HETATM   22  C11 UNL     1     -10.236 -31.220  15.701  1.00  0.00     0.276 C 
ENDBRANCH   7  18
BRANCH  15  23
HETATM   23  N6  UNL     1     -10.236 -33.944  18.639  1.00  0.00    -0.060 N 
ATOM     24  H63 UNL     1     -11.172 -34.255  18.379  1.00  0.00     0.275 HD
ATOM     25  H62 UNL     1      -9.713 -34.218  17.807  1.00  0.00     0.275 HD
ATOM     26  H61 UNL     1      -9.907 -34.477  19.444  1.00  0.00     0.275 HD
ENDBRANCH  15  23
BRANCH   1  27
HETATM   27  C2  UNL     1      -9.908 -26.311  17.122  1.00  0.00     0.035 C 
HETATM   28  C1  UNL     1      -9.654 -26.055  15.653  1.00  0.00     0.016 C 
HETATM   29  C3  UNL     1      -8.703 -25.836  17.906  1.00  0.00     0.016 C 
ENDBRANCH   1  27
TORSDOF 3
ENDMDL
MODEL 2
REMARK VINA RESULT: -6.969487897      1.812      3.993
REMARK  3 active torsions:
REMARK  status: ('A' for Active; 'I' for Inactive)
REMARK    1  A    between atoms: C2_2  and  C4_4 
REMARK    2  A    between atoms: C7_10  and  N2_11 
REMARK    3  A    between atoms: C14_23  and  N6_24 
ROOT
HETATM    1  C4  UNL     1      -9.919 -27.132  17.281  1.00  0.00     0.055 A 
HETATM    2  N1  UNL     1     -11.100 -27.680  17.088  1.00  0.00    -0.353 N 
ATOM      3  H1  UNL     1     -11.892 -27.103  16.806  1.00  0.00     0.166 HD
HETATM    4  C5  UNL     1     -11.257 -28.966  17.258  1.00  0.00     0.050 A 
HETATM    5  C6  UNL     1     -10.178 -29.700  17.640  1.00  0.00     0.073 A 
HETATM    6  S1  UNL     1      -8.957 -28.465  17.726  1.00  0.00    -0.074 SA
HETATM    7  C7  UNL     1     -10.209 -31.165  18.001  1.00  0.00     0.308 C 
HETATM    8  N3  UNL     1      -8.861 -31.628  17.805  1.00  0.00    -0.323 N 
ATOM      9  H3  UNL     1      -8.141 -31.209  18.394  1.00  0.00     0.165 HD
HETATM   10  C12 UNL     1      -8.482 -32.502  16.975  1.00  0.00     0.186 C 
HETATM   11  N4  UNL     1      -7.136 -32.929  16.818  1.00  0.00    -0.064 NA
HETATM   12  N5  UNL     1      -9.496 -33.094  16.135  1.00  0.00    -0.362 N 
ATOM     13  H5  UNL     1      -9.403 -34.031  15.743  1.00  0.00     0.162 HD
HETATM   14  C13 UNL     1     -10.659 -32.258  15.887  1.00  0.00     0.170 C 
HETATM   15  C14 UNL     1     -11.267 -31.850  17.271  1.00  0.00     0.216 C 
HETATM   16  C15 UNL     1     -12.422 -31.037  16.913  1.00  0.00     0.020 C 
HETATM   17  C16 UNL     1     -12.472 -29.752  16.883  1.00  0.00     0.029 C 
ENDROOT
BRANCH   7  18
HETATM   18  N2  UNL     1     -10.448 -31.163  19.465  1.00  0.00     0.126 N 
HETATM   19  C8  UNL     1     -10.534 -32.411  20.062  1.00  0.00     0.276 C 
HETATM   20  C9  UNL     1      -9.939 -32.269  21.438  1.00  0.00     0.032 C 
HETATM   21  C10 UNL     1      -9.275 -30.922  21.469  1.00  0.00     0.032 C 
HETATM   22  C11 UNL     1      -9.450 -30.388  20.075  1.00  0.00     0.276 C 
ENDBRANCH   7  18
BRANCH  15  23
HETATM   23  N6  UNL     1     -11.691 -33.139  17.808  1.00  0.00    -0.060 N 
ATOM     24  H63 UNL     1     -11.680 -33.108  18.828  1.00  0.00     0.275 HD
ATOM     25  H62 UNL     1     -12.688 -33.272  17.638  1.00  0.00     0.275 HD
ATOM     26  H61 UNL     1     -11.174 -33.955  17.482  1.00  0.00     0.275 HD
ENDBRANCH  15  23
BRANCH   1  27
HETATM   27  C2  UNL     1      -9.584 -25.671  17.124  1.00  0.00     0.035 C 
HETATM   28  C1  UNL     1      -8.974 -25.401  15.767  1.00  0.00     0.016 C 
HETATM   29  C3  UNL     1      -8.555 -25.345  18.185  1.00  0.00     0.016 C 
ENDBRANCH   1  27
TORSDOF 3
ENDMDL
MODEL 3
REMARK VINA RESULT: -6.954309751      1.679      2.677
REMARK  3 active torsions:
REMARK  status: ('A' for Active; 'I' for Inactive)
REMARK    1  A    between atoms: C2_2  and  C4_4 
REMARK    2  A    between atoms: C7_10  and  N2_11 
REMARK    3  A    between atoms: C14_23  and  N6_24 
ROOT
HETATM    1  C4  UNL     1      -9.552 -28.218  16.327  1.00  0.00     0.055 A 
HETATM    2  N1  UNL     1      -9.109 -29.236  15.620  1.00  0.00    -0.353 N 
ATOM      3  H1  UNL     1      -8.676 -29.076  14.710  1.00  0.00     0.166 HD
HETATM    4  C5  UNL     1      -9.225 -30.451  16.084  1.00  0.00     0.050 A 
HETATM    5  C6  UNL     1      -9.814 -30.622  17.297  1.00  0.00     0.073 A 
HETATM    6  S1  UNL     1     -10.170 -28.975  17.722  1.00  0.00    -0.074 SA
HETATM    7  C7  UNL     1     -10.140 -31.956  17.923  1.00  0.00     0.308 C 
HETATM    8  N3  UNL     1     -10.224 -31.697  19.336  1.00  0.00    -0.323 N 
ATOM      9  H3  UNL     1     -10.956 -31.056  19.643  1.00  0.00     0.165 HD
HETATM   10  C12 UNL     1      -9.479 -32.185  20.233  1.00  0.00     0.186 C 
HETATM   11  N4  UNL     1      -9.601 -31.900  21.619  1.00  0.00    -0.064 NA
HETATM   12  N5  UNL     1      -8.438 -33.088  19.803  1.00  0.00    -0.362 N 
ATOM     13  H5  UNL     1      -8.061 -33.817  20.409  1.00  0.00     0.162 HD
HETATM   14  C13 UNL     1      -7.965 -32.884  18.444  1.00  0.00     0.170 C 
HETATM   15  C14 UNL     1      -9.196 -32.974  17.482  1.00  0.00     0.216 C 
HETATM   16  C15 UNL     1      -8.616 -32.773  16.160  1.00  0.00     0.020 C 
HETATM   17  C16 UNL     1      -8.594 -31.672  15.495  1.00  0.00     0.029 C 
ENDROOT
BRANCH   7  18
HETATM   18  N2  UNL     1     -11.523 -32.235  17.460  1.00  0.00     0.126 N 
HETATM   19  C8  UNL     1     -12.459 -32.448  18.460  1.00  0.00     0.276 C 
HETATM   20  C9  UNL     1     -13.759 -31.881  17.955  1.00  0.00     0.032 C 
HETATM   21  C10 UNL     1     -13.422 -31.101  16.717  1.00  0.00     0.032 C 
HETATM   22  C11 UNL     1     -11.925 -31.189  16.616  1.00  0.00     0.276 C 
ENDBRANCH   7  18
BRANCH  15  23
HETATM   23  N6  UNL     1      -9.615 -34.361  17.654  1.00  0.00    -0.060 N 
ATOM     24  H63 UNL     1     -10.594 -34.461  17.386  1.00  0.00     0.275 HD
ATOM     25  H62 UNL     1      -9.169 -34.946  16.948  1.00  0.00     0.275 HD
ATOM     26  H61 UNL     1      -9.468 -34.765  18.579  1.00  0.00     0.275 HD
ENDBRANCH  15  23
BRANCH   1  27
HETATM   27  C2  UNL     1      -9.489 -26.766  15.927  1.00  0.00     0.035 C 
HETATM   28  C1  UNL     1      -8.093 -26.217  16.113  1.00  0.00     0.016 C 
HETATM   29  C3  UNL     1     -10.424 -26.019  16.853  1.00  0.00     0.016 C 
ENDBRANCH   1  27
TORSDOF 3
ENDMDL
MODEL 4
REMARK VINA RESULT: -6.739332724      1.689      3.824
REMARK  3 active torsions:
REMARK  status: ('A' for Active; 'I' for Inactive)
REMARK    1  A    between atoms: C2_2  and  C4_4 
REMARK    2  A    between atoms: C7_10  and  N2_11 
REMARK    3  A    between atoms: C14_23  and  N6_24 
ROOT
HETATM    1  C4  UNL     1      -9.723 -27.868  16.978  1.00  0.00     0.055 A 
HETATM    2  N1  UNL     1     -11.021 -28.056  17.096  1.00  0.00    -0.353 N 
ATOM      3  H1  UNL     1     -11.658 -27.261  17.049  1.00  0.00     0.166 HD
HETATM    4  C5  UNL     1     -11.491 -29.261  17.273  1.00  0.00     0.050 A 
HETATM    5  C6  UNL     1     -10.608 -30.293  17.336  1.00  0.00     0.073 A 
HETATM    6  S1  UNL     1      -9.104 -29.448  17.119  1.00  0.00    -0.074 SA
HETATM    7  C7  UNL     1     -10.967 -31.722  17.659  1.00  0.00     0.308 C 
HETATM    8  N3  UNL     1      -9.901 -32.511  17.098  1.00  0.00    -0.323 N 
ATOM      9  H3  UNL     1      -8.968 -32.362  17.482  1.00  0.00     0.165 HD
HETATM   10  C12 UNL     1     -10.009 -33.371  16.178  1.00  0.00     0.186 C 
HETATM   11  N4  UNL     1      -8.926 -34.128  15.657  1.00  0.00    -0.064 NA
HETATM   12  N5  UNL     1     -11.327 -33.581  15.627  1.00  0.00    -0.362 N 
ATOM     13  H5  UNL     1     -11.607 -34.466  15.204  1.00  0.00     0.162 HD
HETATM   14  C13 UNL     1     -12.225 -32.443  15.719  1.00  0.00     0.170 C 
HETATM   15  C14 UNL     1     -12.324 -32.022  17.224  1.00  0.00     0.216 C 
HETATM   16  C15 UNL     1     -13.249 -30.897  17.207  1.00  0.00     0.020 C 
HETATM   17  C16 UNL     1     -12.934 -29.649  17.220  1.00  0.00     0.029 C 
ENDROOT
BRANCH   7  18
HETATM   18  N2  UNL     1     -10.820 -31.799  19.134  1.00  0.00     0.126 N 
HETATM   19  C8  UNL     1     -10.382 -33.016  19.632  1.00  0.00     0.276 C 
HETATM   20  C9  UNL     1      -9.530 -32.704  20.833  1.00  0.00     0.032 C 
HETATM   21  C10 UNL     1      -9.306 -31.220  20.813  1.00  0.00     0.032 C 
HETATM   22  C11 UNL     1      -9.974 -30.759  19.548  1.00  0.00     0.276 C 
ENDBRANCH   7  18
BRANCH  15  23
HETATM   23  N6  UNL     1     -12.951 -33.194  17.826  1.00  0.00    -0.060 N 
ATOM     24  H63 UNL     1     -13.957 -33.172  17.656  1.00  0.00     0.275 HD
ATOM     25  H62 UNL     1     -12.694 -34.030  17.300  1.00  0.00     0.275 HD
ATOM     26  H61 UNL     1     -12.772 -33.342  18.819  1.00  0.00     0.275 HD
ENDBRANCH  15  23
BRANCH   1  27
HETATM   27  C2  UNL     1      -9.034 -26.544  16.770  1.00  0.00     0.035 C 
HETATM   28  C1  UNL     1      -9.637 -25.802  15.598  1.00  0.00     0.016 C 
HETATM   29  C3  UNL     1      -7.588 -26.852  16.449  1.00  0.00     0.016 C 
ENDBRANCH   1  27
TORSDOF 3
ENDMDL
MODEL 5
REMARK VINA RESULT: -6.686346810      1.533      1.713
REMARK  3 active torsions:
REMARK  status: ('A' for Active; 'I' for Inactive)
REMARK    1  A    between atoms: C2_2  and  C4_4 
REMARK    2  A    between atoms: C7_10  and  N2_11 
REMARK    3  A    between atoms: C14_23  and  N6_24 
ROOT
HETATM    1  C4  UNL     1      -9.607 -28.544  17.467  1.00  0.00     0.055 A 
HETATM    2  N1  UNL     1      -9.283 -29.229  18.543  1.00  0.00    -0.353 N 
ATOM      3  H1  UNL     1      -8.665 -28.819  19.243  1.00  0.00     0.166 HD
HETATM    4  C5  UNL     1      -9.753 -30.435  18.714  1.00  0.00     0.050 A 
HETATM    5  C6  UNL     1     -10.568 -30.949  17.754  1.00  0.00     0.073 A 
HETATM    6  S1  UNL     1     -10.625 -29.624  16.631  1.00  0.00    -0.074 SA
HETATM    7  C7  UNL     1     -11.095 -32.363  17.730  1.00  0.00     0.308 C 
HETATM    8  N3  UNL     1     -12.279 -32.307  16.914  1.00  0.00    -0.323 N 
ATOM      9  H3  UNL     1     -12.153 -32.038  15.938  1.00  0.00     0.165 HD
HETATM   10  C12 UNL     1     -13.460 -32.560  17.288  1.00  0.00     0.186 C 
HETATM   11  N4  UNL     1     -14.600 -32.492  16.443  1.00  0.00    -0.064 NA
HETATM   12  N5  UNL     1     -13.645 -32.936  18.669  1.00  0.00    -0.362 N 
ATOM     13  H5  UNL     1     -14.422 -33.521  18.978  1.00  0.00     0.162 HD
HETATM   14  C13 UNL     1     -12.645 -32.422  19.590  1.00  0.00     0.170 C 
HETATM   15  C14 UNL     1     -11.236 -32.881  19.084  1.00  0.00     0.216 C 
HETATM   16  C15 UNL     1     -10.319 -32.333  20.073  1.00  0.00     0.020 C 
HETATM   17  C16 UNL     1      -9.639 -31.246  19.965  1.00  0.00     0.029 C 
ENDROOT
BRANCH   7  18
HETATM   18  N2  UNL     1     -10.075 -33.106  16.948  1.00  0.00     0.126 N 
HETATM   19  C8  UNL     1     -10.550 -33.791  15.841  1.00  0.00     0.276 C 
HETATM   20  C9  UNL     1      -9.463 -33.727  14.801  1.00  0.00     0.032 C 
HETATM   21  C10 UNL     1      -8.458 -32.733  15.308  1.00  0.00     0.032 C 
HETATM   22  C11 UNL     1      -9.060 -32.210  16.582  1.00  0.00     0.276 C 
ENDBRANCH   7  18
BRANCH  15  23
HETATM   23  N6  UNL     1     -11.326 -34.331  19.214  1.00  0.00    -0.060 N 
ATOM     24  H63 UNL     1     -12.066 -34.573  19.873  1.00  0.00     0.275 HD
ATOM     25  H62 UNL     1     -11.706 -34.732  18.356  1.00  0.00     0.275 HD
ATOM     26  H61 UNL     1     -10.466 -34.816  19.470  1.00  0.00     0.275 HD
ENDBRANCH  15  23
BRANCH   1  27
HETATM   27  C2  UNL     1      -9.147 -27.149  17.132  1.00  0.00     0.035 C 
HETATM   28  C1  UNL     1     -10.005 -26.546  16.042  1.00  0.00     0.016 C 
HETATM   29  C3  UNL     1      -7.730 -27.270  16.613  1.00  0.00     0.016 C 
ENDBRANCH   1  27
TORSDOF 3
ENDMDL
