MODEL 1
REMARK VINA RESULT: -8.189912822      0.000      0.000
REMARK  2 active torsions:
REMARK  status: ('A' for Active; 'I' for Inactive)
REMARK    1  A    between atoms: N3_7  and  C4_8 
REMARK    2  A    between atoms: C7_11  and  N4_12 
ROOT
HETATM    1  C4  UNL     1      -8.561 -27.121  17.446  1.00  0.00     0.083 C 
HETATM    2  C5  UNL     1      -7.454 -28.077  17.074  1.00  0.00     0.050 C 
HETATM    3  C6  UNL     1      -7.933 -29.468  17.190  1.00  0.00     0.000 C 
HETATM    4  C7  UNL     1      -9.133 -29.813  16.801  1.00  0.00     0.015 C 
HETATM    5  C13 UNL     1     -10.020 -28.770  16.195  1.00  0.00     0.059 C 
HETATM    6  C14 UNL     1      -9.667 -27.368  16.444  1.00  0.00     0.028 C 
ENDROOT
BRANCH   4   7
HETATM    7  N4  UNL     1      -9.656 -31.134  16.879  1.00  0.00    -0.296 N 
HETATM    8  C8  UNL     1      -9.818 -31.956  15.839  1.00  0.00     0.190 A 
HETATM    9  N5  UNL     1     -10.285 -33.167  16.259  1.00  0.00    -0.346 N 
HETATM   10  C9  UNL     1     -10.418 -33.090  17.610  1.00  0.00     0.116 A 
ATOM     11  H5  UNL     1     -10.495 -33.974  15.672  1.00  0.00     0.167 HD
HETATM   12  C10 UNL     1     -10.821 -33.968  18.580  1.00  0.00     0.132 A 
HETATM   13  C12 UNL     1     -10.016 -31.797  17.983  1.00  0.00     0.144 A 
HETATM   14  S1  UNL     1     -11.278 -35.465  18.120  1.00  0.00    -0.058 SA
HETATM   15  N6  UNL     1     -10.834 -33.603  19.856  1.00  0.00    -0.341 N 
HETATM   16  C11 UNL     1     -10.455 -32.370  20.258  1.00  0.00     0.183 A 
ATOM     17  H6  UNL     1     -11.140 -34.276  20.558  1.00  0.00     0.167 HD
HETATM   18  N7  UNL     1     -10.065 -31.526  19.311  1.00  0.00    -0.336 N 
ATOM     19  H7  UNL     1      -9.777 -30.594  19.607  1.00  0.00     0.168 HD
ENDBRANCH   4   7
BRANCH   1  20
HETATM   20  N3  UNL     1      -8.127 -25.771  17.348  1.00  0.00    -0.223 NA
HETATM   21  C3  UNL     1      -9.074 -24.862  16.825  1.00  0.00     0.134 C 
HETATM   22  C2  UNL     1      -9.832 -24.190  17.981  1.00  0.00     0.138 C 
HETATM   23  N2  UNL     1      -8.839 -23.340  18.634  1.00  0.00    -0.362 N 
HETATM   24  C1  UNL     1      -7.657 -23.861  18.853  1.00  0.00     0.198 C 
ATOM     25  H2  UNL     1      -9.056 -22.382  18.908  1.00  0.00     0.162 HD
HETATM   26  N1  UNL     1      -6.633 -23.103  19.481  1.00  0.00    -0.062 NA
HETATM   27  N8  UNL     1      -7.484 -25.219  18.426  1.00  0.00    -0.292 N 
ATOM     28  H8  UNL     1      -6.843 -25.810  18.956  1.00  0.00     0.183 HD
ENDBRANCH   1  20
TORSDOF 2
ENDMDL
MODEL 2
REMARK VINA RESULT: -8.142464362      3.434      5.208
REMARK  2 active torsions:
REMARK  status: ('A' for Active; 'I' for Inactive)
REMARK    1  A    between atoms: N3_7  and  C4_8 
REMARK    2  A    between atoms: C7_11  and  N4_12 
ROOT
HETATM    1  C4  UNL     1      -7.830 -22.212  16.603  1.00  0.00     0.083 C 
HETATM    2  C5  UNL     1      -7.673 -22.722  18.014  1.00  0.00     0.050 C 
HETATM    3  C6  UNL     1      -8.458 -23.958  18.191  1.00  0.00     0.000 C 
HETATM    4  C7  UNL     1      -8.509 -24.876  17.261  1.00  0.00     0.015 C 
HETATM    5  C13 UNL     1      -7.720 -24.671  16.006  1.00  0.00     0.059 C 
HETATM    6  C14 UNL     1      -7.278 -23.303  15.711  1.00  0.00     0.028 C 
ENDROOT
BRANCH   4   7
HETATM    7  N4  UNL     1      -9.240 -26.092  17.368  1.00  0.00    -0.296 N 
HETATM    8  C8  UNL     1     -10.461 -26.298  16.870  1.00  0.00     0.190 A 
HETATM    9  N5  UNL     1     -10.854 -27.585  17.092  1.00  0.00    -0.346 N 
HETATM   10  C9  UNL     1      -9.837 -28.198  17.754  1.00  0.00     0.116 A 
ATOM     11  H5  UNL     1     -11.741 -28.006  16.815  1.00  0.00     0.167 HD
HETATM   12  C10 UNL     1      -9.637 -29.466  18.230  1.00  0.00     0.132 A 
HETATM   13  C12 UNL     1      -8.826 -27.238  17.920  1.00  0.00     0.144 A 
HETATM   14  S1  UNL     1     -10.826 -30.563  18.019  1.00  0.00    -0.058 SA
HETATM   15  N6  UNL     1      -8.502 -29.785  18.841  1.00  0.00    -0.341 N 
HETATM   16  C11 UNL     1      -7.504 -28.893  19.021  1.00  0.00     0.183 A 
ATOM     17  H6  UNL     1      -8.380 -30.736  19.186  1.00  0.00     0.167 HD
HETATM   18  N7  UNL     1      -7.708 -27.666  18.556  1.00  0.00    -0.336 N 
ATOM     19  H7  UNL     1      -6.958 -26.988  18.688  1.00  0.00     0.168 HD
ENDBRANCH   4   7
BRANCH   1  20
HETATM   20  N3  UNL     1      -7.087 -21.017  16.403  1.00  0.00    -0.223 NA
HETATM   21  C3  UNL     1      -6.923 -20.619  15.057  1.00  0.00     0.134 C 
HETATM   22  C2  UNL     1      -8.021 -19.608  14.684  1.00  0.00     0.138 C 
HETATM   23  N2  UNL     1      -7.703 -18.410  15.457  1.00  0.00    -0.362 N 
HETATM   24  C1  UNL     1      -7.381 -18.578  16.715  1.00  0.00     0.198 C 
ATOM     25  H2  UNL     1      -7.731 -17.482  15.035  1.00  0.00     0.162 HD
HETATM   26  N1  UNL     1      -7.057 -17.466  17.537  1.00  0.00    -0.062 NA
HETATM   27  N8  UNL     1      -7.386 -19.932  17.187  1.00  0.00    -0.292 N 
ATOM     28  H8  UNL     1      -7.625 -20.098  18.164  1.00  0.00     0.183 HD
ENDBRANCH   1  20
TORSDOF 2
ENDMDL
MODEL 3
REMARK VINA RESULT: -7.962187306      3.052      4.775
REMARK  2 active torsions:
REMARK  status: ('A' for Active; 'I' for Inactive)
REMARK    1  A    between atoms: N3_7  and  C4_8 
REMARK    2  A    between atoms: C7_11  and  N4_12 
ROOT
HETATM    1  C4  UNL     1      -7.065 -23.040  17.133  1.00  0.00     0.083 C 
HETATM    2  C5  UNL     1      -7.324 -23.723  15.813  1.00  0.00     0.050 C 
HETATM    3  C6  UNL     1      -7.934 -25.046  16.043  1.00  0.00     0.000 C 
HETATM    4  C7  UNL     1      -8.847 -25.228  16.962  1.00  0.00     0.015 C 
HETATM    5  C13 UNL     1      -9.298 -24.051  17.770  1.00  0.00     0.059 C 
HETATM    6  C14 UNL     1      -8.422 -22.873  17.780  1.00  0.00     0.028 C 
ENDROOT
BRANCH   4   7
HETATM    7  N4  UNL     1      -9.480 -26.473  17.234  1.00  0.00    -0.296 N 
HETATM    8  C8  UNL     1     -10.733 -26.784  16.897  1.00  0.00     0.190 A 
HETATM    9  N5  UNL     1     -11.014 -28.072  17.247  1.00  0.00    -0.346 N 
HETATM   10  C9  UNL     1      -9.890 -28.576  17.824  1.00  0.00     0.116 A 
ATOM     11  H5  UNL     1     -11.897 -28.562  17.105  1.00  0.00     0.167 HD
HETATM   12  C10 UNL     1      -9.554 -29.792  18.355  1.00  0.00     0.132 A 
HETATM   13  C12 UNL     1      -8.932 -27.550  17.807  1.00  0.00     0.144 A 
HETATM   14  S1  UNL     1     -10.685 -30.968  18.358  1.00  0.00    -0.058 SA
HETATM   15  N6  UNL     1      -8.339 -30.000  18.848  1.00  0.00    -0.341 N 
HETATM   16  C11 UNL     1      -7.388 -29.041  18.850  1.00  0.00     0.183 A 
ATOM     17  H6  UNL     1      -8.117 -30.915  19.238  1.00  0.00     0.167 HD
HETATM   18  N7  UNL     1      -7.723 -27.866  18.333  1.00  0.00    -0.336 N 
ATOM     19  H7  UNL     1      -7.009 -27.137  18.332  1.00  0.00     0.168 HD
ENDBRANCH   4   7
BRANCH   1  20
HETATM   20  N3  UNL     1      -6.472 -21.762  16.943  1.00  0.00    -0.223 NA
HETATM   21  C3  UNL     1      -5.995 -21.500  15.638  1.00  0.00     0.134 C 
HETATM   22  C2  UNL     1      -7.075 -20.753  14.838  1.00  0.00     0.138 C 
HETATM   23  N2  UNL     1      -7.160 -19.436  15.464  1.00  0.00    -0.362 N 
HETATM   24  C1  UNL     1      -7.183 -19.396  16.773  1.00  0.00     0.198 C 
ATOM     25  H2  UNL     1      -7.199 -18.583  14.906  1.00  0.00     0.162 HD
HETATM   26  N1  UNL     1      -7.263 -18.156  17.461  1.00  0.00    -0.062 NA
HETATM   27  N8  UNL     1      -7.128 -20.665  17.439  1.00  0.00    -0.292 N 
ATOM     28  H8  UNL     1      -7.607 -20.757  18.335  1.00  0.00     0.183 HD
ENDBRANCH   1  20
TORSDOF 2
ENDMDL
MODEL 4
REMARK VINA RESULT: -7.937769102      3.278      4.832
REMARK  2 active torsions:
REMARK  status: ('A' for Active; 'I' for Inactive)
REMARK    1  A    between atoms: N3_7  and  C4_8 
REMARK    2  A    between atoms: C7_11  and  N4_12 
ROOT
HETATM    1  C4  UNL     1      -7.466 -23.081  16.784  1.00  0.00     0.083 C 
HETATM    2  C5  UNL     1      -7.819 -24.018  15.656  1.00  0.00     0.050 C 
HETATM    3  C6  UNL     1      -7.832 -25.410  16.144  1.00  0.00     0.000 C 
HETATM    4  C7  UNL     1      -8.331 -25.720  17.313  1.00  0.00     0.015 C 
HETATM    5  C13 UNL     1      -8.929 -24.633  18.150  1.00  0.00     0.059 C 
HETATM    6  C14 UNL     1      -8.562 -23.252  17.814  1.00  0.00     0.028 C 
ENDROOT
BRANCH   4   7
HETATM    7  N4  UNL     1      -8.381 -27.040  17.843  1.00  0.00    -0.296 N 
HETATM    8  C8  UNL     1      -7.413 -27.614  18.560  1.00  0.00     0.190 A 
HETATM    9  N5  UNL     1      -7.797 -28.858  18.967  1.00  0.00    -0.346 N 
HETATM   10  C9  UNL     1      -9.051 -29.061  18.481  1.00  0.00     0.116 A 
ATOM     11  H5  UNL     1      -7.249 -29.511  19.527  1.00  0.00     0.167 HD
HETATM   12  C10 UNL     1      -9.950 -30.089  18.562  1.00  0.00     0.132 A 
HETATM   13  C12 UNL     1      -9.403 -27.900  17.773  1.00  0.00     0.144 A 
HETATM   14  S1  UNL     1      -9.518 -31.424  19.395  1.00  0.00    -0.058 SA
HETATM   15  N6  UNL     1     -11.139 -29.993  17.979  1.00  0.00    -0.341 N 
HETATM   16  C11 UNL     1     -11.518 -28.895  17.290  1.00  0.00     0.183 A 
ATOM     17  H6  UNL     1     -11.789 -30.775  18.055  1.00  0.00     0.167 HD
HETATM   18  N7  UNL     1     -10.639 -27.903  17.217  1.00  0.00    -0.336 N 
ATOM     19  H7  UNL     1     -10.919 -27.071  16.697  1.00  0.00     0.168 HD
ENDBRANCH   4   7
BRANCH   1  20
HETATM   20  N3  UNL     1      -7.441 -21.731  16.341  1.00  0.00    -0.223 NA
HETATM   21  C3  UNL     1      -6.861 -20.805  17.238  1.00  0.00     0.134 C 
HETATM   22  C2  UNL     1      -5.379 -20.605  16.879  1.00  0.00     0.138 C 
HETATM   23  N2  UNL     1      -5.396 -19.904  15.598  1.00  0.00    -0.362 N 
HETATM   24  C1  UNL     1      -6.227 -20.346  14.686  1.00  0.00     0.198 C 
ATOM     25  H2  UNL     1      -4.787 -19.106  15.420  1.00  0.00     0.162 HD
HETATM   26  N1  UNL     1      -6.307 -19.720  13.413  1.00  0.00    -0.062 NA
HETATM   27  N8  UNL     1      -7.022 -21.479  15.060  1.00  0.00    -0.292 N 
ATOM     28  H8  UNL     1      -7.291 -22.137  14.329  1.00  0.00     0.183 HD
ENDBRANCH   1  20
TORSDOF 2
ENDMDL
MODEL 5
REMARK VINA RESULT: -7.881468828      1.439      1.580
REMARK  2 active torsions:
REMARK  status: ('A' for Active; 'I' for Inactive)
REMARK    1  A    between atoms: N3_7  and  C4_8 
REMARK    2  A    between atoms: C7_11  and  N4_12 
ROOT
HETATM    1  C4  UNL     1      -8.924 -26.241  16.956  1.00  0.00     0.083 C 
HETATM    2  C5  UNL     1      -7.580 -26.882  16.712  1.00  0.00     0.050 C 
HETATM    3  C6  UNL     1      -7.692 -28.347  16.845  1.00  0.00     0.000 C 
HETATM    4  C7  UNL     1      -8.723 -29.000  16.376  1.00  0.00     0.015 C 
HETATM    5  C13 UNL     1      -9.792 -28.236  15.659  1.00  0.00     0.059 C 
HETATM    6  C14 UNL     1      -9.837 -26.785  15.879  1.00  0.00     0.028 C 
ENDROOT
BRANCH   4   7
HETATM    7  N4  UNL     1      -8.892 -30.410  16.464  1.00  0.00    -0.296 N 
HETATM    8  C8  UNL     1      -8.685 -31.270  15.464  1.00  0.00     0.190 A 
HETATM    9  N5  UNL     1      -8.878 -32.551  15.892  1.00  0.00    -0.346 N 
HETATM   10  C9  UNL     1      -9.217 -32.480  17.207  1.00  0.00     0.116 A 
ATOM     11  H5  UNL     1      -8.785 -33.399  15.333  1.00  0.00     0.167 HD
HETATM   12  C10 UNL     1      -9.514 -33.409  18.167  1.00  0.00     0.132 A 
HETATM   13  C12 UNL     1      -9.222 -31.118  17.550  1.00  0.00     0.144 A 
HETATM   14  S1  UNL     1      -9.498 -34.984  17.743  1.00  0.00    -0.058 SA
HETATM   15  N6  UNL     1      -9.803 -33.030  19.406  1.00  0.00    -0.341 N 
HETATM   16  C11 UNL     1      -9.818 -31.731  19.778  1.00  0.00     0.183 A 
ATOM     17  H6  UNL     1     -10.021 -33.743  20.100  1.00  0.00     0.167 HD
HETATM   18  N7  UNL     1      -9.529 -30.838  18.840  1.00  0.00    -0.336 N 
ATOM     19  H7  UNL     1      -9.538 -29.855  19.115  1.00  0.00     0.168 HD
ENDBRANCH   4   7
BRANCH   1  20
HETATM   20  N3  UNL     1      -8.847 -24.826  16.838  1.00  0.00    -0.223 NA
HETATM   21  C3  UNL     1      -9.328 -24.095  17.948  1.00  0.00     0.134 C 
HETATM   22  C2  UNL     1      -8.157 -23.752  18.883  1.00  0.00     0.138 C 
HETATM   23  N2  UNL     1      -7.353 -22.788  18.137  1.00  0.00    -0.362 N 
HETATM   24  C1  UNL     1      -7.116 -23.056  16.877  1.00  0.00     0.198 C 
ATOM     25  H2  UNL     1      -6.991 -21.942  18.577  1.00  0.00     0.162 HD
HETATM   26  N1  UNL     1      -6.344 -22.170  16.078  1.00  0.00    -0.062 NA
HETATM   27  N8  UNL     1      -7.676 -24.279  16.381  1.00  0.00    -0.292 N 
ATOM     28  H8  UNL     1      -7.172 -24.772  15.643  1.00  0.00     0.183 HD
ENDBRANCH   1  20
TORSDOF 2
ENDMDL
