MODEL 1
REMARK VINA RESULT: -9.433484605      0.000      0.000
REMARK  5 active torsions:
REMARK  status: ('A' for Active; 'I' for Inactive)
REMARK    1  A    between atoms: C2_2  and  C5_5 
REMARK    2  A    between atoms: C6_10  and  O1_11 
REMARK    3  A    between atoms: C7_13  and  C8_14 
REMARK    4  A    between atoms: C8_14  and  C9_15 
REMARK    5  A    between atoms: C9_15  and  C10_16 
ROOT
HETATM    1  C10 UNL     1      19.733  36.363  53.964  1.00  0.00     0.123 A 
HETATM    2  N3  UNL     1      19.590  36.097  52.623  1.00  0.00    -0.284 N 
ATOM      3  H3  UNL     1      19.136  35.272  52.231  1.00  0.00     0.188 HD
HETATM    4  N4  UNL     1      20.127  37.065  51.930  1.00  0.00    -0.285 N 
ATOM      5  H4  UNL     1      20.155  37.110  50.911  1.00  0.00     0.188 HD
HETATM    6  C11 UNL     1      20.635  37.990  52.754  1.00  0.00     0.136 A 
HETATM    7  N5  UNL     1      20.395  37.558  53.995  1.00  0.00    -0.317 N 
HETATM    8  C12 UNL     1      20.853  38.323  55.120  1.00  0.00     0.159 C 
HETATM    9  C13 UNL     1      21.712  39.462  54.719  1.00  0.00     0.254 C 
HETATM   10  N6  UNL     1      21.328  40.151  53.543  1.00  0.00    -0.058 N 
ATOM     11  H61 UNL     1      21.919  40.965  53.378  1.00  0.00     0.278 HD
ATOM     12  H62 UNL     1      20.434  40.627  53.665  1.00  0.00     0.278 HD
HETATM   13  C14 UNL     1      21.306  39.261  52.383  1.00  0.00     0.184 C 
HETATM   14  C15 UNL     1      20.491  39.958  51.322  1.00  0.00     0.047 C 
HETATM   15  C16 UNL     1      21.414  40.396  50.181  1.00  0.00     0.003 C 
HETATM   16  C17 UNL     1      21.992  39.130  49.596  1.00  0.00     0.000 C 
HETATM   17  C18 UNL     1      22.911  38.516  50.601  1.00  0.00     0.003 C 
HETATM   18  C19 UNL     1      22.746  39.038  51.991  1.00  0.00     0.047 C 
ENDROOT
BRANCH   1  19
HETATM   19  C9  UNL     1      19.247  35.490  55.018  1.00  0.00     0.051 C 
BRANCH  19  20
HETATM   20  C8  UNL     1      18.907  35.773  56.226  1.00  0.00     0.022 C 
BRANCH  20  21
HETATM   21  C7  UNL     1      17.583  36.170  56.684  1.00  0.00     0.041 A 
HETATM   22  C5  UNL     1      16.741  35.388  57.486  1.00  0.00     0.048 A 
HETATM   23  N1  UNL     1      15.633  36.102  57.680  1.00  0.00    -0.301 N 
HETATM   24  N2  UNL     1      15.719  37.247  57.072  1.00  0.00    -0.279 N 
ATOM     25  H1  UNL     1      14.830  35.794  58.229  1.00  0.00     0.186 HD
HETATM   26  C6  UNL     1      16.926  37.344  56.428  1.00  0.00     0.167 A 
ATOM     27  H2  UNL     1      14.997  37.967  57.073  1.00  0.00     0.189 HD
BRANCH  22  28
HETATM   28  C2  UNL     1      17.066  34.060  57.983  1.00  0.00    -0.006 C 
HETATM   29  C1  UNL     1      15.962  33.626  58.952  1.00  0.00     0.021 C 
HETATM   30  C3  UNL     1      18.358  34.066  58.806  1.00  0.00     0.021 C 
HETATM   31  C4  UNL     1      17.112  32.999  56.904  1.00  0.00     0.021 C 
ENDBRANCH  22  28
BRANCH  26  32
HETATM   32  O1  UNL     1      17.321  38.459  55.681  1.00  0.00    -0.344 OA
ATOM     33  H1  UNL     1      18.036  38.449  55.056  1.00  0.00     0.219 HD
ENDBRANCH  26  32
ENDBRANCH  20  21
ENDBRANCH  19  20
ENDBRANCH   1  19
TORSDOF 5
ENDMDL
MODEL 2
REMARK VINA RESULT: -8.783742955      2.815      7.766
REMARK  5 active torsions:
REMARK  status: ('A' for Active; 'I' for Inactive)
REMARK    1  A    between atoms: C2_2  and  C5_5 
REMARK    2  A    between atoms: C6_10  and  O1_11 
REMARK    3  A    between atoms: C7_13  and  C8_14 
REMARK    4  A    between atoms: C8_14  and  C9_15 
REMARK    5  A    between atoms: C9_15  and  C10_16 
ROOT
HETATM    1  C10 UNL     1      20.946  35.019  55.983  1.00  0.00     0.123 A 
HETATM    2  N3  UNL     1      19.723  35.178  55.375  1.00  0.00    -0.284 N 
ATOM      3  H3  UNL     1      19.578  35.448  54.403  1.00  0.00     0.188 HD
HETATM    4  N4  UNL     1      18.775  34.931  56.240  1.00  0.00    -0.285 N 
ATOM      5  H4  UNL     1      17.775  34.978  56.042  1.00  0.00     0.188 HD
HETATM    6  C11 UNL     1      19.309  34.605  57.423  1.00  0.00     0.136 A 
HETATM    7  N5  UNL     1      20.634  34.662  57.264  1.00  0.00    -0.317 N 
HETATM    8  C12 UNL     1      21.501  34.394  58.377  1.00  0.00     0.159 C 
HETATM    9  C13 UNL     1      20.758  34.242  59.650  1.00  0.00     0.254 C 
HETATM   10  N6  UNL     1      19.522  33.555  59.575  1.00  0.00    -0.058 N 
ATOM     11  H61 UNL     1      19.111  33.423  60.498  1.00  0.00     0.278 HD
ATOM     12  H62 UNL     1      19.654  32.577  59.319  1.00  0.00     0.278 HD
HETATM   13  C14 UNL     1      18.592  34.225  58.666  1.00  0.00     0.184 C 
HETATM   14  C15 UNL     1      17.521  33.216  58.328  1.00  0.00     0.047 C 
HETATM   15  C16 UNL     1      16.203  33.640  58.984  1.00  0.00     0.003 C 
HETATM   16  C17 UNL     1      15.832  34.967  58.367  1.00  0.00     0.000 C 
HETATM   17  C18 UNL     1      16.818  35.995  58.820  1.00  0.00     0.003 C 
HETATM   18  C19 UNL     1      18.073  35.434  59.403  1.00  0.00     0.047 C 
ENDROOT
BRANCH   1  19
HETATM   19  C9  UNL     1      22.216  35.217  55.306  1.00  0.00     0.051 C 
BRANCH  19  20
HETATM   20  C8  UNL     1      22.478  35.870  54.229  1.00  0.00     0.022 C 
BRANCH  20  21
HETATM   21  C7  UNL     1      22.874  37.268  54.137  1.00  0.00     0.041 A 
HETATM   22  C5  UNL     1      22.184  38.254  53.420  1.00  0.00     0.048 A 
HETATM   23  N1  UNL     1      22.864  39.388  53.586  1.00  0.00    -0.301 N 
HETATM   24  N2  UNL     1      23.904  39.187  54.337  1.00  0.00    -0.279 N 
ATOM     25  H1  UNL     1      22.604  40.288  53.181  1.00  0.00     0.186 HD
HETATM   26  C6  UNL     1      23.961  37.869  54.713  1.00  0.00     0.167 A 
ATOM     27  H2  UNL     1      24.579  39.902  54.608  1.00  0.00     0.189 HD
BRANCH  22  28
HETATM   28  C2  UNL     1      20.964  38.028  52.659  1.00  0.00    -0.006 C 
HETATM   29  C1  UNL     1      20.682  39.278  51.821  1.00  0.00     0.021 C 
HETATM   30  C3  UNL     1      19.749  37.863  53.577  1.00  0.00     0.021 C 
HETATM   31  C4  UNL     1      21.063  36.882  51.675  1.00  0.00     0.021 C 
ENDBRANCH  22  28
BRANCH  26  32
HETATM   32  O1  UNL     1      24.967  37.336  55.526  1.00  0.00    -0.344 OA
ATOM     33  H1  UNL     1      25.895  37.438  55.352  1.00  0.00     0.219 HD
ENDBRANCH  26  32
ENDBRANCH  20  21
ENDBRANCH  19  20
ENDBRANCH   1  19
TORSDOF 5
ENDMDL
MODEL 3
REMARK VINA RESULT: -8.727018302      2.323      2.988
REMARK  5 active torsions:
REMARK  status: ('A' for Active; 'I' for Inactive)
REMARK    1  A    between atoms: C2_2  and  C5_5 
REMARK    2  A    between atoms: C6_10  and  O1_11 
REMARK    3  A    between atoms: C7_13  and  C8_14 
REMARK    4  A    between atoms: C8_14  and  C9_15 
REMARK    5  A    between atoms: C9_15  and  C10_16 
ROOT
HETATM    1  C10 UNL     1      20.707  36.644  55.336  1.00  0.00     0.123 A 
HETATM    2  N3  UNL     1      19.590  37.218  54.777  1.00  0.00    -0.284 N 
ATOM      3  H3  UNL     1      18.628  36.930  54.953  1.00  0.00     0.188 HD
HETATM    4  N4  UNL     1      19.954  38.191  53.984  1.00  0.00    -0.285 N 
ATOM      5  H4  UNL     1      19.316  38.778  53.447  1.00  0.00     0.188 HD
HETATM    6  C11 UNL     1      21.288  38.303  53.981  1.00  0.00     0.136 A 
HETATM    7  N5  UNL     1      21.745  37.356  54.805  1.00  0.00    -0.317 N 
HETATM    8  C12 UNL     1      23.159  37.194  54.994  1.00  0.00     0.159 C 
HETATM    9  C13 UNL     1      23.955  38.041  54.074  1.00  0.00     0.254 C 
HETATM   10  N6  UNL     1      23.450  39.341  53.828  1.00  0.00    -0.058 N 
ATOM     11  H61 UNL     1      24.090  39.887  53.251  1.00  0.00     0.278 HD
ATOM     12  H62 UNL     1      23.469  39.914  54.671  1.00  0.00     0.278 HD
HETATM   13  C14 UNL     1      22.111  39.293  53.242  1.00  0.00     0.184 C 
HETATM   14  C15 UNL     1      21.513  40.667  53.425  1.00  0.00     0.047 C 
HETATM   15  C16 UNL     1      21.402  41.356  52.062  1.00  0.00     0.003 C 
HETATM   16  C17 UNL     1      20.452  40.518  51.241  1.00  0.00     0.000 C 
HETATM   17  C18 UNL     1      21.107  39.209  50.942  1.00  0.00     0.003 C 
HETATM   18  C19 UNL     1      22.292  38.900  51.797  1.00  0.00     0.047 C 
ENDROOT
BRANCH   1  19
HETATM   19  C9  UNL     1      20.663  35.531  56.268  1.00  0.00     0.051 C 
BRANCH  19  20
HETATM   20  C8  UNL     1      19.651  34.869  56.707  1.00  0.00     0.022 C 
BRANCH  20  21
HETATM   21  C7  UNL     1      19.272  34.687  58.101  1.00  0.00     0.041 A 
HETATM   22  C5  UNL     1      18.040  35.060  58.655  1.00  0.00     0.048 A 
HETATM   23  N1  UNL     1      18.090  34.728  59.945  1.00  0.00    -0.301 N 
HETATM   24  N2  UNL     1      19.236  34.188  60.230  1.00  0.00    -0.279 N 
ATOM     25  H1  UNL     1      17.334  34.876  60.614  1.00  0.00     0.186 HD
HETATM   26  C6  UNL     1      20.021  34.138  59.107  1.00  0.00     0.167 A 
ATOM     27  H2  UNL     1      19.512  33.851  61.153  1.00  0.00     0.189 HD
BRANCH  22  28
HETATM   28  C2  UNL     1      16.952  35.683  57.917  1.00  0.00    -0.006 C 
HETATM   29  C1  UNL     1      15.736  35.778  58.844  1.00  0.00     0.021 C 
HETATM   30  C3  UNL     1      16.504  34.819  56.735  1.00  0.00     0.021 C 
HETATM   31  C4  UNL     1      17.249  37.100  57.475  1.00  0.00     0.021 C 
ENDBRANCH  22  28
BRANCH  26  32
HETATM   32  O1  UNL     1      21.317  33.611  59.088  1.00  0.00    -0.344 OA
ATOM     33  H1  UNL     1      21.933  33.702  59.804  1.00  0.00     0.219 HD
ENDBRANCH  26  32
ENDBRANCH  20  21
ENDBRANCH  19  20
ENDBRANCH   1  19
TORSDOF 5
ENDMDL
MODEL 4
REMARK VINA RESULT: -8.674285116      1.872      7.555
REMARK  5 active torsions:
REMARK  status: ('A' for Active; 'I' for Inactive)
REMARK    1  A    between atoms: C2_2  and  C5_5 
REMARK    2  A    between atoms: C6_10  and  O1_11 
REMARK    3  A    between atoms: C7_13  and  C8_14 
REMARK    4  A    between atoms: C8_14  and  C9_15 
REMARK    5  A    between atoms: C9_15  and  C10_16 
ROOT
HETATM    1  C10 UNL     1      20.226  36.213  56.060  1.00  0.00     0.123 A 
HETATM    2  N3  UNL     1      20.362  35.028  56.743  1.00  0.00    -0.284 N 
ATOM      3  H3  UNL     1      21.217  34.474  56.798  1.00  0.00     0.188 HD
HETATM    4  N4  UNL     1      19.226  34.723  57.313  1.00  0.00    -0.285 N 
ATOM      5  H4  UNL     1      19.061  33.893  57.880  1.00  0.00     0.188 HD
HETATM    6  C11 UNL     1      18.313  35.663  57.041  1.00  0.00     0.136 A 
HETATM    7  N5  UNL     1      18.924  36.570  56.274  1.00  0.00    -0.317 N 
HETATM    8  C12 UNL     1      18.191  37.702  55.781  1.00  0.00     0.159 C 
HETATM    9  C13 UNL     1      16.742  37.611  56.078  1.00  0.00     0.254 C 
HETATM   10  N6  UNL     1      16.395  37.080  57.344  1.00  0.00    -0.058 N 
ATOM     11  H61 UNL     1      15.389  37.123  57.504  1.00  0.00     0.278 HD
ATOM     12  H62 UNL     1      16.702  37.690  58.101  1.00  0.00     0.278 HD
HETATM   13  C14 UNL     1      16.906  35.720  57.512  1.00  0.00     0.184 C 
HETATM   14  C15 UNL     1      16.869  35.427  58.991  1.00  0.00     0.047 C 
HETATM   15  C16 UNL     1      15.784  34.383  59.274  1.00  0.00     0.003 C 
HETATM   16  C17 UNL     1      16.203  33.131  58.541  1.00  0.00     0.000 C 
HETATM   17  C18 UNL     1      16.101  33.382  57.072  1.00  0.00     0.003 C 
HETATM   18  C19 UNL     1      16.007  34.824  56.695  1.00  0.00     0.047 C 
ENDROOT
BRANCH   1  19
HETATM   19  C9  UNL     1      21.299  36.843  55.312  1.00  0.00     0.051 C 
BRANCH  19  20
HETATM   20  C8  UNL     1      21.660  36.667  54.089  1.00  0.00     0.022 C 
BRANCH  20  21
HETATM   21  C7  UNL     1      20.850  36.906  52.903  1.00  0.00     0.041 A 
HETATM   22  C5  UNL     1      20.954  38.028  52.070  1.00  0.00     0.048 A 
HETATM   23  N1  UNL     1      20.046  37.870  51.107  1.00  0.00    -0.301 N 
HETATM   24  N2  UNL     1      19.398  36.757  51.274  1.00  0.00    -0.279 N 
ATOM     25  H1  UNL     1      19.884  38.529  50.346  1.00  0.00     0.186 HD
HETATM   26  C6  UNL     1      19.861  36.109  52.391  1.00  0.00     0.167 A 
ATOM     27  H2  UNL     1      18.654  36.415  50.666  1.00  0.00     0.189 HD
BRANCH  22  28
HETATM   28  C2  UNL     1      21.891  39.124  52.266  1.00  0.00    -0.006 C 
HETATM   29  C1  UNL     1      21.769  40.079  51.075  1.00  0.00     0.021 C 
HETATM   30  C3  UNL     1      23.342  38.633  52.254  1.00  0.00     0.021 C 
HETATM   31  C4  UNL     1      21.607  39.956  53.498  1.00  0.00     0.021 C 
ENDBRANCH  22  28
BRANCH  26  32
HETATM   32  O1  UNL     1      19.363  34.881  52.839  1.00  0.00    -0.344 OA
ATOM     33  H1  UNL     1      19.182  34.687  53.751  1.00  0.00     0.219 HD
ENDBRANCH  26  32
ENDBRANCH  20  21
ENDBRANCH  19  20
ENDBRANCH   1  19
TORSDOF 5
ENDMDL
MODEL 5
REMARK VINA RESULT: -8.673982106      2.358      7.579
REMARK  5 active torsions:
REMARK  status: ('A' for Active; 'I' for Inactive)
REMARK    1  A    between atoms: C2_2  and  C5_5 
REMARK    2  A    between atoms: C6_10  and  O1_11 
REMARK    3  A    between atoms: C7_13  and  C8_14 
REMARK    4  A    between atoms: C8_14  and  C9_15 
REMARK    5  A    between atoms: C9_15  and  C10_16 
ROOT
HETATM    1  C10 UNL     1      20.350  34.781  55.488  1.00  0.00     0.123 A 
HETATM    2  N3  UNL     1      19.069  34.770  54.989  1.00  0.00    -0.284 N 
ATOM      3  H3  UNL     1      18.817  34.879  54.007  1.00  0.00     0.188 HD
HETATM    4  N4  UNL     1      18.224  34.600  55.971  1.00  0.00    -0.285 N 
ATOM      5  H4  UNL     1      17.210  34.554  55.870  1.00  0.00     0.188 HD
HETATM    6  C11 UNL     1      18.886  34.492  57.130  1.00  0.00     0.136 A 
HETATM    7  N5  UNL     1      20.183  34.605  56.832  1.00  0.00    -0.317 N 
HETATM    8  C12 UNL     1      21.164  34.565  57.879  1.00  0.00     0.159 C 
HETATM    9  C13 UNL     1      20.552  34.563  59.230  1.00  0.00     0.254 C 
HETATM   10  N6  UNL     1      19.371  33.798  59.379  1.00  0.00    -0.058 N 
ATOM     11  H61 UNL     1      19.056  33.784  60.349  1.00  0.00     0.278 HD
ATOM     12  H62 UNL     1      19.553  32.802  59.258  1.00  0.00     0.278 HD
HETATM   13  C14 UNL     1      18.314  34.262  58.481  1.00  0.00     0.184 C 
HETATM   14  C15 UNL     1      17.297  33.151  58.403  1.00  0.00     0.047 C 
HETATM   15  C16 UNL     1      16.015  33.587  59.119  1.00  0.00     0.003 C 
HETATM   16  C17 UNL     1      15.490  34.780  58.355  1.00  0.00     0.000 C 
HETATM   17  C18 UNL     1      16.432  35.923  58.552  1.00  0.00     0.003 C 
HETATM   18  C19 UNL     1      17.774  35.536  59.082  1.00  0.00     0.047 C 
ENDROOT
BRANCH   1  19
HETATM   19  C9  UNL     1      21.535  34.951  54.665  1.00  0.00     0.051 C 
BRANCH  19  20
HETATM   20  C8  UNL     1      21.882  35.941  53.921  1.00  0.00     0.022 C 
BRANCH  20  21
HETATM   21  C7  UNL     1      21.060  36.599  52.914  1.00  0.00     0.041 A 
HETATM   22  C5  UNL     1      21.005  37.982  52.698  1.00  0.00     0.048 A 
HETATM   23  N1  UNL     1      20.144  38.175  51.700  1.00  0.00    -0.301 N 
HETATM   24  N2  UNL     1      19.668  37.039  51.286  1.00  0.00    -0.279 N 
ATOM     25  H1  UNL     1      19.894  39.086  51.314  1.00  0.00     0.186 HD
HETATM   26  C6  UNL     1      20.209  36.012  52.016  1.00  0.00     0.167 A 
ATOM     27  H2  UNL     1      18.992  36.928  50.530  1.00  0.00     0.189 HD
BRANCH  22  28
HETATM   28  C2  UNL     1      21.765  38.971  53.448  1.00  0.00    -0.006 C 
HETATM   29  C1  UNL     1      21.541  40.340  52.801  1.00  0.00     0.021 C 
HETATM   30  C3  UNL     1      23.271  38.712  53.357  1.00  0.00     0.021 C 
HETATM   31  C4  UNL     1      21.322  39.114  54.889  1.00  0.00     0.021 C 
ENDBRANCH  22  28
BRANCH  26  32
HETATM   32  O1  UNL     1      19.896  34.664  51.811  1.00  0.00    -0.344 OA
ATOM     33  H1  UNL     1      20.503  34.031  51.446  1.00  0.00     0.219 HD
ENDBRANCH  26  32
ENDBRANCH  20  21
ENDBRANCH  19  20
ENDBRANCH   1  19
TORSDOF 5
ENDMDL
