MODEL 1
REMARK VINA RESULT: -6.538755374      0.000      0.000
REMARK  10 active torsions:
REMARK  status: ('A' for Active; 'I' for Inactive)
REMARK    1  A    between atoms: C2_2  and  C3_3 
REMARK    2  A    between atoms: C3_3  and  C4_4 
REMARK    3  A    between atoms: C4_4  and  C5_5 
REMARK    4  A    between atoms: C5_5  and  C6_6 
REMARK    5  A    between atoms: C6_6  and  C7_7 
REMARK    6  A    between atoms: C7_7  and  C8_9 
REMARK    7  A    between atoms: C8_9  and  C9_10 
REMARK    8  A    between atoms: C9_10  and  O2_11 
REMARK    9  A    between atoms: C9_10  and  C10_13 
REMARK   10  A    between atoms: C10_13  and  C11_14 
ROOT
HETATM    1  C9  UNL     1      17.377  37.958  56.341  1.00  0.00     0.129 C 
ENDROOT
BRANCH   1   2
HETATM    2  C8  UNL     1      18.054  37.073  55.341  1.00  0.00     0.110 C 
BRANCH   2   3
HETATM    3  C7  UNL     1      19.470  37.466  55.195  1.00  0.00     0.129 C 
HETATM    4  O1  UNL     1      19.760  38.581  54.830  1.00  0.00    -0.298 OA
BRANCH   3   5
HETATM    5  C6  UNL     1      20.569  36.496  55.497  1.00  0.00     0.078 C 
BRANCH   5   6
HETATM    6  C5  UNL     1      19.854  35.232  55.977  1.00  0.00     0.007 C 
BRANCH   6   7
HETATM    7  C4  UNL     1      20.606  34.588  57.104  1.00  0.00     0.000 C 
BRANCH   7   8
HETATM    8  C3  UNL     1      21.781  35.454  57.467  1.00  0.00    -0.000 C 
BRANCH   8   9
HETATM    9  C2  UNL     1      22.212  35.220  58.880  1.00  0.00    -0.005 C 
HETATM   10  C1  UNL     1      21.885  33.788  59.284  1.00  0.00     0.005 C 
ENDBRANCH   8   9
ENDBRANCH   7   8
ENDBRANCH   6   7
ENDBRANCH   5   6
ENDBRANCH   3   5
ENDBRANCH   2   3
ENDBRANCH   1   2
BRANCH   1  11
HETATM   11  O2  UNL     1      16.781  39.052  55.622  1.00  0.00    -0.395 OA
ATOM     12  H2  UNL     1      15.897  39.164  55.949  1.00  0.00     0.210 HD
ENDBRANCH   1  11
BRANCH   1  13
HETATM   13  C10 UNL     1      16.274  37.232  57.054  1.00  0.00     0.070 C 
BRANCH  13  14
HETATM   14  C11 UNL     1      16.846  36.203  57.946  1.00  0.00    -0.055 A 
HETATM   15  C12 UNL     1      17.685  36.411  58.992  1.00  0.00     0.013 A 
HETATM   16  C13 UNL     1      18.188  35.382  59.779  1.00  0.00    -0.061 A 
HETATM   17  C14 UNL     1      19.106  35.654  60.916  1.00  0.00     0.048 C 
HETATM   18  C15 UNL     1      17.812  34.094  59.479  1.00  0.00     0.013 A 
HETATM   19  C16 UNL     1      16.953  33.834  58.415  1.00  0.00    -0.061 A 
HETATM   20  C17 UNL     1      16.539  32.431  58.083  1.00  0.00     0.048 C 
HETATM   21  C18 UNL     1      16.476  34.884  57.659  1.00  0.00     0.013 A 
ENDBRANCH  13  14
ENDBRANCH   1  13
TORSDOF 10
ENDMDL
MODEL 2
REMARK VINA RESULT: -6.453014524      0.167      1.912
REMARK  10 active torsions:
REMARK  status: ('A' for Active; 'I' for Inactive)
REMARK    1  A    between atoms: C2_2  and  C3_3 
REMARK    2  A    between atoms: C3_3  and  C4_4 
REMARK    3  A    between atoms: C4_4  and  C5_5 
REMARK    4  A    between atoms: C5_5  and  C6_6 
REMARK    5  A    between atoms: C6_6  and  C7_7 
REMARK    6  A    between atoms: C7_7  and  C8_9 
REMARK    7  A    between atoms: C8_9  and  C9_10 
REMARK    8  A    between atoms: C9_10  and  O2_11 
REMARK    9  A    between atoms: C9_10  and  C10_13 
REMARK   10  A    between atoms: C10_13  and  C11_14 
ROOT
HETATM    1  C9  UNL     1      17.355  37.942  56.293  1.00  0.00     0.129 C 
ENDROOT
BRANCH   1   2
HETATM    2  C8  UNL     1      18.048  37.089  55.277  1.00  0.00     0.110 C 
BRANCH   2   3
HETATM    3  C7  UNL     1      19.463  37.495  55.158  1.00  0.00     0.129 C 
HETATM    4  O1  UNL     1      19.749  38.607  54.781  1.00  0.00    -0.298 OA
BRANCH   3   5
HETATM    5  C6  UNL     1      20.565  36.542  55.499  1.00  0.00     0.078 C 
BRANCH   5   6
HETATM    6  C5  UNL     1      19.854  35.249  55.899  1.00  0.00     0.007 C 
BRANCH   6   7
HETATM    7  C4  UNL     1      20.548  34.592  57.055  1.00  0.00     0.000 C 
BRANCH   7   8
HETATM    8  C3  UNL     1      21.745  35.417  57.440  1.00  0.00    -0.000 C 
BRANCH   8   9
HETATM    9  C2  UNL     1      22.148  35.162  58.858  1.00  0.00    -0.005 C 
HETATM   10  C1  UNL     1      21.698  33.768  59.275  1.00  0.00     0.005 C 
ENDBRANCH   8   9
ENDBRANCH   7   8
ENDBRANCH   6   7
ENDBRANCH   5   6
ENDBRANCH   3   5
ENDBRANCH   2   3
ENDBRANCH   1   2
BRANCH   1  11
HETATM   11  O2  UNL     1      16.835  39.096  55.612  1.00  0.00    -0.395 OA
ATOM     12  H2  UNL     1      17.459  39.802  55.723  1.00  0.00     0.210 HD
ENDBRANCH   1  11
BRANCH   1  13
HETATM   13  C10 UNL     1      16.193  37.220  56.911  1.00  0.00     0.070 C 
BRANCH  13  14
HETATM   14  C11 UNL     1      16.679  36.069  57.699  1.00  0.00    -0.055 A 
HETATM   15  C12 UNL     1      16.385  34.760  57.492  1.00  0.00     0.013 A 
HETATM   16  C13 UNL     1      16.880  33.735  58.290  1.00  0.00    -0.061 A 
HETATM   17  C14 UNL     1      16.532  32.314  58.027  1.00  0.00     0.048 C 
HETATM   18  C15 UNL     1      17.706  34.070  59.336  1.00  0.00     0.013 A 
HETATM   19  C16 UNL     1      18.034  35.400  59.586  1.00  0.00    -0.061 A 
HETATM   20  C17 UNL     1      18.935  35.771  60.726  1.00  0.00     0.048 C 
HETATM   21  C18 UNL     1      17.523  36.387  58.770  1.00  0.00     0.013 A 
ENDBRANCH  13  14
ENDBRANCH   1  13
TORSDOF 10
ENDMDL
MODEL 3
REMARK VINA RESULT: -6.439332261      1.940      4.095
REMARK  10 active torsions:
REMARK  status: ('A' for Active; 'I' for Inactive)
REMARK    1  A    between atoms: C2_2  and  C3_3 
REMARK    2  A    between atoms: C3_3  and  C4_4 
REMARK    3  A    between atoms: C4_4  and  C5_5 
REMARK    4  A    between atoms: C5_5  and  C6_6 
REMARK    5  A    between atoms: C6_6  and  C7_7 
REMARK    6  A    between atoms: C7_7  and  C8_9 
REMARK    7  A    between atoms: C8_9  and  C9_10 
REMARK    8  A    between atoms: C9_10  and  O2_11 
REMARK    9  A    between atoms: C9_10  and  C10_13 
REMARK   10  A    between atoms: C10_13  and  C11_14 
ROOT
HETATM    1  C9  UNL     1      16.193  35.830  56.149  1.00  0.00     0.129 C 
ENDROOT
BRANCH   1   2
HETATM    2  C8  UNL     1      16.122  34.872  57.297  1.00  0.00     0.110 C 
BRANCH   2   3
HETATM    3  C7  UNL     1      16.120  35.613  58.574  1.00  0.00     0.129 C 
HETATM    4  O1  UNL     1      15.122  36.183  58.947  1.00  0.00    -0.298 OA
BRANCH   3   5
HETATM    5  C6  UNL     1      17.347  35.671  59.428  1.00  0.00     0.078 C 
BRANCH   5   6
HETATM    6  C5  UNL     1      17.892  34.242  59.427  1.00  0.00     0.007 C 
BRANCH   6   7
HETATM    7  C4  UNL     1      19.279  34.198  59.998  1.00  0.00     0.000 C 
BRANCH   7   8
HETATM    8  C3  UNL     1      19.642  35.564  60.509  1.00  0.00    -0.000 C 
BRANCH   8   9
HETATM    9  C2  UNL     1      21.117  35.690  60.723  1.00  0.00    -0.005 C 
HETATM   10  C1  UNL     1      21.722  34.310  60.939  1.00  0.00     0.005 C 
ENDBRANCH   8   9
ENDBRANCH   7   8
ENDBRANCH   6   7
ENDBRANCH   5   6
ENDBRANCH   3   5
ENDBRANCH   2   3
ENDBRANCH   1   2
BRANCH   1  11
HETATM   11  O2  UNL     1      15.127  36.781  56.309  1.00  0.00    -0.395 OA
ATOM     12  H2  UNL     1      15.443  37.476  56.875  1.00  0.00     0.210 HD
ENDBRANCH   1  11
BRANCH   1  13
HETATM   13  C10 UNL     1      17.485  36.595  56.155  1.00  0.00     0.070 C 
BRANCH  13  14
HETATM   14  C11 UNL     1      18.607  35.684  55.848  1.00  0.00    -0.055 A 
HETATM   15  C12 UNL     1      19.745  35.526  56.571  1.00  0.00     0.013 A 
HETATM   16  C13 UNL     1      20.760  34.650  56.206  1.00  0.00    -0.061 A 
HETATM   17  C14 UNL     1      21.992  34.507  57.027  1.00  0.00     0.048 C 
HETATM   18  C15 UNL     1      20.599  33.913  55.057  1.00  0.00     0.013 A 
HETATM   19  C16 UNL     1      19.448  34.044  54.285  1.00  0.00    -0.061 A 
HETATM   20  C17 UNL     1      19.265  33.241  53.030  1.00  0.00     0.048 C 
HETATM   21  C18 UNL     1      18.463  34.923  54.682  1.00  0.00     0.013 A 
ENDBRANCH  13  14
ENDBRANCH   1  13
TORSDOF 10
ENDMDL
MODEL 4
REMARK VINA RESULT: -6.325996307      2.484      5.178
REMARK  10 active torsions:
REMARK  status: ('A' for Active; 'I' for Inactive)
REMARK    1  A    between atoms: C2_2  and  C3_3 
REMARK    2  A    between atoms: C3_3  and  C4_4 
REMARK    3  A    between atoms: C4_4  and  C5_5 
REMARK    4  A    between atoms: C5_5  and  C6_6 
REMARK    5  A    between atoms: C6_6  and  C7_7 
REMARK    6  A    between atoms: C7_7  and  C8_9 
REMARK    7  A    between atoms: C8_9  and  C9_10 
REMARK    8  A    between atoms: C9_10  and  O2_11 
REMARK    9  A    between atoms: C9_10  and  C10_13 
REMARK   10  A    between atoms: C10_13  and  C11_14 
ROOT
HETATM    1  C9  UNL     1      18.224  33.983  56.197  1.00  0.00     0.129 C 
ENDROOT
BRANCH   1   2
HETATM    2  C8  UNL     1      16.846  34.492  56.484  1.00  0.00     0.110 C 
BRANCH   2   3
HETATM    3  C7  UNL     1      16.206  33.659  57.521  1.00  0.00     0.129 C 
HETATM    4  O1  UNL     1      15.866  32.526  57.272  1.00  0.00    -0.298 OA
BRANCH   3   5
HETATM    5  C6  UNL     1      15.966  34.198  58.897  1.00  0.00     0.078 C 
BRANCH   5   6
HETATM    6  C5  UNL     1      16.428  35.654  58.832  1.00  0.00     0.007 C 
BRANCH   6   7
HETATM    7  C4  UNL     1      17.660  35.862  59.662  1.00  0.00     0.000 C 
BRANCH   7   8
HETATM    8  C3  UNL     1      18.225  34.521  60.044  1.00  0.00    -0.000 C 
BRANCH   8   9
HETATM    9  C2  UNL     1      19.362  34.664  61.005  1.00  0.00    -0.005 C 
HETATM   10  C1  UNL     1      19.792  36.124  61.075  1.00  0.00     0.005 C 
ENDBRANCH   8   9
ENDBRANCH   7   8
ENDBRANCH   6   7
ENDBRANCH   5   6
ENDBRANCH   3   5
ENDBRANCH   2   3
ENDBRANCH   1   2
BRANCH   1  11
HETATM   11  O2  UNL     1      18.156  33.190  55.000  1.00  0.00    -0.395 OA
ATOM     12  H2  UNL     1      18.901  33.421  54.458  1.00  0.00     0.210 HD
ENDBRANCH   1  11
BRANCH   1  13
HETATM   13  C10 UNL     1      19.180  35.111  55.938  1.00  0.00     0.070 C 
BRANCH  13  14
HETATM   14  C11 UNL     1      20.541  34.723  56.361  1.00  0.00    -0.055 A 
HETATM   15  C12 UNL     1      20.965  34.508  57.633  1.00  0.00     0.013 A 
HETATM   16  C13 UNL     1      22.271  34.153  57.947  1.00  0.00    -0.061 A 
HETATM   17  C14 UNL     1      22.694  33.927  59.355  1.00  0.00     0.048 C 
HETATM   18  C15 UNL     1      23.171  34.014  56.918  1.00  0.00     0.013 A 
HETATM   19  C16 UNL     1      22.779  34.225  55.598  1.00  0.00    -0.061 A 
HETATM   20  C17 UNL     1      23.757  34.075  54.470  1.00  0.00     0.048 C 
HETATM   21  C18 UNL     1      21.474  34.575  55.328  1.00  0.00     0.013 A 
ENDBRANCH  13  14
ENDBRANCH   1  13
TORSDOF 10
ENDMDL
MODEL 5
REMARK VINA RESULT: -6.321743109      1.984      3.592
REMARK  10 active torsions:
REMARK  status: ('A' for Active; 'I' for Inactive)
REMARK    1  A    between atoms: C2_2  and  C3_3 
REMARK    2  A    between atoms: C3_3  and  C4_4 
REMARK    3  A    between atoms: C4_4  and  C5_5 
REMARK    4  A    between atoms: C5_5  and  C6_6 
REMARK    5  A    between atoms: C6_6  and  C7_7 
REMARK    6  A    between atoms: C7_7  and  C8_9 
REMARK    7  A    between atoms: C8_9  and  C9_10 
REMARK    8  A    between atoms: C9_10  and  O2_11 
REMARK    9  A    between atoms: C9_10  and  C10_13 
REMARK   10  A    between atoms: C10_13  and  C11_14 
ROOT
HETATM    1  C9  UNL     1      16.579  36.091  58.952  1.00  0.00     0.129 C 
ENDROOT
BRANCH   1   2
HETATM    2  C8  UNL     1      17.033  36.743  57.683  1.00  0.00     0.110 C 
BRANCH   2   3
HETATM    3  C7  UNL     1      16.334  36.143  56.529  1.00  0.00     0.129 C 
HETATM    4  O1  UNL     1      15.230  36.523  56.219  1.00  0.00    -0.298 OA
BRANCH   3   5
HETATM    5  C6  UNL     1      16.977  35.058  55.723  1.00  0.00     0.078 C 
BRANCH   5   6
HETATM    6  C5  UNL     1      18.460  35.430  55.679  1.00  0.00     0.007 C 
BRANCH   6   7
HETATM    7  C4  UNL     1      19.310  34.213  55.464  1.00  0.00     0.000 C 
BRANCH   7   8
HETATM    8  C3  UNL     1      20.759  34.603  55.568  1.00  0.00    -0.000 C 
BRANCH   8   9
HETATM    9  C2  UNL     1      21.619  33.736  54.704  1.00  0.00    -0.005 C 
HETATM   10  C1  UNL     1      23.034  33.698  55.265  1.00  0.00     0.005 C 
ENDBRANCH   8   9
ENDBRANCH   7   8
ENDBRANCH   6   7
ENDBRANCH   5   6
ENDBRANCH   3   5
ENDBRANCH   2   3
ENDBRANCH   1   2
BRANCH   1  11
HETATM   11  O2  UNL     1      15.165  35.857  58.840  1.00  0.00    -0.395 OA
ATOM     12  H2  UNL     1      14.982  35.008  59.225  1.00  0.00     0.210 HD
ENDBRANCH   1  11
BRANCH   1  13
HETATM   13  C10 UNL     1      17.243  34.759  59.149  1.00  0.00     0.070 C 
BRANCH  13  14
HETATM   14  C11 UNL     1      18.574  34.949  59.763  1.00  0.00    -0.055 A 
HETATM   15  C12 UNL     1      18.867  35.713  60.846  1.00  0.00     0.013 A 
HETATM   16  C13 UNL     1      20.153  35.845  61.356  1.00  0.00    -0.061 A 
HETATM   17  C14 UNL     1      20.430  36.694  62.545  1.00  0.00     0.048 C 
HETATM   18  C15 UNL     1      21.171  35.167  60.730  1.00  0.00     0.013 A 
HETATM   19  C16 UNL     1      20.916  34.372  59.616  1.00  0.00    -0.061 A 
HETATM   20  C17 UNL     1      22.024  33.629  58.929  1.00  0.00     0.048 C 
HETATM   21  C18 UNL     1      19.626  34.267  59.142  1.00  0.00     0.013 A 
ENDBRANCH  13  14
ENDBRANCH   1  13
TORSDOF 10
ENDMDL
