MODEL 1
REMARK VINA RESULT: -6.844980821      0.000      0.000
REMARK  9 active torsions:
REMARK  status: ('A' for Active; 'I' for Inactive)
REMARK    1  A    between atoms: C2_2  and  C3_3 
REMARK    2  A    between atoms: C3_3  and  C4_4 
REMARK    3  A    between atoms: C6_6  and  C7_7 
REMARK    4  A    between atoms: C7_7  and  O1_8 
REMARK    5  A    between atoms: C7_7  and  C8_10 
REMARK    6  A    between atoms: C11_13  and  O2_14 
REMARK    7  A    between atoms: O2_14  and  C12_15 
REMARK    8  A    between atoms: C14_17  and  C15_18 
REMARK    9  A    between atoms: C16_19  and  C17_20 
ROOT
HETATM    1  C4  UNL     1      20.376  34.590  56.304  1.00  0.00    -0.041 A 
HETATM    2  C5  UNL     1      20.258  34.447  54.837  1.00  0.00     0.022 A 
HETATM    3  C6  UNL     1      18.973  34.158  54.323  1.00  0.00     0.000 A 
HETATM    4  C10 UNL     1      17.937  34.045  55.194  1.00  0.00     0.052 A 
HETATM    5  C11 UNL     1      18.064  34.193  56.588  1.00  0.00     0.080 A 
HETATM    6  C14 UNL     1      19.314  34.452  57.063  1.00  0.00     0.004 A 
ENDROOT
BRANCH   3   7
HETATM    7  C7  UNL     1      18.892  33.886  52.992  1.00  0.00     0.075 C 
BRANCH   7   8
HETATM    8  O1  UNL     1      18.335  32.661  52.573  1.00  0.00    -0.360 OA
ATOM      9  H1  UNL     1      17.515  32.371  52.955  1.00  0.00     0.217 HD
ENDBRANCH   7   8
BRANCH   7  10
HETATM   10  C8  UNL     1      19.235  34.552  51.696  1.00  0.00     0.027 C 
HETATM   11  C9  UNL     1      18.543  34.939  50.730  1.00  0.00     0.014 C 
ENDBRANCH   7  10
ENDBRANCH   3   7
BRANCH   1  12
HETATM   12  C3  UNL     1      21.692  35.099  56.722  1.00  0.00     0.066 C 
BRANCH  12  13
HETATM   13  C2  UNL     1      22.722  34.071  56.914  1.00  0.00    -0.032 C 
HETATM   14  C1  UNL     1      23.202  33.425  57.894  1.00  0.00     0.007 C 
ENDBRANCH  12  13
ENDBRANCH   1  12
BRANCH   5  15
HETATM   15  O2  UNL     1      16.933  34.074  57.427  1.00  0.00    -0.351 OA
BRANCH  15  16
HETATM   16  C12 UNL     1      16.040  35.214  57.338  1.00  0.00     0.171 C 
HETATM   17  C13 UNL     1      15.961  35.841  58.753  1.00  0.00     0.034 C 
ENDBRANCH  15  16
ENDBRANCH   5  15
BRANCH   6  18
HETATM   18  C15 UNL     1      19.409  34.450  58.578  1.00  0.00     0.011 C 
HETATM   19  C16 UNL     1      19.718  33.663  59.510  1.00  0.00    -0.026 C 
BRANCH  19  20
HETATM   20  C17 UNL     1      19.598  34.234  60.934  1.00  0.00     0.022 C 
HETATM   21  C18 UNL     1      19.129  35.664  60.894  1.00  0.00     0.009 C 
ENDBRANCH  19  20
ENDBRANCH   6  18
TORSDOF 9
ENDMDL
MODEL 2
REMARK VINA RESULT: -6.731308268      1.392      3.840
REMARK  9 active torsions:
REMARK  status: ('A' for Active; 'I' for Inactive)
REMARK    1  A    between atoms: C2_2  and  C3_3 
REMARK    2  A    between atoms: C3_3  and  C4_4 
REMARK    3  A    between atoms: C6_6  and  C7_7 
REMARK    4  A    between atoms: C7_7  and  O1_8 
REMARK    5  A    between atoms: C7_7  and  C8_10 
REMARK    6  A    between atoms: C11_13  and  O2_14 
REMARK    7  A    between atoms: O2_14  and  C12_15 
REMARK    8  A    between atoms: C14_17  and  C15_18 
REMARK    9  A    between atoms: C16_19  and  C17_20 
ROOT
HETATM    1  C4  UNL     1      17.957  33.971  57.252  1.00  0.00    -0.041 A 
HETATM    2  C5  UNL     1      17.791  33.744  55.800  1.00  0.00     0.022 A 
HETATM    3  C6  UNL     1      18.895  34.050  54.973  1.00  0.00     0.000 A 
HETATM    4  C10 UNL     1      20.031  34.515  55.555  1.00  0.00     0.052 A 
HETATM    5  C11 UNL     1      20.178  34.718  56.939  1.00  0.00     0.080 A 
HETATM    6  C14 UNL     1      19.094  34.434  57.715  1.00  0.00     0.004 A 
ENDROOT
BRANCH   3   7
HETATM    7  C7  UNL     1      18.694  33.977  53.629  1.00  0.00     0.075 C 
BRANCH   7   8
HETATM    8  O1  UNL     1      17.720  33.089  53.128  1.00  0.00    -0.360 OA
ATOM      9  H1  UNL     1      17.155  32.629  53.737  1.00  0.00     0.217 HD
ENDBRANCH   7   8
BRANCH   7  10
HETATM   10  C8  UNL     1      19.229  34.615  52.385  1.00  0.00     0.027 C 
HETATM   11  C9  UNL     1      18.735  34.822  51.256  1.00  0.00     0.014 C 
ENDBRANCH   7  10
ENDBRANCH   3   7
BRANCH   1  12
HETATM   12  C3  UNL     1      16.845  33.424  58.045  1.00  0.00     0.066 C 
BRANCH  12  13
HETATM   13  C2  UNL     1      15.739  34.359  58.288  1.00  0.00    -0.032 C 
HETATM   14  C1  UNL     1      15.624  35.574  58.632  1.00  0.00     0.007 C 
ENDBRANCH  12  13
ENDBRANCH   1  12
BRANCH   5  15
HETATM   15  O2  UNL     1      21.399  35.192  57.470  1.00  0.00    -0.351 OA
BRANCH  15  16
HETATM   16  C12 UNL     1      22.493  34.256  57.295  1.00  0.00     0.171 C 
HETATM   17  C13 UNL     1      22.755  33.600  58.675  1.00  0.00     0.034 C 
ENDBRANCH  15  16
ENDBRANCH   5  15
BRANCH   6  18
HETATM   18  C15 UNL     1      19.266  34.816  59.175  1.00  0.00     0.011 C 
HETATM   19  C16 UNL     1      18.911  35.726  59.967  1.00  0.00    -0.026 C 
BRANCH  19  20
HETATM   20  C17 UNL     1      19.434  35.598  61.409  1.00  0.00     0.022 C 
HETATM   21  C18 UNL     1      20.914  35.871  61.462  1.00  0.00     0.009 C 
ENDBRANCH  19  20
ENDBRANCH   6  18
TORSDOF 9
ENDMDL
MODEL 3
REMARK VINA RESULT: -6.711088097      2.538      4.510
REMARK  9 active torsions:
REMARK  status: ('A' for Active; 'I' for Inactive)
REMARK    1  A    between atoms: C2_2  and  C3_3 
REMARK    2  A    between atoms: C3_3  and  C4_4 
REMARK    3  A    between atoms: C6_6  and  C7_7 
REMARK    4  A    between atoms: C7_7  and  O1_8 
REMARK    5  A    between atoms: C7_7  and  C8_10 
REMARK    6  A    between atoms: C11_13  and  O2_14 
REMARK    7  A    between atoms: O2_14  and  C12_15 
REMARK    8  A    between atoms: C14_17  and  C15_18 
REMARK    9  A    between atoms: C16_19  and  C17_20 
ROOT
HETATM    1  C4  UNL     1      20.712  34.324  58.806  1.00  0.00    -0.041 A 
HETATM    2  C5  UNL     1      22.104  34.610  58.394  1.00  0.00     0.022 A 
HETATM    3  C6  UNL     1      22.297  35.093  57.080  1.00  0.00     0.000 A 
HETATM    4  C10 UNL     1      21.207  35.277  56.291  1.00  0.00     0.052 A 
HETATM    5  C11 UNL     1      19.887  35.009  56.700  1.00  0.00     0.080 A 
HETATM    6  C14 UNL     1      19.727  34.526  57.964  1.00  0.00     0.004 A 
ENDROOT
BRANCH   3   7
HETATM    7  C7  UNL     1      23.584  35.218  56.656  1.00  0.00     0.075 C 
BRANCH   7   8
HETATM    8  O1  UNL     1      24.566  35.665  57.563  1.00  0.00    -0.360 OA
ATOM      9  H1  UNL     1      24.514  35.395  58.473  1.00  0.00     0.217 HD
ENDBRANCH   7   8
BRANCH   7  10
HETATM   10  C8  UNL     1      24.370  34.999  55.401  1.00  0.00     0.027 C 
HETATM   11  C9  UNL     1      24.110  34.416  54.327  1.00  0.00     0.014 C 
ENDBRANCH   7  10
ENDBRANCH   3   7
BRANCH   1  12
HETATM   12  C3  UNL     1      20.592  34.037  60.244  1.00  0.00     0.066 C 
BRANCH  12  13
HETATM   13  C2  UNL     1      20.627  35.218  61.117  1.00  0.00    -0.032 C 
HETATM   14  C1  UNL     1      19.872  36.211  61.346  1.00  0.00     0.007 C 
ENDBRANCH  12  13
ENDBRANCH   1  12
BRANCH   5  15
HETATM   15  O2  UNL     1      18.804  35.241  55.823  1.00  0.00    -0.351 OA
BRANCH  15  16
HETATM   16  C12 UNL     1      18.695  36.627  55.411  1.00  0.00     0.171 C 
HETATM   17  C13 UNL     1      17.589  37.275  56.282  1.00  0.00     0.034 C 
ENDBRANCH  15  16
ENDBRANCH   5  15
BRANCH   6  18
HETATM   18  C15 UNL     1      18.301  34.117  58.289  1.00  0.00     0.011 C 
HETATM   19  C16 UNL     1      17.311  34.553  58.931  1.00  0.00    -0.026 C 
BRANCH  19  20
HETATM   20  C17 UNL     1      16.064  33.650  58.931  1.00  0.00     0.022 C 
HETATM   21  C18 UNL     1      16.245  32.498  57.978  1.00  0.00     0.009 C 
ENDBRANCH  19  20
ENDBRANCH   6  18
TORSDOF 9
ENDMDL
MODEL 4
REMARK VINA RESULT: -6.599423517      2.429      4.805
REMARK  9 active torsions:
REMARK  status: ('A' for Active; 'I' for Inactive)
REMARK    1  A    between atoms: C2_2  and  C3_3 
REMARK    2  A    between atoms: C3_3  and  C4_4 
REMARK    3  A    between atoms: C6_6  and  C7_7 
REMARK    4  A    between atoms: C7_7  and  O1_8 
REMARK    5  A    between atoms: C7_7  and  C8_10 
REMARK    6  A    between atoms: C11_13  and  O2_14 
REMARK    7  A    between atoms: O2_14  and  C12_15 
REMARK    8  A    between atoms: C14_17  and  C15_18 
REMARK    9  A    between atoms: C16_19  and  C17_20 
ROOT
HETATM    1  C4  UNL     1      19.173  35.028  59.111  1.00  0.00    -0.041 A 
HETATM    2  C5  UNL     1      17.864  35.516  58.623  1.00  0.00     0.022 A 
HETATM    3  C6  UNL     1      17.711  35.648  57.225  1.00  0.00     0.000 A 
HETATM    4  C10 UNL     1      18.755  35.310  56.424  1.00  0.00     0.052 A 
HETATM    5  C11 UNL     1      19.991  34.838  56.902  1.00  0.00     0.080 A 
HETATM    6  C14 UNL     1      20.123  34.736  58.254  1.00  0.00     0.004 A 
ENDROOT
BRANCH   3   7
HETATM    7  C7  UNL     1      16.562  36.231  56.786  1.00  0.00     0.075 C 
BRANCH   7   8
HETATM    8  O1  UNL     1      15.350  35.517  56.881  1.00  0.00    -0.360 OA
ATOM      9  H1  UNL     1      14.535  35.958  56.672  1.00  0.00     0.217 HD
ENDBRANCH   7   8
BRANCH   7  10
HETATM   10  C8  UNL     1      16.132  37.531  56.181  1.00  0.00     0.027 C 
HETATM   11  C9  UNL     1      16.688  38.646  56.080  1.00  0.00     0.014 C 
ENDBRANCH   7  10
ENDBRANCH   3   7
BRANCH   1  12
HETATM   12  C3  UNL     1      19.164  34.719  60.550  1.00  0.00     0.066 C 
BRANCH  12  13
HETATM   13  C2  UNL     1      19.435  35.862  61.431  1.00  0.00    -0.032 C 
HETATM   14  C1  UNL     1      20.449  36.346  62.019  1.00  0.00     0.007 C 
ENDBRANCH  12  13
ENDBRANCH   1  12
BRANCH   5  15
HETATM   15  O2  UNL     1      21.024  34.493  56.002  1.00  0.00    -0.351 OA
BRANCH  15  16
HETATM   16  C12 UNL     1      21.375  35.574  55.102  1.00  0.00     0.171 C 
HETATM   17  C13 UNL     1      22.554  36.342  55.752  1.00  0.00     0.034 C 
ENDBRANCH  15  16
ENDBRANCH   5  15
BRANCH   6  18
HETATM   18  C15 UNL     1      21.524  34.367  58.709  1.00  0.00     0.011 C 
HETATM   19  C16 UNL     1      22.510  34.902  59.278  1.00  0.00    -0.026 C 
BRANCH  19  20
HETATM   20  C17 UNL     1      23.742  34.000  59.469  1.00  0.00     0.022 C 
HETATM   21  C18 UNL     1      23.878  33.038  58.318  1.00  0.00     0.009 C 
ENDBRANCH  19  20
ENDBRANCH   6  18
TORSDOF 9
ENDMDL
MODEL 5
REMARK VINA RESULT: -6.516558462      2.791      4.922
REMARK  9 active torsions:
REMARK  status: ('A' for Active; 'I' for Inactive)
REMARK    1  A    between atoms: C2_2  and  C3_3 
REMARK    2  A    between atoms: C3_3  and  C4_4 
REMARK    3  A    between atoms: C6_6  and  C7_7 
REMARK    4  A    between atoms: C7_7  and  O1_8 
REMARK    5  A    between atoms: C7_7  and  C8_10 
REMARK    6  A    between atoms: C11_13  and  O2_14 
REMARK    7  A    between atoms: O2_14  and  C12_15 
REMARK    8  A    between atoms: C14_17  and  C15_18 
REMARK    9  A    between atoms: C16_19  and  C17_20 
ROOT
HETATM    1  C4  UNL     1      19.929  35.565  56.550  1.00  0.00    -0.041 A 
HETATM    2  C5  UNL     1      21.347  35.572  56.125  1.00  0.00     0.022 A 
HETATM    3  C6  UNL     1      22.288  35.027  57.028  1.00  0.00     0.000 A 
HETATM    4  C10 UNL     1      21.839  34.524  58.207  1.00  0.00     0.052 A 
HETATM    5  C11 UNL     1      20.486  34.516  58.593  1.00  0.00     0.080 A 
HETATM    6  C14 UNL     1      19.599  35.063  57.716  1.00  0.00     0.004 A 
ENDROOT
BRANCH   3   7
HETATM    7  C7  UNL     1      23.602  35.164  56.700  1.00  0.00     0.075 C 
BRANCH   7   8
HETATM    8  O1  UNL     1      24.509  35.627  57.674  1.00  0.00    -0.360 OA
ATOM      9  H1  UNL     1      25.235  36.177  57.406  1.00  0.00     0.217 HD
ENDBRANCH   7   8
BRANCH   7  10
HETATM   10  C8  UNL     1      24.481  34.945  55.508  1.00  0.00     0.027 C 
HETATM   11  C9  UNL     1      24.262  34.503  54.360  1.00  0.00     0.014 C 
ENDBRANCH   7  10
ENDBRANCH   3   7
BRANCH   1  12
HETATM   12  C3  UNL     1      19.009  35.947  55.467  1.00  0.00     0.066 C 
BRANCH  12  13
HETATM   13  C2  UNL     1      18.639  37.368  55.442  1.00  0.00    -0.032 C 
HETATM   14  C1  UNL     1      17.668  38.070  55.859  1.00  0.00     0.007 C 
ENDBRANCH  12  13
ENDBRANCH   1  12
BRANCH   5  15
HETATM   15  O2  UNL     1      20.097  33.960  59.833  1.00  0.00    -0.351 OA
BRANCH  15  16
HETATM   16  C12 UNL     1      20.878  34.461  60.948  1.00  0.00     0.171 C 
HETATM   17  C13 UNL     1      20.272  35.830  61.348  1.00  0.00     0.034 C 
ENDBRANCH  15  16
ENDBRANCH   5  15
BRANCH   6  18
HETATM   18  C15 UNL     1      18.182  35.159  58.255  1.00  0.00     0.011 C 
HETATM   19  C16 UNL     1      17.452  35.981  58.867  1.00  0.00    -0.026 C 
BRANCH  19  20
HETATM   20  C17 UNL     1      16.026  35.498  59.187  1.00  0.00     0.022 C 
HETATM   21  C18 UNL     1      15.536  34.551  58.124  1.00  0.00     0.009 C 
ENDBRANCH  19  20
ENDBRANCH   6  18
TORSDOF 9
ENDMDL
