MODEL 1
REMARK VINA RESULT: -6.496386611      0.000      0.000
REMARK  10 active torsions:
REMARK  status: ('A' for Active; 'I' for Inactive)
REMARK    1  A    between atoms: C2_2  and  C3_3 
REMARK    2  A    between atoms: C3_3  and  C4_4 
REMARK    3  A    between atoms: C6_6  and  C7_7 
REMARK    4  A    between atoms: C7_7  and  C8_8 
REMARK    5  A    between atoms: C8_8  and  O1_9 
REMARK    6  A    between atoms: O1_9  and  C9_10 
REMARK    7  A    between atoms: C12_13  and  C13_14 
REMARK    8  A    between atoms: C13_14  and  C14_15 
REMARK    9  A    between atoms: C14_15  and  C15_16 
REMARK   10  A    between atoms: C18_19  and  O2_20 
ROOT
HETATM    1  C4  UNL     1      17.940  33.659  58.284  1.00  0.00    -0.024 A 
HETATM    2  C5  UNL     1      18.720  34.072  59.343  1.00  0.00     0.017 A 
HETATM    3  C6  UNL     1      19.926  34.699  59.173  1.00  0.00    -0.055 A 
HETATM    4  C11 UNL     1      20.368  34.922  57.893  1.00  0.00     0.017 A 
HETATM    5  C12 UNL     1      19.631  34.532  56.796  1.00  0.00    -0.024 A 
HETATM    6  C18 UNL     1      18.420  33.902  57.004  1.00  0.00     0.078 A 
ENDROOT
BRANCH   3   7
HETATM    7  C7  UNL     1      20.785  35.154  60.338  1.00  0.00     0.065 C 
BRANCH   7   8
HETATM    8  C8  UNL     1      21.833  34.146  60.644  1.00  0.00     0.172 C 
BRANCH   8   9
HETATM    9  O1  UNL     1      23.071  34.499  60.277  1.00  0.00    -0.391 OA
BRANCH   9  10
HETATM   10  C9  UNL     1      23.923  33.723  59.591  1.00  0.00     0.163 C 
HETATM   11  C10 UNL     1      23.548  33.236  58.232  1.00  0.00     0.033 C 
ENDBRANCH   9  10
ENDBRANCH   8   9
ENDBRANCH   7   8
ENDBRANCH   3   7
BRANCH   1  12
HETATM   12  C3  UNL     1      16.640  32.987  58.481  1.00  0.00     0.041 C 
BRANCH  12  13
HETATM   13  C2  UNL     1      15.787  33.667  59.522  1.00  0.00     0.000 C 
HETATM   14  C1  UNL     1      15.414  35.035  58.935  1.00  0.00     0.005 C 
ENDBRANCH  12  13
ENDBRANCH   1  12
BRANCH   5  15
HETATM   15  C13 UNL     1      20.151  34.812  55.447  1.00  0.00     0.042 C 
BRANCH  15  16
HETATM   16  C14 UNL     1      21.651  34.923  55.459  1.00  0.00     0.008 C 
BRANCH  16  17
HETATM   17  C15 UNL     1      22.301  33.877  54.621  1.00  0.00    -0.023 C 
HETATM   18  C16 UNL     1      21.760  33.766  53.231  1.00  0.00     0.009 C 
HETATM   19  C17 UNL     1      23.793  34.080  54.547  1.00  0.00     0.009 C 
ENDBRANCH  16  17
ENDBRANCH  15  16
ENDBRANCH   5  15
BRANCH   6  20
HETATM   20  O2  UNL     1      17.695  33.516  55.899  1.00  0.00    -0.360 OA
ATOM     21  H2  UNL     1      17.599  32.596  55.681  1.00  0.00     0.217 HD
ENDBRANCH   6  20
TORSDOF 10
ENDMDL
MODEL 2
REMARK VINA RESULT: -6.462225346      1.678      4.674
REMARK  10 active torsions:
REMARK  status: ('A' for Active; 'I' for Inactive)
REMARK    1  A    between atoms: C2_2  and  C3_3 
REMARK    2  A    between atoms: C3_3  and  C4_4 
REMARK    3  A    between atoms: C6_6  and  C7_7 
REMARK    4  A    between atoms: C7_7  and  C8_8 
REMARK    5  A    between atoms: C8_8  and  O1_9 
REMARK    6  A    between atoms: O1_9  and  C9_10 
REMARK    7  A    between atoms: C12_13  and  C13_14 
REMARK    8  A    between atoms: C13_14  and  C14_15 
REMARK    9  A    between atoms: C14_15  and  C15_16 
REMARK   10  A    between atoms: C18_19  and  O2_20 
ROOT
HETATM    1  C4  UNL     1      20.341  34.340  59.439  1.00  0.00    -0.024 A 
HETATM    2  C5  UNL     1      19.426  34.692  58.471  1.00  0.00     0.017 A 
HETATM    3  C6  UNL     1      19.762  34.828  57.149  1.00  0.00    -0.055 A 
HETATM    4  C11 UNL     1      21.065  34.603  56.783  1.00  0.00     0.017 A 
HETATM    5  C12 UNL     1      22.023  34.248  57.707  1.00  0.00    -0.024 A 
HETATM    6  C18 UNL     1      21.651  34.119  59.031  1.00  0.00     0.078 A 
ENDROOT
BRANCH   3   7
HETATM    7  C7  UNL     1      18.754  35.216  56.084  1.00  0.00     0.065 C 
BRANCH   7   8
HETATM    8  C8  UNL     1      17.382  34.808  56.484  1.00  0.00     0.172 C 
BRANCH   8   9
HETATM    9  O1  UNL     1      16.507  35.816  56.583  1.00  0.00    -0.391 OA
BRANCH   9  10
HETATM   10  C9  UNL     1      16.216  36.477  57.714  1.00  0.00     0.163 C 
HETATM   11  C10 UNL     1      15.908  35.713  58.957  1.00  0.00     0.033 C 
ENDBRANCH   9  10
ENDBRANCH   8   9
ENDBRANCH   7   8
ENDBRANCH   3   7
BRANCH   1  12
HETATM   12  C3  UNL     1      19.966  34.192  60.859  1.00  0.00     0.041 C 
BRANCH  12  13
HETATM   13  C2  UNL     1      18.889  35.161  61.279  1.00  0.00     0.000 C 
HETATM   14  C1  UNL     1      19.621  36.405  61.801  1.00  0.00     0.005 C 
ENDBRANCH  12  13
ENDBRANCH   1  12
BRANCH   5  15
HETATM   15  C13 UNL     1      23.402  34.006  57.251  1.00  0.00     0.042 C 
BRANCH  15  16
HETATM   16  C14 UNL     1      24.073  35.291  56.852  1.00  0.00     0.008 C 
BRANCH  16  17
HETATM   17  C15 UNL     1      24.712  35.202  55.509  1.00  0.00    -0.023 C 
HETATM   18  C16 UNL     1      24.016  34.294  54.546  1.00  0.00     0.009 C 
HETATM   19  C17 UNL     1      24.857  36.562  54.877  1.00  0.00     0.009 C 
ENDBRANCH  16  17
ENDBRANCH  15  16
ENDBRANCH   5  15
BRANCH   6  20
HETATM   20  O2  UNL     1      22.619  33.766  59.944  1.00  0.00    -0.360 OA
ATOM     21  H2  UNL     1      23.262  34.402  60.236  1.00  0.00     0.217 HD
ENDBRANCH   6  20
TORSDOF 10
ENDMDL
MODEL 3
REMARK VINA RESULT: -6.433989555      1.932      4.385
REMARK  10 active torsions:
REMARK  status: ('A' for Active; 'I' for Inactive)
REMARK    1  A    between atoms: C2_2  and  C3_3 
REMARK    2  A    between atoms: C3_3  and  C4_4 
REMARK    3  A    between atoms: C6_6  and  C7_7 
REMARK    4  A    between atoms: C7_7  and  C8_8 
REMARK    5  A    between atoms: C8_8  and  O1_9 
REMARK    6  A    between atoms: O1_9  and  C9_10 
REMARK    7  A    between atoms: C12_13  and  C13_14 
REMARK    8  A    between atoms: C13_14  and  C14_15 
REMARK    9  A    between atoms: C14_15  and  C15_16 
REMARK   10  A    between atoms: C18_19  and  O2_20 
ROOT
HETATM    1  C4  UNL     1      20.290  34.317  59.368  1.00  0.00    -0.024 A 
HETATM    2  C5  UNL     1      19.427  34.660  58.349  1.00  0.00     0.017 A 
HETATM    3  C6  UNL     1      19.843  34.835  57.055  1.00  0.00    -0.055 A 
HETATM    4  C11 UNL     1      21.174  34.658  56.770  1.00  0.00     0.017 A 
HETATM    5  C12 UNL     1      22.082  34.314  57.747  1.00  0.00    -0.024 A 
HETATM    6  C18 UNL     1      21.629  34.146  59.041  1.00  0.00     0.078 A 
ENDROOT
BRANCH   3   7
HETATM    7  C7  UNL     1      18.893  35.213  55.934  1.00  0.00     0.065 C 
BRANCH   7   8
HETATM    8  C8  UNL     1      18.044  34.056  55.551  1.00  0.00     0.172 C 
BRANCH   8   9
HETATM    9  O1  UNL     1      18.671  33.118  54.830  1.00  0.00    -0.391 OA
BRANCH   9  10
HETATM   10  C9  UNL     1      19.345  33.341  53.693  1.00  0.00     0.163 C 
HETATM   11  C10 UNL     1      20.720  32.786  53.528  1.00  0.00     0.033 C 
ENDBRANCH   9  10
ENDBRANCH   8   9
ENDBRANCH   7   8
ENDBRANCH   3   7
BRANCH   1  12
HETATM   12  C3  UNL     1      19.829  34.128  60.758  1.00  0.00     0.041 C 
BRANCH  12  13
HETATM   13  C2  UNL     1      18.890  35.217  61.211  1.00  0.00     0.000 C 
HETATM   14  C1  UNL     1      19.781  36.351  61.737  1.00  0.00     0.005 C 
ENDBRANCH  12  13
ENDBRANCH   1  12
BRANCH   5  15
HETATM   15  C13 UNL     1      23.494  34.124  57.377  1.00  0.00     0.042 C 
BRANCH  15  16
HETATM   16  C14 UNL     1      24.079  35.388  56.812  1.00  0.00     0.008 C 
BRANCH  16  17
HETATM   17  C15 UNL     1      24.776  35.159  55.516  1.00  0.00    -0.023 C 
HETATM   18  C16 UNL     1      24.043  34.269  54.562  1.00  0.00     0.009 C 
HETATM   19  C17 UNL     1      25.091  36.459  54.822  1.00  0.00     0.009 C 
ENDBRANCH  16  17
ENDBRANCH  15  16
ENDBRANCH   5  15
BRANCH   6  20
HETATM   20  O2  UNL     1      22.548  33.804  60.008  1.00  0.00    -0.360 OA
ATOM     21  H2  UNL     1      22.765  34.412  60.705  1.00  0.00     0.217 HD
ENDBRANCH   6  20
TORSDOF 10
ENDMDL
MODEL 4
REMARK VINA RESULT: -6.420636822      1.686      4.605
REMARK  10 active torsions:
REMARK  status: ('A' for Active; 'I' for Inactive)
REMARK    1  A    between atoms: C2_2  and  C3_3 
REMARK    2  A    between atoms: C3_3  and  C4_4 
REMARK    3  A    between atoms: C6_6  and  C7_7 
REMARK    4  A    between atoms: C7_7  and  C8_8 
REMARK    5  A    between atoms: C8_8  and  O1_9 
REMARK    6  A    between atoms: O1_9  and  C9_10 
REMARK    7  A    between atoms: C12_13  and  C13_14 
REMARK    8  A    between atoms: C13_14  and  C14_15 
REMARK    9  A    between atoms: C14_15  and  C15_16 
REMARK   10  A    between atoms: C18_19  and  O2_20 
ROOT
HETATM    1  C4  UNL     1      19.893  34.306  59.120  1.00  0.00    -0.024 A 
HETATM    2  C5  UNL     1      18.634  34.001  58.649  1.00  0.00     0.017 A 
HETATM    3  C6  UNL     1      18.312  34.041  57.318  1.00  0.00    -0.055 A 
HETATM    4  C11 UNL     1      19.288  34.400  56.423  1.00  0.00     0.017 A 
HETATM    5  C12 UNL     1      20.564  34.715  56.835  1.00  0.00    -0.024 A 
HETATM    6  C18 UNL     1      20.855  34.665  58.185  1.00  0.00     0.078 A 
ENDROOT
BRANCH   3   7
HETATM    7  C7  UNL     1      16.926  33.705  56.800  1.00  0.00     0.065 C 
BRANCH   7   8
HETATM    8  C8  UNL     1      15.883  34.162  57.754  1.00  0.00     0.172 C 
BRANCH   8   9
HETATM    9  O1  UNL     1      15.339  35.349  57.461  1.00  0.00    -0.391 OA
BRANCH   9  10
HETATM   10  C9  UNL     1      15.645  36.094  56.388  1.00  0.00     0.163 C 
HETATM   11  C10 UNL     1      16.474  37.323  56.554  1.00  0.00     0.033 C 
ENDBRANCH   9  10
ENDBRANCH   8   9
ENDBRANCH   7   8
ENDBRANCH   3   7
BRANCH   1  12
HETATM   12  C3  UNL     1      20.229  34.256  60.556  1.00  0.00     0.041 C 
BRANCH  12  13
HETATM   13  C2  UNL     1      19.182  34.913  61.420  1.00  0.00     0.000 C 
HETATM   14  C1  UNL     1      19.508  36.412  61.415  1.00  0.00     0.005 C 
ENDBRANCH  12  13
ENDBRANCH   1  12
BRANCH   5  15
HETATM   15  C13 UNL     1      21.573  35.079  55.826  1.00  0.00     0.042 C 
BRANCH  15  16
HETATM   16  C14 UNL     1      22.192  33.854  55.214  1.00  0.00     0.008 C 
BRANCH  16  17
HETATM   17  C15 UNL     1      21.853  33.709  53.771  1.00  0.00    -0.023 C 
HETATM   18  C16 UNL     1      20.737  32.754  53.485  1.00  0.00     0.009 C 
HETATM   19  C17 UNL     1      21.525  35.041  53.147  1.00  0.00     0.009 C 
ENDBRANCH  16  17
ENDBRANCH  15  16
ENDBRANCH   5  15
BRANCH   6  20
HETATM   20  O2  UNL     1      22.134  34.985  58.582  1.00  0.00    -0.360 OA
ATOM     21  H2  UNL     1      22.873  34.458  58.302  1.00  0.00     0.217 HD
ENDBRANCH   6  20
TORSDOF 10
ENDMDL
MODEL 5
REMARK VINA RESULT: -6.398175553      1.595      5.520
REMARK  10 active torsions:
REMARK  status: ('A' for Active; 'I' for Inactive)
REMARK    1  A    between atoms: C2_2  and  C3_3 
REMARK    2  A    between atoms: C3_3  and  C4_4 
REMARK    3  A    between atoms: C6_6  and  C7_7 
REMARK    4  A    between atoms: C7_7  and  C8_8 
REMARK    5  A    between atoms: C8_8  and  O1_9 
REMARK    6  A    between atoms: O1_9  and  C9_10 
REMARK    7  A    between atoms: C12_13  and  C13_14 
REMARK    8  A    between atoms: C13_14  and  C14_15 
REMARK    9  A    between atoms: C14_15  and  C15_16 
REMARK   10  A    between atoms: C18_19  and  O2_20 
ROOT
HETATM    1  C4  UNL     1      22.769  34.340  56.306  1.00  0.00    -0.024 A 
HETATM    2  C5  UNL     1      23.227  34.187  57.597  1.00  0.00     0.017 A 
HETATM    3  C6  UNL     1      22.398  34.240  58.687  1.00  0.00    -0.055 A 
HETATM    4  C11 UNL     1      21.059  34.453  58.476  1.00  0.00     0.017 A 
HETATM    5  C12 UNL     1      20.544  34.612  57.208  1.00  0.00    -0.024 A 
HETATM    6  C18 UNL     1      21.408  34.553  56.131  1.00  0.00     0.078 A 
ENDROOT
BRANCH   3   7
HETATM    7  C7  UNL     1      22.902  34.071  60.108  1.00  0.00     0.065 C 
BRANCH   7   8
HETATM    8  C8  UNL     1      21.769  34.050  61.069  1.00  0.00     0.172 C 
BRANCH   8   9
HETATM    9  O1  UNL     1      21.731  35.089  61.912  1.00  0.00    -0.391 OA
BRANCH   9  10
HETATM   10  C9  UNL     1      20.807  36.062  61.896  1.00  0.00     0.163 C 
HETATM   11  C10 UNL     1      19.413  35.749  61.470  1.00  0.00     0.033 C 
ENDBRANCH   9  10
ENDBRANCH   8   9
ENDBRANCH   7   8
ENDBRANCH   3   7
BRANCH   1  12
HETATM   12  C3  UNL     1      23.672  34.277  55.139  1.00  0.00     0.041 C 
BRANCH  12  13
HETATM   13  C2  UNL     1      24.848  35.213  55.265  1.00  0.00     0.000 C 
HETATM   14  C1  UNL     1      24.303  36.618  54.974  1.00  0.00     0.005 C 
ENDBRANCH  12  13
ENDBRANCH   1  12
BRANCH   5  15
HETATM   15  C13 UNL     1      19.096  34.824  57.044  1.00  0.00     0.042 C 
BRANCH  15  16
HETATM   16  C14 UNL     1      18.316  34.015  58.043  1.00  0.00     0.008 C 
BRANCH  16  17
HETATM   17  C15 UNL     1      16.948  34.560  58.266  1.00  0.00    -0.023 C 
HETATM   18  C16 UNL     1      16.128  33.802  59.261  1.00  0.00     0.009 C 
HETATM   19  C17 UNL     1      16.994  36.009  58.678  1.00  0.00     0.009 C 
ENDBRANCH  16  17
ENDBRANCH  15  16
ENDBRANCH   5  15
BRANCH   6  20
HETATM   20  O2  UNL     1      20.880  34.716  54.870  1.00  0.00    -0.360 OA
ATOM     21  H2  UNL     1      20.190  34.143  54.557  1.00  0.00     0.217 HD
ENDBRANCH   6  20
TORSDOF 10
ENDMDL
