MODEL 1
REMARK VINA RESULT: -6.714892996      0.000      0.000
REMARK  9 active torsions:
REMARK  status: ('A' for Active; 'I' for Inactive)
REMARK    1  A    between atoms: C2_2  and  C3_3 
REMARK    2  A    between atoms: C4_4  and  C5_5 
REMARK    3  A    between atoms: C4_4  and  C8_8 
REMARK    4  A    between atoms: C5_5  and  C6_6 
REMARK    5  A    between atoms: C10_10  and  C11_11 
REMARK    6  A    between atoms: C11_11  and  C12_12 
REMARK    7  A    between atoms: C11_11  and  O2_15 
REMARK    8  A    between atoms: C12_12  and  O1_13 
REMARK    9  A    between atoms: O2_15  and  C13_16 
ROOT
HETATM    1  C8  UNL     1      19.694  34.877  58.677  1.00  0.00    -0.024 A 
HETATM    2  C9  UNL     1      20.813  34.739  57.814  1.00  0.00     0.022 A 
HETATM    3  C10 UNL     1      22.120  34.946  58.225  1.00  0.00    -0.026 A 
HETATM    4  C15 UNL     1      22.289  35.300  59.547  1.00  0.00     0.010 A 
HETATM    5  C16 UNL     1      21.220  35.440  60.419  1.00  0.00     0.008 A 
HETATM    6  C17 UNL     1      19.885  35.219  59.964  1.00  0.00    -0.051 A 
HETATM    7  C18 UNL     1      18.849  35.234  61.002  1.00  0.00     0.049 C 
ENDROOT
BRANCH   1   8
HETATM    8  C4  UNL     1      18.311  34.818  58.050  1.00  0.00    -0.051 C 
HETATM    9  C3  UNL     1      17.897  36.125  57.589  1.00  0.00    -0.019 C 
BRANCH   9  10
HETATM   10  C2  UNL     1      16.627  36.814  57.575  1.00  0.00     0.023 C 
HETATM   11  C1  UNL     1      15.718  36.473  56.412  1.00  0.00     0.009 C 
ENDBRANCH   9  10
BRANCH   8  12
HETATM   12  C5  UNL     1      17.792  33.498  57.743  1.00  0.00     0.039 C 
BRANCH  12  13
HETATM   13  C6  UNL     1      16.314  33.257  58.059  1.00  0.00     0.000 C 
HETATM   14  C7  UNL     1      15.917  33.672  59.443  1.00  0.00     0.005 C 
ENDBRANCH  12  13
ENDBRANCH   8  12
ENDBRANCH   1   8
BRANCH   3  15
HETATM   15  C11 UNL     1      23.254  34.854  57.274  1.00  0.00     0.177 C 
BRANCH  15  16
HETATM   16  C12 UNL     1      23.441  36.099  56.433  1.00  0.00     0.201 C 
BRANCH  16  17
HETATM   17  O1  UNL     1      24.201  37.017  57.144  1.00  0.00    -0.398 OA
ATOM     18  H1  UNL     1      24.243  37.831  56.656  1.00  0.00     0.209 HD
ENDBRANCH  16  17
ENDBRANCH  15  16
BRANCH  15  19
HETATM   19  O2  UNL     1      23.041  33.779  56.428  1.00  0.00    -0.379 OA
BRANCH  19  20
HETATM   20  C13 UNL     1      23.223  34.081  55.092  1.00  0.00     0.164 C 
HETATM   21  C14 UNL     1      22.008  33.484  54.375  1.00  0.00     0.033 C 
ENDBRANCH  19  20
ENDBRANCH  15  19
ENDBRANCH   3  15
TORSDOF 9
ENDMDL
MODEL 2
REMARK VINA RESULT: -6.713057988      1.092      2.217
REMARK  9 active torsions:
REMARK  status: ('A' for Active; 'I' for Inactive)
REMARK    1  A    between atoms: C2_2  and  C3_3 
REMARK    2  A    between atoms: C4_4  and  C5_5 
REMARK    3  A    between atoms: C4_4  and  C8_8 
REMARK    4  A    between atoms: C5_5  and  C6_6 
REMARK    5  A    between atoms: C10_10  and  C11_11 
REMARK    6  A    between atoms: C11_11  and  C12_12 
REMARK    7  A    between atoms: C11_11  and  O2_15 
REMARK    8  A    between atoms: C12_12  and  O1_13 
REMARK    9  A    between atoms: O2_15  and  C13_16 
ROOT
HETATM    1  C8  UNL     1      19.346  35.160  59.436  1.00  0.00    -0.024 A 
HETATM    2  C9  UNL     1      20.289  34.635  58.513  1.00  0.00     0.022 A 
HETATM    3  C10 UNL     1      21.657  34.649  58.733  1.00  0.00    -0.026 A 
HETATM    4  C15 UNL     1      22.072  35.211  59.922  1.00  0.00     0.010 A 
HETATM    5  C16 UNL     1      21.179  35.730  60.848  1.00  0.00     0.008 A 
HETATM    6  C17 UNL     1      19.775  35.698  60.591  1.00  0.00    -0.051 A 
HETATM    7  C18 UNL     1      18.916  36.121  61.702  1.00  0.00     0.049 C 
ENDROOT
BRANCH   1   8
HETATM    8  C4  UNL     1      17.899  35.260  58.982  1.00  0.00    -0.051 C 
HETATM    9  C3  UNL     1      17.113  34.174  59.523  1.00  0.00    -0.019 C 
BRANCH   9  10
HETATM   10  C2  UNL     1      16.032  33.374  58.995  1.00  0.00     0.023 C 
HETATM   11  C1  UNL     1      16.402  32.465  57.842  1.00  0.00     0.009 C 
ENDBRANCH   9  10
BRANCH   8  12
HETATM   12  C5  UNL     1      17.491  36.516  58.381  1.00  0.00     0.039 C 
BRANCH  12  13
HETATM   13  C6  UNL     1      17.220  36.494  56.875  1.00  0.00     0.000 C 
HETATM   14  C7  UNL     1      15.794  36.192  56.523  1.00  0.00     0.005 C 
ENDBRANCH  12  13
ENDBRANCH   8  12
ENDBRANCH   1   8
BRANCH   3  15
HETATM   15  C11 UNL     1      22.610  34.149  57.713  1.00  0.00     0.177 C 
BRANCH  15  16
HETATM   16  C12 UNL     1      24.062  34.379  58.077  1.00  0.00     0.201 C 
BRANCH  16  17
HETATM   17  O1  UNL     1      24.460  35.617  57.592  1.00  0.00    -0.398 OA
ATOM     18  H1  UNL     1      25.322  35.536  57.203  1.00  0.00     0.209 HD
ENDBRANCH  16  17
ENDBRANCH  15  16
BRANCH  15  19
HETATM   19  O2  UNL     1      22.351  34.784  56.511  1.00  0.00    -0.379 OA
BRANCH  19  20
HETATM   20  C13 UNL     1      22.138  33.912  55.460  1.00  0.00     0.164 C 
HETATM   21  C14 UNL     1      23.347  34.093  54.536  1.00  0.00     0.033 C 
ENDBRANCH  19  20
ENDBRANCH  15  19
ENDBRANCH   3  15
TORSDOF 9
ENDMDL
MODEL 3
REMARK VINA RESULT: -6.669130409      2.547      5.671
REMARK  9 active torsions:
REMARK  status: ('A' for Active; 'I' for Inactive)
REMARK    1  A    between atoms: C2_2  and  C3_3 
REMARK    2  A    between atoms: C4_4  and  C5_5 
REMARK    3  A    between atoms: C4_4  and  C8_8 
REMARK    4  A    between atoms: C5_5  and  C6_6 
REMARK    5  A    between atoms: C10_10  and  C11_11 
REMARK    6  A    between atoms: C11_11  and  C12_12 
REMARK    7  A    between atoms: C11_11  and  O2_15 
REMARK    8  A    between atoms: C12_12  and  O1_13 
REMARK    9  A    between atoms: O2_15  and  C13_16 
ROOT
HETATM    1  C8  UNL     1      21.195  34.782  58.160  1.00  0.00    -0.024 A 
HETATM    2  C9  UNL     1      19.936  35.126  57.599  1.00  0.00     0.022 A 
HETATM    3  C10 UNL     1      18.727  34.852  58.219  1.00  0.00    -0.026 A 
HETATM    4  C15 UNL     1      18.805  34.214  59.438  1.00  0.00     0.010 A 
HETATM    5  C16 UNL     1      20.015  33.867  60.018  1.00  0.00     0.008 A 
HETATM    6  C17 UNL     1      21.244  34.164  59.354  1.00  0.00    -0.051 A 
HETATM    7  C18 UNL     1      22.463  33.903  60.126  1.00  0.00     0.049 C 
ENDROOT
BRANCH   1   8
HETATM    8  C4  UNL     1      22.426  34.960  57.287  1.00  0.00    -0.051 C 
HETATM    9  C3  UNL     1      22.988  36.282  57.452  1.00  0.00    -0.019 C 
BRANCH   9  10
HETATM   10  C2  UNL     1      23.606  37.216  56.540  1.00  0.00     0.023 C 
HETATM   11  C1  UNL     1      22.765  37.605  55.342  1.00  0.00     0.009 C 
ENDBRANCH   9  10
BRANCH   8  12
HETATM   12  C5  UNL     1      22.991  33.756  56.707  1.00  0.00     0.039 C 
BRANCH  12  13
HETATM   13  C6  UNL     1      23.072  33.708  55.180  1.00  0.00     0.000 C 
HETATM   14  C7  UNL     1      21.733  33.676  54.505  1.00  0.00     0.005 C 
ENDBRANCH  12  13
ENDBRANCH   8  12
ENDBRANCH   1   8
BRANCH   3  15
HETATM   15  C11 UNL     1      17.434  35.171  57.566  1.00  0.00     0.177 C 
BRANCH  15  16
HETATM   16  C12 UNL     1      16.370  35.646  58.533  1.00  0.00     0.201 C 
BRANCH  16  17
HETATM   17  O1  UNL     1      15.680  36.708  57.965  1.00  0.00    -0.398 OA
ATOM     18  H1  UNL     1      16.129  37.518  58.175  1.00  0.00     0.209 HD
ENDBRANCH  16  17
ENDBRANCH  15  16
BRANCH  15  19
HETATM   19  O2  UNL     1      16.969  34.039  56.920  1.00  0.00    -0.379 OA
BRANCH  19  20
HETATM   20  C13 UNL     1      15.890  33.447  57.548  1.00  0.00     0.164 C 
HETATM   21  C14 UNL     1      16.291  31.980  57.740  1.00  0.00     0.033 C 
ENDBRANCH  19  20
ENDBRANCH  15  19
ENDBRANCH   3  15
TORSDOF 9
ENDMDL
MODEL 4
REMARK VINA RESULT: -6.659991722      2.375      5.751
REMARK  9 active torsions:
REMARK  status: ('A' for Active; 'I' for Inactive)
REMARK    1  A    between atoms: C2_2  and  C3_3 
REMARK    2  A    between atoms: C4_4  and  C5_5 
REMARK    3  A    between atoms: C4_4  and  C8_8 
REMARK    4  A    between atoms: C5_5  and  C6_6 
REMARK    5  A    between atoms: C10_10  and  C11_11 
REMARK    6  A    between atoms: C11_11  and  C12_12 
REMARK    7  A    between atoms: C11_11  and  O2_15 
REMARK    8  A    between atoms: C12_12  and  O1_13 
REMARK    9  A    between atoms: O2_15  and  C13_16 
ROOT
HETATM    1  C8  UNL     1      21.525  34.662  58.069  1.00  0.00    -0.024 A 
HETATM    2  C9  UNL     1      20.197  34.817  57.588  1.00  0.00     0.022 A 
HETATM    3  C10 UNL     1      19.078  34.425  58.306  1.00  0.00    -0.026 A 
HETATM    4  C15 UNL     1      19.319  33.865  59.542  1.00  0.00     0.010 A 
HETATM    5  C16 UNL     1      20.601  33.702  60.045  1.00  0.00     0.008 A 
HETATM    6  C17 UNL     1      21.733  34.117  59.281  1.00  0.00    -0.051 A 
HETATM    7  C18 UNL     1      23.025  34.050  59.972  1.00  0.00     0.049 C 
ENDROOT
BRANCH   1   8
HETATM    8  C4  UNL     1      22.661  34.948  57.102  1.00  0.00    -0.051 C 
HETATM    9  C3  UNL     1      23.139  36.304  57.255  1.00  0.00    -0.019 C 
BRANCH   9  10
HETATM   10  C2  UNL     1      23.609  37.300  56.320  1.00  0.00     0.023 C 
HETATM   11  C1  UNL     1      22.682  37.587  55.158  1.00  0.00     0.009 C 
ENDBRANCH   9  10
BRANCH   8  12
HETATM   12  C5  UNL     1      23.260  33.802  56.445  1.00  0.00     0.039 C 
BRANCH  12  13
HETATM   13  C6  UNL     1      23.212  33.792  54.916  1.00  0.00     0.000 C 
HETATM   14  C7  UNL     1      21.823  33.735  54.355  1.00  0.00     0.005 C 
ENDBRANCH  12  13
ENDBRANCH   8  12
ENDBRANCH   1   8
BRANCH   3  15
HETATM   15  C11 UNL     1      17.714  34.546  57.737  1.00  0.00     0.177 C 
BRANCH  15  16
HETATM   16  C12 UNL     1      17.514  33.741  56.470  1.00  0.00     0.201 C 
BRANCH  16  17
HETATM   17  O1  UNL     1      16.902  32.537  56.789  1.00  0.00    -0.398 OA
ATOM     18  H1  UNL     1      16.392  32.240  56.045  1.00  0.00     0.209 HD
ENDBRANCH  16  17
ENDBRANCH  15  16
BRANCH  15  19
HETATM   19  O2  UNL     1      17.464  35.878  57.457  1.00  0.00    -0.379 OA
BRANCH  19  20
HETATM   20  C13 UNL     1      16.151  36.252  57.672  1.00  0.00     0.164 C 
HETATM   21  C14 UNL     1      15.816  35.750  59.081  1.00  0.00     0.033 C 
ENDBRANCH  19  20
ENDBRANCH  15  19
ENDBRANCH   3  15
TORSDOF 9
ENDMDL
MODEL 5
REMARK VINA RESULT: -6.547699148      1.540      3.693
REMARK  9 active torsions:
REMARK  status: ('A' for Active; 'I' for Inactive)
REMARK    1  A    between atoms: C2_2  and  C3_3 
REMARK    2  A    between atoms: C4_4  and  C5_5 
REMARK    3  A    between atoms: C4_4  and  C8_8 
REMARK    4  A    between atoms: C5_5  and  C6_6 
REMARK    5  A    between atoms: C10_10  and  C11_11 
REMARK    6  A    between atoms: C11_11  and  C12_12 
REMARK    7  A    between atoms: C11_11  and  O2_15 
REMARK    8  A    between atoms: C12_12  and  O1_13 
REMARK    9  A    between atoms: O2_15  and  C13_16 
ROOT
HETATM    1  C8  UNL     1      19.258  34.896  57.027  1.00  0.00    -0.024 A 
HETATM    2  C9  UNL     1      20.465  35.299  57.656  1.00  0.00     0.022 A 
HETATM    3  C10 UNL     1      21.717  35.113  57.091  1.00  0.00    -0.026 A 
HETATM    4  C15 UNL     1      21.736  34.502  55.855  1.00  0.00     0.010 A 
HETATM    5  C16 UNL     1      20.577  34.099  55.209  1.00  0.00     0.008 A 
HETATM    6  C17 UNL     1      19.303  34.306  55.819  1.00  0.00    -0.051 A 
HETATM    7  C18 UNL     1      18.140  33.993  54.982  1.00  0.00     0.049 C 
ENDROOT
BRANCH   1   8
HETATM    8  C4  UNL     1      17.978  34.978  57.842  1.00  0.00    -0.051 C 
HETATM    9  C3  UNL     1      17.652  33.694  58.421  1.00  0.00    -0.019 C 
BRANCH   9  10
HETATM   10  C2  UNL     1      16.407  32.999  58.652  1.00  0.00     0.023 C 
HETATM   11  C1  UNL     1      15.948  32.100  57.522  1.00  0.00     0.009 C 
ENDBRANCH   9  10
BRANCH   8  12
HETATM   12  C5  UNL     1      17.490  36.309  58.153  1.00  0.00     0.039 C 
BRANCH  12  13
HETATM   13  C6  UNL     1      16.732  37.034  57.039  1.00  0.00     0.000 C 
HETATM   14  C7  UNL     1      15.605  36.236  56.456  1.00  0.00     0.005 C 
ENDBRANCH  12  13
ENDBRANCH   8  12
ENDBRANCH   1   8
BRANCH   3  15
HETATM   15  C11 UNL     1      22.956  35.491  57.814  1.00  0.00     0.177 C 
BRANCH  15  16
HETATM   16  C12 UNL     1      24.125  34.572  57.529  1.00  0.00     0.201 C 
BRANCH  16  17
HETATM   17  O1  UNL     1      25.031  35.231  56.710  1.00  0.00    -0.398 OA
ATOM     18  H1  UNL     1      24.591  35.499  55.912  1.00  0.00     0.209 HD
ENDBRANCH  16  17
ENDBRANCH  15  16
BRANCH  15  19
HETATM   19  O2  UNL     1      22.701  35.474  59.174  1.00  0.00    -0.379 OA
BRANCH  19  20
HETATM   20  C13 UNL     1      23.192  34.352  59.814  1.00  0.00     0.164 C 
HETATM   21  C14 UNL     1      22.183  34.052  60.929  1.00  0.00     0.033 C 
ENDBRANCH  19  20
ENDBRANCH  15  19
ENDBRANCH   3  15
TORSDOF 9
ENDMDL
