MODEL 1
REMARK VINA RESULT: -7.245665930      0.000      0.000
REMARK  7 active torsions:
REMARK  status: ('A' for Active; 'I' for Inactive)
REMARK    1  A    between atoms: C3_3  and  C4_4 
REMARK    2  A    between atoms: C3_3  and  C5_6 
REMARK    3  A    between atoms: C6_7  and  C7_8 
REMARK    4  A    between atoms: C6_7  and  O2_16 
REMARK    5  A    between atoms: C7_8  and  C8_9 
REMARK    6  A    between atoms: O2_16  and  C15_17 
REMARK    7  A    between atoms: C15_17  and  C16_18 
ROOT
HETATM    1  C5  UNL     1      18.465  33.569  55.320  1.00  0.00     0.046 C 
HETATM    2  C6  UNL     1      18.341  34.107  56.464  1.00  0.00     0.047 C 
ENDROOT
BRANCH   2   3
HETATM    3  C7  UNL     1      19.132  34.985  57.299  1.00  0.00     0.070 C 
BRANCH   3   4
HETATM    4  C8  UNL     1      19.963  34.252  58.310  1.00  0.00     0.002 C 
HETATM    5  C9  UNL     1      21.480  34.417  58.108  1.00  0.00     0.084 C 
HETATM    6  C10 UNL     1      22.055  34.399  59.402  1.00  0.00    -0.183 C 
HETATM    7  C11 UNL     1      22.515  34.371  60.722  1.00  0.00     0.080 C 
HETATM    8  C12 UNL     1      21.235  34.410  61.632  1.00  0.00     0.011 C 
HETATM    9  C13 UNL     1      19.986  34.010  60.878  1.00  0.00     0.001 C 
HETATM   10  C14 UNL     1      19.516  34.700  59.694  1.00  0.00     0.006 C 
ENDBRANCH   3   4
ENDBRANCH   2   3
BRANCH   2  11
HETATM   11  O2  UNL     1      17.069  33.745  57.105  1.00  0.00    -0.355 OA
BRANCH  11  12
HETATM   12  C15 UNL     1      16.087  34.764  57.143  1.00  0.00     0.179 C 
BRANCH  12  13
HETATM   13  C16 UNL     1      15.566  34.799  58.563  1.00  0.00     0.002 C 
HETATM   14  C17 UNL     1      16.005  33.556  59.285  1.00  0.00     0.011 C 
HETATM   15  C18 UNL     1      16.103  36.062  59.211  1.00  0.00     0.011 C 
ENDBRANCH  12  13
ENDBRANCH  11  12
ENDBRANCH   2  11
BRANCH   1  16
HETATM   16  C3  UNL     1      19.429  33.539  54.254  1.00  0.00    -0.000 C 
HETATM   17  C2  UNL     1      20.744  33.733  54.610  1.00  0.00    -0.017 C 
HETATM   18  C1  UNL     1      21.841  33.709  53.637  1.00  0.00     0.037 C 
BRANCH  16  19
HETATM   19  C4  UNL     1      19.268  33.315  52.845  1.00  0.00     0.269 C 
HETATM   20  O1  UNL     1      18.552  32.521  52.249  1.00  0.00    -0.301 OA
ENDBRANCH  16  19
ENDBRANCH   1  16
TORSDOF 7
ENDMDL
MODEL 2
REMARK VINA RESULT: -7.200309691      2.043      4.681
REMARK  7 active torsions:
REMARK  status: ('A' for Active; 'I' for Inactive)
REMARK    1  A    between atoms: C3_3  and  C4_4 
REMARK    2  A    between atoms: C3_3  and  C5_6 
REMARK    3  A    between atoms: C6_7  and  C7_8 
REMARK    4  A    between atoms: C6_7  and  O2_16 
REMARK    5  A    between atoms: C7_8  and  C8_9 
REMARK    6  A    between atoms: O2_16  and  C15_17 
REMARK    7  A    between atoms: C15_17  and  C16_18 
ROOT
HETATM    1  C5  UNL     1      18.101  35.259  55.902  1.00  0.00     0.046 C 
HETATM    2  C6  UNL     1      18.772  34.402  56.557  1.00  0.00     0.047 C 
ENDROOT
BRANCH   2   3
HETATM    3  C7  UNL     1      18.900  34.010  57.944  1.00  0.00     0.070 C 
BRANCH   3   4
HETATM    4  C8  UNL     1      19.333  35.132  58.840  1.00  0.00     0.002 C 
HETATM    5  C9  UNL     1      18.200  35.714  59.704  1.00  0.00     0.084 C 
HETATM    6  C10 UNL     1      18.798  36.112  60.924  1.00  0.00    -0.183 C 
HETATM    7  C11 UNL     1      19.491  36.466  62.087  1.00  0.00     0.080 C 
HETATM    8  C12 UNL     1      20.940  35.879  61.929  1.00  0.00     0.011 C 
HETATM    9  C13 UNL     1      21.271  35.558  60.488  1.00  0.00     0.001 C 
HETATM   10  C14 UNL     1      20.500  34.635  59.681  1.00  0.00     0.006 C 
ENDBRANCH   3   4
ENDBRANCH   2   3
BRANCH   2  11
HETATM   11  O2  UNL     1      19.642  33.602  55.683  1.00  0.00    -0.355 OA
BRANCH  11  12
HETATM   12  C15 UNL     1      20.648  34.319  54.992  1.00  0.00     0.179 C 
BRANCH  12  13
HETATM   13  C16 UNL     1      21.921  34.140  55.789  1.00  0.00     0.002 C 
HETATM   14  C17 UNL     1      23.019  33.670  54.877  1.00  0.00     0.011 C 
HETATM   15  C18 UNL     1      22.241  35.475  56.436  1.00  0.00     0.011 C 
ENDBRANCH  12  13
ENDBRANCH  11  12
ENDBRANCH   2  11
BRANCH   1  16
HETATM   16  C3  UNL     1      17.125  36.280  56.170  1.00  0.00    -0.000 C 
HETATM   17  C2  UNL     1      17.573  37.581  56.140  1.00  0.00    -0.017 C 
HETATM   18  C1  UNL     1      16.691  38.728  56.373  1.00  0.00     0.037 C 
BRANCH  16  19
HETATM   19  C4  UNL     1      15.720  36.189  56.450  1.00  0.00     0.269 C 
HETATM   20  O1  UNL     1      15.103  35.386  57.137  1.00  0.00    -0.301 OA
ENDBRANCH  16  19
ENDBRANCH   1  16
TORSDOF 7
ENDMDL
MODEL 3
REMARK VINA RESULT: -7.140871291      1.451      1.823
REMARK  7 active torsions:
REMARK  status: ('A' for Active; 'I' for Inactive)
REMARK    1  A    between atoms: C3_3  and  C4_4 
REMARK    2  A    between atoms: C3_3  and  C5_6 
REMARK    3  A    between atoms: C6_7  and  C7_8 
REMARK    4  A    between atoms: C6_7  and  O2_16 
REMARK    5  A    between atoms: C7_8  and  C8_9 
REMARK    6  A    between atoms: O2_16  and  C15_17 
REMARK    7  A    between atoms: C15_17  and  C16_18 
ROOT
HETATM    1  C5  UNL     1      18.110  34.753  54.853  1.00  0.00     0.046 C 
HETATM    2  C6  UNL     1      18.296  35.150  56.046  1.00  0.00     0.047 C 
ENDROOT
BRANCH   2   3
HETATM    3  C7  UNL     1      19.410  35.652  56.821  1.00  0.00     0.070 C 
BRANCH   3   4
HETATM    4  C8  UNL     1      20.374  34.581  57.235  1.00  0.00     0.002 C 
HETATM    5  C9  UNL     1      21.598  34.452  56.310  1.00  0.00     0.084 C 
HETATM    6  C10 UNL     1      22.681  34.068  57.138  1.00  0.00    -0.183 C 
HETATM    7  C11 UNL     1      23.675  33.692  58.046  1.00  0.00     0.080 C 
HETATM    8  C12 UNL     1      23.038  33.830  59.476  1.00  0.00     0.011 C 
HETATM    9  C13 UNL     1      21.526  33.857  59.426  1.00  0.00     0.001 C 
HETATM   10  C14 UNL     1      20.772  34.843  58.680  1.00  0.00     0.006 C 
ENDBRANCH   3   4
ENDBRANCH   2   3
BRANCH   2  11
HETATM   11  O2  UNL     1      17.063  35.083  56.844  1.00  0.00    -0.355 OA
BRANCH  11  12
HETATM   12  C15 UNL     1      16.776  36.224  57.631  1.00  0.00     0.179 C 
BRANCH  12  13
HETATM   13  C16 UNL     1      16.324  35.707  58.979  1.00  0.00     0.002 C 
HETATM   14  C17 UNL     1      15.845  34.290  58.834  1.00  0.00     0.011 C 
HETATM   15  C18 UNL     1      17.505  35.822  59.927  1.00  0.00     0.011 C 
ENDBRANCH  12  13
ENDBRANCH  11  12
ENDBRANCH   2  11
BRANCH   1  16
HETATM   16  C3  UNL     1      18.882  34.591  53.651  1.00  0.00    -0.000 C 
HETATM   17  C2  UNL     1      19.501  35.719  53.162  1.00  0.00    -0.017 C 
HETATM   18  C1  UNL     1      20.337  35.704  51.957  1.00  0.00     0.037 C 
BRANCH  16  19
HETATM   19  C4  UNL     1      19.152  33.426  52.857  1.00  0.00     0.269 C 
HETATM   20  O1  UNL     1      18.395  32.553  52.453  1.00  0.00    -0.301 OA
ENDBRANCH  16  19
ENDBRANCH   1  16
TORSDOF 7
ENDMDL
MODEL 4
REMARK VINA RESULT: -7.121074646      1.281      4.586
REMARK  7 active torsions:
REMARK  status: ('A' for Active; 'I' for Inactive)
REMARK    1  A    between atoms: C3_3  and  C4_4 
REMARK    2  A    between atoms: C3_3  and  C5_6 
REMARK    3  A    between atoms: C6_7  and  C7_8 
REMARK    4  A    between atoms: C6_7  and  O2_16 
REMARK    5  A    between atoms: C7_8  and  C8_9 
REMARK    6  A    between atoms: O2_16  and  C15_17 
REMARK    7  A    between atoms: C15_17  and  C16_18 
ROOT
HETATM    1  C5  UNL     1      17.816  33.925  56.192  1.00  0.00     0.046 C 
HETATM    2  C6  UNL     1      18.943  34.490  56.039  1.00  0.00     0.047 C 
ENDROOT
BRANCH   2   3
HETATM    3  C7  UNL     1      19.883  35.199  56.880  1.00  0.00     0.070 C 
BRANCH   3   4
HETATM    4  C8  UNL     1      20.465  34.346  57.968  1.00  0.00     0.002 C 
HETATM    5  C9  UNL     1      22.004  34.346  58.004  1.00  0.00     0.084 C 
HETATM    6  C10 UNL     1      22.368  34.222  59.366  1.00  0.00    -0.183 C 
HETATM    7  C11 UNL     1      22.613  34.100  60.738  1.00  0.00     0.080 C 
HETATM    8  C12 UNL     1      21.219  34.253  61.447  1.00  0.00     0.011 C 
HETATM    9  C13 UNL     1      20.066  34.020  60.495  1.00  0.00     0.001 C 
HETATM   10  C14 UNL     1      19.860  34.796  59.289  1.00  0.00     0.006 C 
ENDBRANCH   3   4
ENDBRANCH   2   3
BRANCH   2  11
HETATM   11  O2  UNL     1      19.417  34.400  54.650  1.00  0.00    -0.355 OA
BRANCH  11  12
HETATM   12  C15 UNL     1      20.652  35.036  54.377  1.00  0.00     0.179 C 
BRANCH  12  13
HETATM   13  C16 UNL     1      21.514  34.007  53.680  1.00  0.00     0.002 C 
HETATM   14  C17 UNL     1      22.798  33.833  54.442  1.00  0.00     0.011 C 
HETATM   15  C18 UNL     1      20.711  32.721  53.603  1.00  0.00     0.011 C 
ENDBRANCH  12  13
ENDBRANCH  11  12
ENDBRANCH   2  11
BRANCH   1  16
HETATM   16  C3  UNL     1      16.880  33.685  57.256  1.00  0.00    -0.000 C 
HETATM   17  C2  UNL     1      16.434  34.791  57.943  1.00  0.00    -0.017 C 
HETATM   18  C1  UNL     1      15.464  34.705  59.039  1.00  0.00     0.037 C 
BRANCH  16  19
HETATM   19  C4  UNL     1      16.290  32.466  57.733  1.00  0.00     0.269 C 
HETATM   20  O1  UNL     1      15.895  31.486  57.116  1.00  0.00    -0.301 OA
ENDBRANCH  16  19
ENDBRANCH   1  16
TORSDOF 7
ENDMDL
MODEL 5
REMARK VINA RESULT: -7.068192390      1.509      4.611
REMARK  7 active torsions:
REMARK  status: ('A' for Active; 'I' for Inactive)
REMARK    1  A    between atoms: C3_3  and  C4_4 
REMARK    2  A    between atoms: C3_3  and  C5_6 
REMARK    3  A    between atoms: C6_7  and  C7_8 
REMARK    4  A    between atoms: C6_7  and  O2_16 
REMARK    5  A    between atoms: C7_8  and  C8_9 
REMARK    6  A    between atoms: O2_16  and  C15_17 
REMARK    7  A    between atoms: C15_17  and  C16_18 
ROOT
HETATM    1  C5  UNL     1      17.488  34.383  55.981  1.00  0.00     0.046 C 
HETATM    2  C6  UNL     1      18.573  34.977  55.691  1.00  0.00     0.047 C 
ENDROOT
BRANCH   2   3
HETATM    3  C7  UNL     1      19.681  35.549  56.423  1.00  0.00     0.070 C 
BRANCH   3   4
HETATM    4  C8  UNL     1      20.526  34.522  57.117  1.00  0.00     0.002 C 
HETATM    5  C9  UNL     1      21.963  34.425  56.573  1.00  0.00     0.084 C 
HETATM    6  C10 UNL     1      22.784  34.096  57.678  1.00  0.00    -0.183 C 
HETATM    7  C11 UNL     1      23.498  33.774  58.837  1.00  0.00     0.080 C 
HETATM    8  C12 UNL     1      22.484  33.912  60.029  1.00  0.00     0.011 C 
HETATM    9  C13 UNL     1      21.045  33.880  59.560  1.00  0.00     0.001 C 
HETATM   10  C14 UNL     1      20.497  34.824  58.608  1.00  0.00     0.006 C 
ENDBRANCH   3   4
ENDBRANCH   2   3
BRANCH   2  11
HETATM   11  O2  UNL     1      18.748  35.119  54.238  1.00  0.00    -0.355 OA
BRANCH  11  12
HETATM   12  C15 UNL     1      18.583  33.936  53.478  1.00  0.00     0.179 C 
BRANCH  12  13
HETATM   13  C16 UNL     1      19.932  33.637  52.862  1.00  0.00     0.002 C 
HETATM   14  C17 UNL     1      20.738  34.903  52.787  1.00  0.00     0.011 C 
HETATM   15  C18 UNL     1      20.599  32.580  53.724  1.00  0.00     0.011 C 
ENDBRANCH  12  13
ENDBRANCH  11  12
ENDBRANCH   2  11
BRANCH   1  16
HETATM   16  C3  UNL     1      16.786  33.962  57.163  1.00  0.00    -0.000 C 
HETATM   17  C2  UNL     1      16.244  34.959  57.943  1.00  0.00    -0.017 C 
HETATM   18  C1  UNL     1      15.485  34.682  59.166  1.00  0.00     0.037 C 
BRANCH  16  19
HETATM   19  C4  UNL     1      16.520  32.651  57.683  1.00  0.00     0.269 C 
HETATM   20  O1  UNL     1      15.999  31.680  57.148  1.00  0.00    -0.301 OA
ENDBRANCH  16  19
ENDBRANCH   1  16
TORSDOF 7
ENDMDL
