MODEL 1
REMARK VINA RESULT: -6.370751286      0.000      0.000
REMARK  11 active torsions:
REMARK  status: ('A' for Active; 'I' for Inactive)
REMARK    1  A    between atoms: C2_2  and  C3_3 
REMARK    2  A    between atoms: C3_3  and  C4_4 
REMARK    3  A    between atoms: C4_4  and  C5_5 
REMARK    4  A    between atoms: C5_5  and  C6_6 
REMARK    5  A    between atoms: C6_6  and  C7_7 
REMARK    6  A    between atoms: C7_7  and  O1_8 
REMARK    7  A    between atoms: O1_8  and  C8_9 
REMARK    8  A    between atoms: C11_12  and  C12_13 
REMARK    9  A    between atoms: C12_13  and  O2_14 
REMARK   10  A    between atoms: C12_13  and  C13_16 
REMARK   11  A    between atoms: C13_16  and  C14_17 
ROOT
HETATM    1  C8  UNL     1      18.507  34.898  54.929  1.00  0.00     0.069 A 
HETATM    2  C9  UNL     1      18.509  36.152  55.491  1.00  0.00     0.037 A 
HETATM    3  C10 UNL     1      17.871  36.370  56.682  1.00  0.00     0.013 A 
HETATM    4  C11 UNL     1      17.205  35.353  57.365  1.00  0.00    -0.023 A 
HETATM    5  C16 UNL     1      17.197  34.111  56.817  1.00  0.00    -0.051 A 
HETATM    6  C17 UNL     1      16.529  32.991  57.457  1.00  0.00     0.049 C 
HETATM    7  C18 UNL     1      17.849  33.892  55.603  1.00  0.00     0.044 A 
ENDROOT
BRANCH   1   8
HETATM    8  O1  UNL     1      19.158  34.704  53.727  1.00  0.00    -0.351 OA
BRANCH   8   9
HETATM    9  C7  UNL     1      19.318  33.391  53.230  1.00  0.00     0.175 C 
BRANCH   9  10
HETATM   10  C6  UNL     1      20.669  32.842  53.654  1.00  0.00     0.027 C 
BRANCH  10  11
HETATM   11  C5  UNL     1      21.726  33.833  53.364  1.00  0.00     0.002 C 
BRANCH  11  12
HETATM   12  C4  UNL     1      22.764  34.075  54.381  1.00  0.00     0.004 C 
BRANCH  12  13
HETATM   13  C3  UNL     1      22.461  33.861  55.803  1.00  0.00     0.026 C 
BRANCH  13  14
HETATM   14  C2  UNL     1      21.827  34.906  56.591  1.00  0.00    -0.037 C 
HETATM   15  C1  UNL     1      21.079  34.625  57.675  1.00  0.00     0.007 C 
ENDBRANCH  13  14
ENDBRANCH  12  13
ENDBRANCH  11  12
ENDBRANCH  10  11
ENDBRANCH   9  10
ENDBRANCH   8   9
ENDBRANCH   1   8
BRANCH   4  16
HETATM   16  C12 UNL     1      16.522  35.588  58.641  1.00  0.00     0.155 C 
BRANCH  16  17
HETATM   17  O2  UNL     1      15.410  36.428  58.526  1.00  0.00    -0.391 OA
ATOM     18  H2  UNL     1      15.639  37.347  58.448  1.00  0.00     0.210 HD
ENDBRANCH  16  17
BRANCH  16  19
HETATM   19  C13 UNL     1      17.447  36.020  59.749  1.00  0.00     0.062 C 
BRANCH  19  20
HETATM   20  C14 UNL     1      18.137  34.804  60.251  1.00  0.00    -0.034 C 
HETATM   21  C15 UNL     1      19.185  34.899  61.055  1.00  0.00     0.007 C 
ENDBRANCH  19  20
ENDBRANCH  16  19
ENDBRANCH   4  16
TORSDOF 11
ENDMDL
MODEL 2
REMARK VINA RESULT: -6.350035080      1.067      5.448
REMARK  11 active torsions:
REMARK  status: ('A' for Active; 'I' for Inactive)
REMARK    1  A    between atoms: C2_2  and  C3_3 
REMARK    2  A    between atoms: C3_3  and  C4_4 
REMARK    3  A    between atoms: C4_4  and  C5_5 
REMARK    4  A    between atoms: C5_5  and  C6_6 
REMARK    5  A    between atoms: C6_6  and  C7_7 
REMARK    6  A    between atoms: C7_7  and  O1_8 
REMARK    7  A    between atoms: O1_8  and  C8_9 
REMARK    8  A    between atoms: C11_12  and  C12_13 
REMARK    9  A    between atoms: C12_13  and  O2_14 
REMARK   10  A    between atoms: C12_13  and  C13_16 
REMARK   11  A    between atoms: C13_16  and  C14_17 
ROOT
HETATM    1  C8  UNL     1      17.745  35.773  57.269  1.00  0.00     0.069 A 
HETATM    2  C9  UNL     1      17.532  34.421  57.144  1.00  0.00     0.037 A 
HETATM    3  C10 UNL     1      17.967  33.760  56.027  1.00  0.00     0.013 A 
HETATM    4  C11 UNL     1      18.633  34.413  54.989  1.00  0.00    -0.023 A 
HETATM    5  C16 UNL     1      18.847  35.749  55.105  1.00  0.00    -0.051 A 
HETATM    6  C17 UNL     1      19.532  36.511  54.074  1.00  0.00     0.049 C 
HETATM    7  C18 UNL     1      18.402  36.419  56.244  1.00  0.00     0.044 A 
ENDROOT
BRANCH   1   8
HETATM    8  O1  UNL     1      17.297  36.417  58.406  1.00  0.00    -0.351 OA
BRANCH   8   9
HETATM    9  C7  UNL     1      17.213  35.700  59.621  1.00  0.00     0.175 C 
BRANCH   9  10
HETATM   10  C6  UNL     1      18.491  35.892  60.418  1.00  0.00     0.027 C 
BRANCH  10  11
HETATM   11  C5  UNL     1      19.036  34.577  60.816  1.00  0.00     0.002 C 
BRANCH  11  12
HETATM   12  C4  UNL     1      19.855  33.830  59.844  1.00  0.00     0.004 C 
BRANCH  12  13
HETATM   13  C3  UNL     1      21.042  34.460  59.250  1.00  0.00     0.026 C 
BRANCH  13  14
HETATM   14  C2  UNL     1      21.210  34.508  57.806  1.00  0.00    -0.037 C 
HETATM   15  C1  UNL     1      21.912  35.486  57.205  1.00  0.00     0.007 C 
ENDBRANCH  13  14
ENDBRANCH  12  13
ENDBRANCH  11  12
ENDBRANCH  10  11
ENDBRANCH   9  10
ENDBRANCH   8   9
ENDBRANCH   1   8
BRANCH   4  16
HETATM   16  C12 UNL     1      19.098  33.703  53.794  1.00  0.00     0.155 C 
BRANCH  16  17
HETATM   17  O2  UNL     1      18.086  32.987  53.147  1.00  0.00    -0.391 OA
ATOM     18  H2  UNL     1      17.732  33.438  52.390  1.00  0.00     0.210 HD
ENDBRANCH  16  17
BRANCH  16  19
HETATM   19  C13 UNL     1      20.326  32.862  54.032  1.00  0.00     0.062 C 
BRANCH  19  20
HETATM   20  C14 UNL     1      21.433  33.455  53.238  1.00  0.00    -0.034 C 
HETATM   21  C15 UNL     1      22.428  34.097  53.831  1.00  0.00     0.007 C 
ENDBRANCH  19  20
ENDBRANCH  16  19
ENDBRANCH   4  16
TORSDOF 11
ENDMDL
MODEL 3
REMARK VINA RESULT: -6.343854031      2.526      5.659
REMARK  11 active torsions:
REMARK  status: ('A' for Active; 'I' for Inactive)
REMARK    1  A    between atoms: C2_2  and  C3_3 
REMARK    2  A    between atoms: C3_3  and  C4_4 
REMARK    3  A    between atoms: C4_4  and  C5_5 
REMARK    4  A    between atoms: C5_5  and  C6_6 
REMARK    5  A    between atoms: C6_6  and  C7_7 
REMARK    6  A    between atoms: C7_7  and  O1_8 
REMARK    7  A    between atoms: O1_8  and  C8_9 
REMARK    8  A    between atoms: C11_12  and  C12_13 
REMARK    9  A    between atoms: C12_13  and  O2_14 
REMARK   10  A    between atoms: C12_13  and  C13_16 
REMARK   11  A    between atoms: C13_16  and  C14_17 
ROOT
HETATM    1  C8  UNL     1      17.879  34.395  59.736  1.00  0.00     0.069 A 
HETATM    2  C9  UNL     1      18.794  33.892  58.842  1.00  0.00     0.037 A 
HETATM    3  C10 UNL     1      20.121  34.201  58.974  1.00  0.00     0.013 A 
HETATM    4  C11 UNL     1      20.595  35.019  60.000  1.00  0.00    -0.023 A 
HETATM    5  C16 UNL     1      19.698  35.520  60.887  1.00  0.00    -0.051 A 
HETATM    6  C17 UNL     1      20.101  36.381  61.986  1.00  0.00     0.049 C 
HETATM    7  C18 UNL     1      18.347  35.204  60.749  1.00  0.00     0.044 A 
ENDROOT
BRANCH   1   8
HETATM    8  O1  UNL     1      16.546  34.069  59.581  1.00  0.00    -0.351 OA
BRANCH   8   9
HETATM    9  C7  UNL     1      15.850  34.526  58.439  1.00  0.00     0.175 C 
BRANCH   9  10
HETATM   10  C6  UNL     1      15.741  36.039  58.476  1.00  0.00     0.027 C 
BRANCH  10  11
HETATM   11  C5  UNL     1      16.175  36.605  57.182  1.00  0.00     0.002 C 
BRANCH  11  12
HETATM   12  C4  UNL     1      17.603  36.913  56.991  1.00  0.00     0.004 C 
BRANCH  12  13
HETATM   13  C3  UNL     1      18.369  36.216  55.948  1.00  0.00     0.026 C 
BRANCH  13  14
HETATM   14  C2  UNL     1      17.847  35.010  55.326  1.00  0.00    -0.037 C 
HETATM   15  C1  UNL     1      18.605  33.909  55.163  1.00  0.00     0.007 C 
ENDBRANCH  13  14
ENDBRANCH  12  13
ENDBRANCH  11  12
ENDBRANCH  10  11
ENDBRANCH   9  10
ENDBRANCH   8   9
ENDBRANCH   1   8
BRANCH   4  16
HETATM   16  C12 UNL     1      22.017  35.348  60.140  1.00  0.00     0.155 C 
BRANCH  16  17
HETATM   17  O2  UNL     1      22.491  36.194  59.132  1.00  0.00    -0.391 OA
ATOM     18  H2  UNL     1      23.207  36.751  59.414  1.00  0.00     0.210 HD
ENDBRANCH  16  17
BRANCH  16  19
HETATM   19  C13 UNL     1      22.899  34.141  60.329  1.00  0.00     0.062 C 
BRANCH  19  20
HETATM   20  C14 UNL     1      23.808  34.066  59.156  1.00  0.00    -0.034 C 
HETATM   21  C15 UNL     1      23.670  33.113  58.247  1.00  0.00     0.007 C 
ENDBRANCH  19  20
ENDBRANCH  16  19
ENDBRANCH   4  16
TORSDOF 11
ENDMDL
MODEL 4
REMARK VINA RESULT: -6.169096031      2.251      4.564
REMARK  11 active torsions:
REMARK  status: ('A' for Active; 'I' for Inactive)
REMARK    1  A    between atoms: C2_2  and  C3_3 
REMARK    2  A    between atoms: C3_3  and  C4_4 
REMARK    3  A    between atoms: C4_4  and  C5_5 
REMARK    4  A    between atoms: C5_5  and  C6_6 
REMARK    5  A    between atoms: C6_6  and  C7_7 
REMARK    6  A    between atoms: C7_7  and  O1_8 
REMARK    7  A    between atoms: O1_8  and  C8_9 
REMARK    8  A    between atoms: C11_12  and  C12_13 
REMARK    9  A    between atoms: C12_13  and  O2_14 
REMARK   10  A    between atoms: C12_13  and  C13_16 
REMARK   11  A    between atoms: C13_16  and  C14_17 
ROOT
HETATM    1  C8  UNL     1      20.176  35.723  59.981  1.00  0.00     0.069 A 
HETATM    2  C9  UNL     1      19.041  36.008  60.702  1.00  0.00     0.037 A 
HETATM    3  C10 UNL     1      17.809  35.885  60.117  1.00  0.00     0.013 A 
HETATM    4  C11 UNL     1      17.653  35.474  58.793  1.00  0.00    -0.023 A 
HETATM    5  C16 UNL     1      18.769  35.192  58.073  1.00  0.00    -0.051 A 
HETATM    6  C17 UNL     1      18.704  34.757  56.688  1.00  0.00     0.049 C 
HETATM    7  C18 UNL     1      20.023  35.318  58.673  1.00  0.00     0.044 A 
ENDROOT
BRANCH   1   8
HETATM    8  O1  UNL     1      21.406  35.855  60.595  1.00  0.00    -0.351 OA
BRANCH   8   9
HETATM    9  C7  UNL     1      21.799  34.910  61.570  1.00  0.00     0.175 C 
BRANCH   9  10
HETATM   10  C6  UNL     1      22.453  33.718  60.895  1.00  0.00     0.027 C 
BRANCH  10  11
HETATM   11  C5  UNL     1      23.379  34.184  59.842  1.00  0.00     0.002 C 
BRANCH  11  12
HETATM   12  C4  UNL     1      23.388  33.478  58.548  1.00  0.00     0.004 C 
BRANCH  12  13
HETATM   13  C3  UNL     1      23.491  34.242  57.297  1.00  0.00     0.026 C 
BRANCH  13  14
HETATM   14  C2  UNL     1      22.734  33.844  56.121  1.00  0.00    -0.037 C 
HETATM   15  C1  UNL     1      23.264  33.890  54.885  1.00  0.00     0.007 C 
ENDBRANCH  13  14
ENDBRANCH  12  13
ENDBRANCH  11  12
ENDBRANCH  10  11
ENDBRANCH   9  10
ENDBRANCH   8   9
ENDBRANCH   1   8
BRANCH   4  16
HETATM   16  C12 UNL     1      16.334  35.343  58.168  1.00  0.00     0.155 C 
BRANCH  16  17
HETATM   17  O2  UNL     1      15.670  36.565  58.016  1.00  0.00    -0.391 OA
ATOM     18  H2  UNL     1      15.933  37.217  58.654  1.00  0.00     0.210 HD
ENDBRANCH  16  17
BRANCH  16  19
HETATM   19  C13 UNL     1      15.461  34.300  58.817  1.00  0.00     0.062 C 
BRANCH  19  20
HETATM   20  C14 UNL     1      16.164  32.996  58.699  1.00  0.00    -0.034 C 
HETATM   21  C15 UNL     1      16.086  32.278  57.589  1.00  0.00     0.007 C 
ENDBRANCH  19  20
ENDBRANCH  16  19
ENDBRANCH   4  16
TORSDOF 11
ENDMDL
MODEL 5
REMARK VINA RESULT: -6.134868243      0.678      1.099
REMARK  11 active torsions:
REMARK  status: ('A' for Active; 'I' for Inactive)
REMARK    1  A    between atoms: C2_2  and  C3_3 
REMARK    2  A    between atoms: C3_3  and  C4_4 
REMARK    3  A    between atoms: C4_4  and  C5_5 
REMARK    4  A    between atoms: C5_5  and  C6_6 
REMARK    5  A    between atoms: C6_6  and  C7_7 
REMARK    6  A    between atoms: C7_7  and  O1_8 
REMARK    7  A    between atoms: O1_8  and  C8_9 
REMARK    8  A    between atoms: C11_12  and  C12_13 
REMARK    9  A    between atoms: C12_13  and  O2_14 
REMARK   10  A    between atoms: C12_13  and  C13_16 
REMARK   11  A    between atoms: C13_16  and  C14_17 
ROOT
HETATM    1  C8  UNL     1      18.664  34.279  54.882  1.00  0.00     0.069 A 
HETATM    2  C9  UNL     1      18.542  35.632  55.089  1.00  0.00     0.037 A 
HETATM    3  C10 UNL     1      17.906  36.099  56.207  1.00  0.00     0.013 A 
HETATM    4  C11 UNL     1      17.366  35.243  57.167  1.00  0.00    -0.023 A 
HETATM    5  C16 UNL     1      17.482  33.904  56.970  1.00  0.00    -0.051 A 
HETATM    6  C17 UNL     1      16.950  32.938  57.916  1.00  0.00     0.049 C 
HETATM    7  C18 UNL     1      18.130  33.432  55.829  1.00  0.00     0.044 A 
ENDROOT
BRANCH   1   8
HETATM    8  O1  UNL     1      19.310  33.833  53.745  1.00  0.00    -0.351 OA
BRANCH   8   9
HETATM    9  C7  UNL     1      20.502  33.086  53.874  1.00  0.00     0.175 C 
BRANCH   9  10
HETATM   10  C6  UNL     1      21.688  34.027  53.992  1.00  0.00     0.027 C 
BRANCH  10  11
HETATM   11  C5  UNL     1      22.668  33.481  54.952  1.00  0.00     0.002 C 
BRANCH  11  12
HETATM   12  C4  UNL     1      22.833  34.155  56.252  1.00  0.00     0.004 C 
BRANCH  12  13
HETATM   13  C3  UNL     1      21.794  35.073  56.739  1.00  0.00     0.026 C 
BRANCH  13  14
HETATM   14  C2  UNL     1      20.981  34.727  57.894  1.00  0.00    -0.037 C 
HETATM   15  C1  UNL     1      21.503  34.113  58.972  1.00  0.00     0.007 C 
ENDBRANCH  13  14
ENDBRANCH  12  13
ENDBRANCH  11  12
ENDBRANCH  10  11
ENDBRANCH   9  10
ENDBRANCH   8   9
ENDBRANCH   1   8
BRANCH   4  16
HETATM   16  C12 UNL     1      16.685  35.745  58.365  1.00  0.00     0.155 C 
BRANCH  16  17
HETATM   17  O2  UNL     1      15.513  36.452  58.079  1.00  0.00    -0.391 OA
ATOM     18  H2  UNL     1      15.580  37.381  58.264  1.00  0.00     0.210 HD
ENDBRANCH  16  17
BRANCH  16  19
HETATM   19  C13 UNL     1      17.592  36.503  59.299  1.00  0.00     0.062 C 
BRANCH  19  20
HETATM   20  C14 UNL     1      18.169  35.520  60.254  1.00  0.00    -0.034 C 
HETATM   21  C15 UNL     1      18.987  35.909  61.219  1.00  0.00     0.007 C 
ENDBRANCH  19  20
ENDBRANCH  16  19
ENDBRANCH   4  16
TORSDOF 11
ENDMDL
