MODEL 1
REMARK VINA RESULT: -7.132335949      0.000      0.000
REMARK  8 active torsions:
REMARK  status: ('A' for Active; 'I' for Inactive)
REMARK    1  A    between atoms: C2_2  and  C3_3 
REMARK    2  A    between atoms: C3_3  and  C4_4 
REMARK    3  A    between atoms: C7_7  and  O1_8 
REMARK    4  A    between atoms: O1_8  and  C8_9 
REMARK    5  A    between atoms: C8_9  and  C9_10 
REMARK    6  A    between atoms: C9_10  and  C10_11 
REMARK    7  A    between atoms: C10_11  and  C11_12 
REMARK    8  A    between atoms: C11_12  and  O2_13 
ROOT
HETATM    1  O1  UNL     1      22.180  34.566  58.505  1.00  0.00    -0.350 OA
ENDROOT
BRANCH   1   2
HETATM    2  C7  UNL     1      20.971  34.472  59.147  1.00  0.00     0.077 A 
HETATM    3  C5  UNL     1      19.647  34.443  58.553  1.00  0.00    -0.025 A 
HETATM    4  C4  UNL     1      18.692  34.345  59.463  1.00  0.00    -0.064 A 
HETATM    5  C6  UNL     1      19.331  34.513  57.077  1.00  0.00     0.051 C 
HETATM    6  C18 UNL     1      19.373  34.302  60.782  1.00  0.00     0.071 A 
HETATM    7  C16 UNL     1      20.818  34.389  60.452  1.00  0.00    -0.046 A 
HETATM    8  C17 UNL     1      21.874  34.379  61.512  1.00  0.00     0.046 C 
BRANCH   4   9
HETATM    9  C3  UNL     1      17.219  34.285  59.269  1.00  0.00     0.061 C 
BRANCH   9  10
HETATM   10  C2  UNL     1      16.602  35.637  59.338  1.00  0.00    -0.033 C 
HETATM   11  C1  UNL     1      16.123  36.200  58.242  1.00  0.00     0.007 C 
ENDBRANCH   9  10
ENDBRANCH   4   9
ENDBRANCH   1   2
BRANCH   1  12
HETATM   12  C8  UNL     1      22.732  35.817  58.074  1.00  0.00     0.176 C 
BRANCH  12  13
HETATM   13  C9  UNL     1      23.897  35.504  57.206  1.00  0.00     0.038 C 
BRANCH  13  14
HETATM   14  C10 UNL     1      23.773  35.952  55.790  1.00  0.00    -0.017 C 
HETATM   15  C12 UNL     1      22.359  35.865  55.285  1.00  0.00     0.012 C 
HETATM   16  C13 UNL     1      22.226  34.586  54.516  1.00  0.00     0.001 C 
HETATM   17  C14 UNL     1      23.528  33.854  54.762  1.00  0.00     0.001 C 
HETATM   18  C15 UNL     1      24.510  35.018  54.863  1.00  0.00     0.012 C 
BRANCH  14  19
HETATM   19  C11 UNL     1      24.253  37.358  55.559  1.00  0.00     0.173 C 
BRANCH  19  20
HETATM   20  O2  UNL     1      25.570  37.256  55.066  1.00  0.00    -0.400 OA
ATOM     21  H2  UNL     1      25.842  38.137  54.836  1.00  0.00     0.209 HD
ENDBRANCH  19  20
ENDBRANCH  14  19
ENDBRANCH  13  14
ENDBRANCH  12  13
ENDBRANCH   1  12
TORSDOF 8
ENDMDL
MODEL 2
REMARK VINA RESULT: -7.114352180      2.335      5.636
REMARK  8 active torsions:
REMARK  status: ('A' for Active; 'I' for Inactive)
REMARK    1  A    between atoms: C2_2  and  C3_3 
REMARK    2  A    between atoms: C3_3  and  C4_4 
REMARK    3  A    between atoms: C7_7  and  O1_8 
REMARK    4  A    between atoms: O1_8  and  C8_9 
REMARK    5  A    between atoms: C8_9  and  C9_10 
REMARK    6  A    between atoms: C9_10  and  C10_11 
REMARK    7  A    between atoms: C10_11  and  C11_12 
REMARK    8  A    between atoms: C11_12  and  O2_13 
ROOT
HETATM    1  O1  UNL     1      20.263  34.838  56.401  1.00  0.00    -0.350 OA
ENDROOT
BRANCH   1   2
HETATM    2  C7  UNL     1      20.936  34.984  57.588  1.00  0.00     0.077 A 
HETATM    3  C5  UNL     1      20.524  34.537  58.906  1.00  0.00    -0.025 A 
HETATM    4  C4  UNL     1      21.412  34.839  59.838  1.00  0.00    -0.064 A 
HETATM    5  C6  UNL     1      19.243  33.808  59.239  1.00  0.00     0.051 C 
HETATM    6  C18 UNL     1      22.523  35.541  59.145  1.00  0.00     0.071 A 
HETATM    7  C16 UNL     1      22.106  35.572  57.721  1.00  0.00    -0.046 A 
HETATM    8  C17 UNL     1      22.954  36.202  56.661  1.00  0.00     0.046 C 
BRANCH   4   9
HETATM    9  C3  UNL     1      21.368  34.560  61.298  1.00  0.00     0.061 C 
BRANCH   9  10
HETATM   10  C2  UNL     1      21.022  35.777  62.078  1.00  0.00    -0.033 C 
HETATM   11  C1  UNL     1      19.850  36.364  61.901  1.00  0.00     0.007 C 
ENDBRANCH   9  10
ENDBRANCH   4   9
ENDBRANCH   1   2
BRANCH   1  12
HETATM   12  C8  UNL     1      19.432  35.869  55.851  1.00  0.00     0.176 C 
BRANCH  12  13
HETATM   13  C9  UNL     1      18.022  35.477  56.107  1.00  0.00     0.038 C 
BRANCH  13  14
HETATM   14  C10 UNL     1      17.168  36.542  56.707  1.00  0.00    -0.017 C 
HETATM   15  C12 UNL     1      17.352  36.651  58.196  1.00  0.00     0.012 C 
HETATM   16  C13 UNL     1      16.240  35.889  58.851  1.00  0.00     0.001 C 
HETATM   17  C14 UNL     1      15.539  35.180  57.713  1.00  0.00     0.001 C 
HETATM   18  C15 UNL     1      15.706  36.191  56.582  1.00  0.00     0.012 C 
BRANCH  14  19
HETATM   19  C11 UNL     1      17.401  37.905  56.118  1.00  0.00     0.173 C 
BRANCH  19  20
HETATM   20  O2  UNL     1      16.163  38.579  56.163  1.00  0.00    -0.400 OA
ATOM     21  H2  UNL     1      15.524  37.998  55.765  1.00  0.00     0.209 HD
ENDBRANCH  19  20
ENDBRANCH  14  19
ENDBRANCH  13  14
ENDBRANCH  12  13
ENDBRANCH   1  12
TORSDOF 8
ENDMDL
MODEL 3
REMARK VINA RESULT: -7.064602281      2.078      6.521
REMARK  8 active torsions:
REMARK  status: ('A' for Active; 'I' for Inactive)
REMARK    1  A    between atoms: C2_2  and  C3_3 
REMARK    2  A    between atoms: C3_3  and  C4_4 
REMARK    3  A    between atoms: C7_7  and  O1_8 
REMARK    4  A    between atoms: O1_8  and  C8_9 
REMARK    5  A    between atoms: C8_9  and  C9_10 
REMARK    6  A    between atoms: C9_10  and  C10_11 
REMARK    7  A    between atoms: C10_11  and  C11_12 
REMARK    8  A    between atoms: C11_12  and  O2_13 
ROOT
HETATM    1  O1  UNL     1      20.224  34.909  59.047  1.00  0.00    -0.350 OA
ENDROOT
BRANCH   1   2
HETATM    2  C7  UNL     1      21.319  34.510  58.323  1.00  0.00     0.077 A 
HETATM    3  C5  UNL     1      21.474  34.487  56.880  1.00  0.00    -0.025 A 
HETATM    4  C4  UNL     1      22.663  34.043  56.511  1.00  0.00    -0.064 A 
HETATM    5  C6  UNL     1      20.435  34.908  55.867  1.00  0.00     0.051 C 
HETATM    6  C18 UNL     1      23.401  33.732  57.762  1.00  0.00     0.071 A 
HETATM    7  C16 UNL     1      22.445  34.069  58.845  1.00  0.00    -0.046 A 
HETATM    8  C17 UNL     1      22.794  33.900  60.290  1.00  0.00     0.046 C 
BRANCH   4   9
HETATM    9  C3  UNL     1      23.212  33.869  55.140  1.00  0.00     0.061 C 
BRANCH   9  10
HETATM   10  C2  UNL     1      24.390  34.745  54.905  1.00  0.00    -0.033 C 
HETATM   11  C1  UNL     1      24.256  36.060  54.956  1.00  0.00     0.007 C 
ENDBRANCH   9  10
ENDBRANCH   4   9
ENDBRANCH   1   2
BRANCH   1  12
HETATM   12  C8  UNL     1      19.137  34.028  59.357  1.00  0.00     0.176 C 
BRANCH  12  13
HETATM   13  C9  UNL     1      17.961  34.879  59.672  1.00  0.00     0.038 C 
BRANCH  13  14
HETATM   14  C10 UNL     1      16.744  34.607  58.854  1.00  0.00    -0.017 C 
HETATM   15  C12 UNL     1      17.072  34.346  57.410  1.00  0.00     0.012 C 
HETATM   16  C13 UNL     1      16.857  35.622  56.655  1.00  0.00     0.001 C 
HETATM   17  C14 UNL     1      16.596  36.660  57.724  1.00  0.00     0.001 C 
HETATM   18  C15 UNL     1      15.865  35.830  58.775  1.00  0.00     0.012 C 
BRANCH  14  19
HETATM   19  C11 UNL     1      15.930  33.445  59.354  1.00  0.00     0.173 C 
BRANCH  19  20
HETATM   20  O2  UNL     1      16.204  32.363  58.492  1.00  0.00    -0.400 OA
ATOM     21  H2  UNL     1      15.670  31.636  58.793  1.00  0.00     0.209 HD
ENDBRANCH  19  20
ENDBRANCH  14  19
ENDBRANCH  13  14
ENDBRANCH  12  13
ENDBRANCH   1  12
TORSDOF 8
ENDMDL
MODEL 4
REMARK VINA RESULT: -7.058423419      2.185      6.271
REMARK  8 active torsions:
REMARK  status: ('A' for Active; 'I' for Inactive)
REMARK    1  A    between atoms: C2_2  and  C3_3 
REMARK    2  A    between atoms: C3_3  and  C4_4 
REMARK    3  A    between atoms: C7_7  and  O1_8 
REMARK    4  A    between atoms: O1_8  and  C8_9 
REMARK    5  A    between atoms: C8_9  and  C9_10 
REMARK    6  A    between atoms: C9_10  and  C10_11 
REMARK    7  A    between atoms: C10_11  and  C11_12 
REMARK    8  A    between atoms: C11_12  and  O2_13 
ROOT
HETATM    1  O1  UNL     1      19.721  33.676  59.368  1.00  0.00    -0.350 OA
ENDROOT
BRANCH   1   2
HETATM    2  C7  UNL     1      20.903  34.243  58.964  1.00  0.00     0.077 A 
HETATM    3  C5  UNL     1      21.256  34.719  57.638  1.00  0.00    -0.025 A 
HETATM    4  C4  UNL     1      22.482  35.212  57.593  1.00  0.00    -0.064 A 
HETATM    5  C6  UNL     1      20.371  34.682  56.414  1.00  0.00     0.051 C 
HETATM    6  C18 UNL     1      23.037  35.082  58.966  1.00  0.00     0.071 A 
HETATM    7  C16 UNL     1      21.941  34.453  59.745  1.00  0.00    -0.046 A 
HETATM    8  C17 UNL     1      22.086  34.139  61.201  1.00  0.00     0.046 C 
BRANCH   4   9
HETATM    9  C3  UNL     1      23.214  35.794  56.437  1.00  0.00     0.061 C 
BRANCH   9  10
HETATM   10  C2  UNL     1      24.090  34.788  55.781  1.00  0.00    -0.033 C 
HETATM   11  C1  UNL     1      23.612  34.031  54.807  1.00  0.00     0.007 C 
ENDBRANCH   9  10
ENDBRANCH   4   9
ENDBRANCH   1   2
BRANCH   1  12
HETATM   12  C8  UNL     1      18.678  34.428  60.002  1.00  0.00     0.176 C 
BRANCH  12  13
HETATM   13  C9  UNL     1      18.035  35.256  58.949  1.00  0.00     0.038 C 
BRANCH  13  14
HETATM   14  C10 UNL     1      16.635  34.872  58.607  1.00  0.00    -0.017 C 
HETATM   15  C12 UNL     1      16.245  33.546  59.200  1.00  0.00     0.012 C 
HETATM   16  C13 UNL     1      16.411  32.503  58.138  1.00  0.00     0.001 C 
HETATM   17  C14 UNL     1      17.091  33.225  56.995  1.00  0.00     0.001 C 
HETATM   18  C15 UNL     1      16.493  34.623  57.125  1.00  0.00     0.012 C 
BRANCH  14  19
HETATM   19  C11 UNL     1      15.611  35.884  59.038  1.00  0.00     0.173 C 
BRANCH  19  20
HETATM   20  O2  UNL     1      15.327  36.675  57.905  1.00  0.00    -0.400 OA
ATOM     21  H2  UNL     1      14.638  37.277  58.162  1.00  0.00     0.209 HD
ENDBRANCH  19  20
ENDBRANCH  14  19
ENDBRANCH  13  14
ENDBRANCH  12  13
ENDBRANCH   1  12
TORSDOF 8
ENDMDL
MODEL 5
REMARK VINA RESULT: -7.051705423      2.317      6.206
REMARK  8 active torsions:
REMARK  status: ('A' for Active; 'I' for Inactive)
REMARK    1  A    between atoms: C2_2  and  C3_3 
REMARK    2  A    between atoms: C3_3  and  C4_4 
REMARK    3  A    between atoms: C7_7  and  O1_8 
REMARK    4  A    between atoms: O1_8  and  C8_9 
REMARK    5  A    between atoms: C8_9  and  C9_10 
REMARK    6  A    between atoms: C9_10  and  C10_11 
REMARK    7  A    between atoms: C10_11  and  C11_12 
REMARK    8  A    between atoms: C11_12  and  O2_13 
ROOT
HETATM    1  O1  UNL     1      19.853  35.591  59.796  1.00  0.00    -0.350 OA
ENDROOT
BRANCH   1   2
HETATM    2  C7  UNL     1      20.976  34.944  59.346  1.00  0.00     0.077 A 
HETATM    3  C5  UNL     1      21.462  34.847  57.981  1.00  0.00    -0.025 A 
HETATM    4  C4  UNL     1      22.580  34.147  57.896  1.00  0.00    -0.064 A 
HETATM    5  C6  UNL     1      20.812  35.454  56.760  1.00  0.00     0.051 C 
HETATM    6  C18 UNL     1      22.912  33.718  59.279  1.00  0.00     0.071 A 
HETATM    7  C16 UNL     1      21.821  34.285  60.111  1.00  0.00    -0.046 A 
HETATM    8  C17 UNL     1      21.770  34.085  61.593  1.00  0.00     0.046 C 
BRANCH   4   9
HETATM    9  C3  UNL     1      23.389  33.819  56.692  1.00  0.00     0.061 C 
BRANCH   9  10
HETATM   10  C2  UNL     1      24.430  34.849  56.434  1.00  0.00    -0.033 C 
HETATM   11  C1  UNL     1      24.721  35.197  55.192  1.00  0.00     0.007 C 
ENDBRANCH   9  10
ENDBRANCH   4   9
ENDBRANCH   1   2
BRANCH   1  12
HETATM   12  C8  UNL     1      18.552  34.990  59.775  1.00  0.00     0.176 C 
BRANCH  12  13
HETATM   13  C9  UNL     1      17.742  35.739  58.779  1.00  0.00     0.038 C 
BRANCH  13  14
HETATM   14  C10 UNL     1      16.686  34.941  58.092  1.00  0.00    -0.017 C 
HETATM   15  C12 UNL     1      17.198  33.612  57.608  1.00  0.00     0.012 C 
HETATM   16  C13 UNL     1      17.534  33.753  56.155  1.00  0.00     0.001 C 
HETATM   17  C14 UNL     1      17.396  35.233  55.871  1.00  0.00     0.001 C 
HETATM   18  C15 UNL     1      16.255  35.612  56.811  1.00  0.00     0.012 C 
BRANCH  14  19
HETATM   19  C11 UNL     1      15.476  34.681  58.945  1.00  0.00     0.173 C 
BRANCH  19  20
HETATM   20  O2  UNL     1      14.955  35.943  59.298  1.00  0.00    -0.400 OA
ATOM     21  H2  UNL     1      14.056  35.798  59.569  1.00  0.00     0.209 HD
ENDBRANCH  19  20
ENDBRANCH  14  19
ENDBRANCH  13  14
ENDBRANCH  12  13
ENDBRANCH   1  12
TORSDOF 8
ENDMDL
