MODEL 1
REMARK VINA RESULT: -6.868229477      0.000      0.000
REMARK  10 active torsions:
REMARK  status: ('A' for Active; 'I' for Inactive)
REMARK    1  A    between atoms: C3_3  and  C4_4 
REMARK    2  A    between atoms: C3_3  and  C9_11 
REMARK    3  A    between atoms: C4_4  and  O2_6 
REMARK    4  A    between atoms: O2_6  and  C5_7 
REMARK    5  A    between atoms: C5_7  and  C6_8 
REMARK    6  A    between atoms: C9_11  and  C15_17 
REMARK    7  A    between atoms: C10_12  and  C11_13 
REMARK    8  A    between atoms: C11_13  and  C12_14 
REMARK    9  A    between atoms: C15_17  and  C16_18 
REMARK   10  A    between atoms: C16_18  and  C17_19 
ROOT
HETATM    1  C1  UNL     1      15.933  32.272  57.466  1.00  0.00     0.037 C 
HETATM    2  C2  UNL     1      17.133  32.931  57.991  1.00  0.00    -0.013 C 
HETATM    3  C3  UNL     1      17.138  34.207  58.387  1.00  0.00     0.041 C 
ENDROOT
BRANCH   3   4
HETATM    4  C4  UNL     1      15.920  34.978  58.307  1.00  0.00     0.293 C 
HETATM    5  O1  UNL     1      15.085  34.958  59.286  1.00  0.00    -0.259 OA
BRANCH   4   6
HETATM    6  O2  UNL     1      15.481  35.784  57.279  1.00  0.00    -0.317 OA
BRANCH   6   7
HETATM    7  C5  UNL     1      16.318  36.190  56.213  1.00  0.00     0.183 C 
BRANCH   7   8
HETATM    8  C6  UNL     1      17.255  37.281  56.596  1.00  0.00     0.002 C 
HETATM    9  C7  UNL     1      16.657  38.635  56.279  1.00  0.00     0.011 C 
HETATM   10  C8  UNL     1      18.546  37.068  55.817  1.00  0.00     0.011 C 
ENDBRANCH   7   8
ENDBRANCH   6   7
ENDBRANCH   4   6
ENDBRANCH   3   4
BRANCH   3  11
HETATM   11  C9  UNL     1      18.433  34.784  58.817  1.00  0.00    -0.046 C 
HETATM   12  C10 UNL     1      19.543  34.393  58.266  1.00  0.00    -0.018 C 
BRANCH  12  13
HETATM   13  C11 UNL     1      20.864  34.933  58.666  1.00  0.00     0.031 C 
BRANCH  13  14
HETATM   14  C12 UNL     1      21.860  33.821  58.911  1.00  0.00    -0.019 C 
HETATM   15  C13 UNL     1      22.919  33.815  57.843  1.00  0.00     0.010 C 
HETATM   16  C14 UNL     1      22.541  33.933  60.248  1.00  0.00     0.010 C 
ENDBRANCH  13  14
ENDBRANCH  12  13
BRANCH  11  17
HETATM   17  C15 UNL     1      18.460  35.834  59.836  1.00  0.00     0.039 C 
BRANCH  17  18
HETATM   18  C16 UNL     1      18.759  35.378  61.240  1.00  0.00     0.004 C 
BRANCH  18  19
HETATM   19  C17 UNL     1      19.415  36.563  61.941  1.00  0.00    -0.004 C 
HETATM   20  C18 UNL     1      20.825  36.242  62.358  1.00  0.00     0.005 C 
ENDBRANCH  18  19
ENDBRANCH  17  18
ENDBRANCH  11  17
ENDBRANCH   3  11
TORSDOF 10
ENDMDL
MODEL 2
REMARK VINA RESULT: -6.749050286      1.901      2.816
REMARK  10 active torsions:
REMARK  status: ('A' for Active; 'I' for Inactive)
REMARK    1  A    between atoms: C3_3  and  C4_4 
REMARK    2  A    between atoms: C3_3  and  C9_11 
REMARK    3  A    between atoms: C4_4  and  O2_6 
REMARK    4  A    between atoms: O2_6  and  C5_7 
REMARK    5  A    between atoms: C5_7  and  C6_8 
REMARK    6  A    between atoms: C9_11  and  C15_17 
REMARK    7  A    between atoms: C10_12  and  C11_13 
REMARK    8  A    between atoms: C11_13  and  C12_14 
REMARK    9  A    between atoms: C15_17  and  C16_18 
REMARK   10  A    between atoms: C16_18  and  C17_19 
ROOT
HETATM    1  C1  UNL     1      19.610  33.428  53.979  1.00  0.00     0.037 C 
HETATM    2  C2  UNL     1      20.238  33.889  55.221  1.00  0.00    -0.013 C 
HETATM    3  C3  UNL     1      19.530  34.256  56.292  1.00  0.00     0.041 C 
ENDROOT
BRANCH   3   4
HETATM    4  C4  UNL     1      18.089  34.197  56.242  1.00  0.00     0.293 C 
HETATM    5  O1  UNL     1      17.485  33.088  56.489  1.00  0.00    -0.259 OA
BRANCH   4   6
HETATM    6  O2  UNL     1      17.198  35.208  55.951  1.00  0.00    -0.317 OA
BRANCH   6   7
HETATM    7  C5  UNL     1      15.952  35.343  56.610  1.00  0.00     0.183 C 
BRANCH   7   8
HETATM    8  C6  UNL     1      15.947  36.434  57.622  1.00  0.00     0.002 C 
HETATM    9  C7  UNL     1      17.132  37.354  57.421  1.00  0.00     0.011 C 
HETATM   10  C8  UNL     1      16.001  35.780  58.996  1.00  0.00     0.011 C 
ENDBRANCH   7   8
ENDBRANCH   6   7
ENDBRANCH   4   6
ENDBRANCH   3   4
BRANCH   3  11
HETATM   11  C9  UNL     1      20.278  34.786  57.456  1.00  0.00    -0.046 C 
HETATM   12  C10 UNL     1      21.555  35.003  57.375  1.00  0.00    -0.018 C 
BRANCH  12  13
HETATM   13  C11 UNL     1      22.350  35.524  58.513  1.00  0.00     0.031 C 
BRANCH  13  14
HETATM   14  C12 UNL     1      23.300  34.474  59.046  1.00  0.00    -0.019 C 
HETATM   15  C13 UNL     1      22.835  33.972  60.385  1.00  0.00     0.010 C 
HETATM   16  C14 UNL     1      23.440  33.294  58.124  1.00  0.00     0.010 C 
ENDBRANCH  13  14
ENDBRANCH  12  13
BRANCH  11  17
HETATM   17  C15 UNL     1      19.565  35.109  58.693  1.00  0.00     0.039 C 
BRANCH  17  18
HETATM   18  C16 UNL     1      19.260  33.944  59.598  1.00  0.00     0.004 C 
BRANCH  18  19
HETATM   19  C17 UNL     1      19.112  34.523  61.001  1.00  0.00    -0.004 C 
HETATM   20  C18 UNL     1      19.163  36.027  60.982  1.00  0.00     0.005 C 
ENDBRANCH  18  19
ENDBRANCH  17  18
ENDBRANCH  11  17
ENDBRANCH   3  11
TORSDOF 10
ENDMDL
MODEL 3
REMARK VINA RESULT: -6.716002182      1.442      1.873
REMARK  10 active torsions:
REMARK  status: ('A' for Active; 'I' for Inactive)
REMARK    1  A    between atoms: C3_3  and  C4_4 
REMARK    2  A    between atoms: C3_3  and  C9_11 
REMARK    3  A    between atoms: C4_4  and  O2_6 
REMARK    4  A    between atoms: O2_6  and  C5_7 
REMARK    5  A    between atoms: C5_7  and  C6_8 
REMARK    6  A    between atoms: C9_11  and  C15_17 
REMARK    7  A    between atoms: C10_12  and  C11_13 
REMARK    8  A    between atoms: C11_13  and  C12_14 
REMARK    9  A    between atoms: C15_17  and  C16_18 
REMARK   10  A    between atoms: C16_18  and  C17_19 
ROOT
HETATM    1  C1  UNL     1      16.177  32.418  57.791  1.00  0.00     0.037 C 
HETATM    2  C2  UNL     1      17.351  33.044  58.406  1.00  0.00    -0.013 C 
HETATM    3  C3  UNL     1      18.193  33.822  57.721  1.00  0.00     0.041 C 
ENDROOT
BRANCH   3   4
HETATM    4  C4  UNL     1      17.947  34.071  56.320  1.00  0.00     0.293 C 
HETATM    5  O1  UNL     1      18.339  33.217  55.441  1.00  0.00    -0.259 OA
BRANCH   4   6
HETATM    6  O2  UNL     1      17.318  35.149  55.738  1.00  0.00    -0.317 OA
BRANCH   6   7
HETATM    7  C5  UNL     1      17.794  36.476  55.868  1.00  0.00     0.183 C 
BRANCH   7   8
HETATM    8  C6  UNL     1      17.172  37.206  57.006  1.00  0.00     0.002 C 
HETATM    9  C7  UNL     1      15.875  36.545  57.419  1.00  0.00     0.011 C 
HETATM   10  C8  UNL     1      16.925  38.637  56.549  1.00  0.00     0.011 C 
ENDBRANCH   7   8
ENDBRANCH   6   7
ENDBRANCH   4   6
ENDBRANCH   3   4
BRANCH   3  11
HETATM   11  C9  UNL     1      19.391  34.326  58.433  1.00  0.00    -0.046 C 
HETATM   12  C10 UNL     1      20.490  34.563  57.784  1.00  0.00    -0.018 C 
BRANCH  12  13
HETATM   13  C11 UNL     1      21.718  35.060  58.451  1.00  0.00     0.031 C 
BRANCH  13  14
HETATM   14  C12 UNL     1      22.716  33.944  58.665  1.00  0.00    -0.019 C 
HETATM   15  C13 UNL     1      23.672  33.860  57.506  1.00  0.00     0.010 C 
HETATM   16  C14 UNL     1      23.519  34.113  59.926  1.00  0.00     0.010 C 
ENDBRANCH  13  14
ENDBRANCH  12  13
BRANCH  11  17
HETATM   17  C15 UNL     1      19.322  34.600  59.869  1.00  0.00     0.039 C 
BRANCH  17  18
HETATM   18  C16 UNL     1      18.560  35.838  60.265  1.00  0.00     0.004 C 
BRANCH  18  19
HETATM   19  C17 UNL     1      19.197  36.333  61.559  1.00  0.00    -0.004 C 
HETATM   20  C18 UNL     1      20.631  35.891  61.669  1.00  0.00     0.005 C 
ENDBRANCH  18  19
ENDBRANCH  17  18
ENDBRANCH  11  17
ENDBRANCH   3  11
TORSDOF 10
ENDMDL
MODEL 4
REMARK VINA RESULT: -6.684572768      1.806      4.292
REMARK  10 active torsions:
REMARK  status: ('A' for Active; 'I' for Inactive)
REMARK    1  A    between atoms: C3_3  and  C4_4 
REMARK    2  A    between atoms: C3_3  and  C9_11 
REMARK    3  A    between atoms: C4_4  and  O2_6 
REMARK    4  A    between atoms: O2_6  and  C5_7 
REMARK    5  A    between atoms: C5_7  and  C6_8 
REMARK    6  A    between atoms: C9_11  and  C15_17 
REMARK    7  A    between atoms: C10_12  and  C11_13 
REMARK    8  A    between atoms: C11_13  and  C12_14 
REMARK    9  A    between atoms: C15_17  and  C16_18 
REMARK   10  A    between atoms: C16_18  and  C17_19 
ROOT
HETATM    1  C1  UNL     1      19.404  36.489  54.651  1.00  0.00     0.037 C 
HETATM    2  C2  UNL     1      20.006  36.085  55.925  1.00  0.00    -0.013 C 
HETATM    3  C3  UNL     1      19.691  34.942  56.540  1.00  0.00     0.041 C 
ENDROOT
BRANCH   3   4
HETATM    4  C4  UNL     1      18.726  34.055  55.934  1.00  0.00     0.293 C 
HETATM    5  O1  UNL     1      19.124  33.123  55.141  1.00  0.00    -0.259 OA
BRANCH   4   6
HETATM    6  O2  UNL     1      17.356  34.049  56.080  1.00  0.00    -0.317 OA
BRANCH   6   7
HETATM    7  C5  UNL     1      16.697  33.316  57.096  1.00  0.00     0.183 C 
BRANCH   7   8
HETATM    8  C6  UNL     1      15.777  34.155  57.911  1.00  0.00     0.002 C 
HETATM    9  C7  UNL     1      16.126  35.621  57.772  1.00  0.00     0.011 C 
HETATM   10  C8  UNL     1      15.913  33.705  59.360  1.00  0.00     0.011 C 
ENDBRANCH   7   8
ENDBRANCH   6   7
ENDBRANCH   4   6
ENDBRANCH   3   4
BRANCH   3  11
HETATM   11  C9  UNL     1      20.302  34.688  57.865  1.00  0.00    -0.046 C 
HETATM   12  C10 UNL     1      19.575  34.264  58.855  1.00  0.00    -0.018 C 
BRANCH  12  13
HETATM   13  C11 UNL     1      20.137  34.003  60.201  1.00  0.00     0.031 C 
BRANCH  13  14
HETATM   14  C12 UNL     1      19.686  35.050  61.197  1.00  0.00    -0.019 C 
HETATM   15  C13 UNL     1      20.836  35.937  61.587  1.00  0.00     0.010 C 
HETATM   16  C14 UNL     1      18.579  35.919  60.667  1.00  0.00     0.010 C 
ENDBRANCH  13  14
ENDBRANCH  12  13
BRANCH  11  17
HETATM   17  C15 UNL     1      21.742  34.871  58.050  1.00  0.00     0.039 C 
BRANCH  17  18
HETATM   18  C16 UNL     1      22.629  33.949  57.254  1.00  0.00     0.004 C 
BRANCH  18  19
HETATM   19  C17 UNL     1      23.548  33.269  58.263  1.00  0.00    -0.004 C 
HETATM   20  C18 UNL     1      23.752  34.124  59.484  1.00  0.00     0.005 C 
ENDBRANCH  18  19
ENDBRANCH  17  18
ENDBRANCH  11  17
ENDBRANCH   3  11
TORSDOF 10
ENDMDL
MODEL 5
REMARK VINA RESULT: -6.610707438      2.337      4.788
REMARK  10 active torsions:
REMARK  status: ('A' for Active; 'I' for Inactive)
REMARK    1  A    between atoms: C3_3  and  C4_4 
REMARK    2  A    between atoms: C3_3  and  C9_11 
REMARK    3  A    between atoms: C4_4  and  O2_6 
REMARK    4  A    between atoms: O2_6  and  C5_7 
REMARK    5  A    between atoms: C5_7  and  C6_8 
REMARK    6  A    between atoms: C9_11  and  C15_17 
REMARK    7  A    between atoms: C10_12  and  C11_13 
REMARK    8  A    between atoms: C11_13  and  C12_14 
REMARK    9  A    between atoms: C15_17  and  C16_18 
REMARK   10  A    between atoms: C16_18  and  C17_19 
ROOT
HETATM    1  C1  UNL     1      18.812  36.818  55.206  1.00  0.00     0.037 C 
HETATM    2  C2  UNL     1      18.804  36.115  56.492  1.00  0.00    -0.013 C 
HETATM    3  C3  UNL     1      18.910  34.786  56.586  1.00  0.00     0.041 C 
ENDROOT
BRANCH   3   4
HETATM    4  C4  UNL     1      19.044  34.000  55.383  1.00  0.00     0.293 C 
HETATM    5  O1  UNL     1      17.992  33.641  54.733  1.00  0.00    -0.259 OA
BRANCH   4   6
HETATM    6  O2  UNL     1      20.195  33.541  54.781  1.00  0.00    -0.317 OA
BRANCH   6   7
HETATM    7  C5  UNL     1      21.370  34.323  54.681  1.00  0.00     0.183 C 
BRANCH   7   8
HETATM    8  C6  UNL     1      22.552  33.677  55.315  1.00  0.00     0.002 C 
HETATM    9  C7  UNL     1      22.659  34.070  56.772  1.00  0.00     0.011 C 
HETATM   10  C8  UNL     1      23.786  34.128  54.544  1.00  0.00     0.011 C 
ENDBRANCH   7   8
ENDBRANCH   6   7
ENDBRANCH   4   6
ENDBRANCH   3   4
BRANCH   3  11
HETATM   11  C9  UNL     1      18.801  34.186  57.936  1.00  0.00    -0.046 C 
HETATM   12  C10 UNL     1      19.618  34.541  58.881  1.00  0.00    -0.018 C 
BRANCH  12  13
HETATM   13  C11 UNL     1      19.557  33.964  60.246  1.00  0.00     0.031 C 
BRANCH  13  14
HETATM   14  C12 UNL     1      19.676  35.041  61.302  1.00  0.00    -0.019 C 
HETATM   15  C13 UNL     1      21.098  35.518  61.412  1.00  0.00     0.010 C 
HETATM   16  C14 UNL     1      18.801  36.232  61.023  1.00  0.00     0.010 C 
ENDBRANCH  13  14
ENDBRANCH  12  13
BRANCH  11  17
HETATM   17  C15 UNL     1      17.739  33.220  58.220  1.00  0.00     0.039 C 
BRANCH  17  18
HETATM   18  C16 UNL     1      16.337  33.679  57.919  1.00  0.00     0.004 C 
BRANCH  18  19
HETATM   19  C17 UNL     1      15.826  34.349  59.190  1.00  0.00    -0.004 C 
HETATM   20  C18 UNL     1      15.732  35.841  59.025  1.00  0.00     0.005 C 
ENDBRANCH  18  19
ENDBRANCH  17  18
ENDBRANCH  11  17
ENDBRANCH   3  11
TORSDOF 10
ENDMDL
