MODEL 1
REMARK VINA RESULT: -6.837335647      0.000      0.000
REMARK  10 active torsions:
REMARK  status: ('A' for Active; 'I' for Inactive)
REMARK    1  A    between atoms: C2_2  and  C3_3 
REMARK    2  A    between atoms: C3_3  and  C4_4 
REMARK    3  A    between atoms: C4_4  and  C5_5 
REMARK    4  A    between atoms: C9_9  and  C10_10 
REMARK    5  A    between atoms: C10_10  and  C11_11 
REMARK    6  A    between atoms: C11_11  and  C12_12 
REMARK    7  A    between atoms: C12_12  and  O1_13 
REMARK    8  A    between atoms: C13_15  and  C14_16 
REMARK    9  A    between atoms: C14_16  and  C15_17 
REMARK   10  A    between atoms: C15_17  and  O2_20 
ROOT
HETATM    1  C5  UNL     1      19.962  34.549  58.861  1.00  0.00    -0.057 A 
HETATM    2  C6  UNL     1      20.853  34.549  57.843  1.00  0.00     0.014 A 
HETATM    3  C7  UNL     1      20.391  34.773  56.544  1.00  0.00    -0.055 A 
HETATM    4  C8  UNL     1      21.416  34.758  55.456  1.00  0.00     0.049 C 
HETATM    5  C9  UNL     1      19.060  34.993  56.261  1.00  0.00    -0.046 A 
HETATM    6  C13 UNL     1      18.196  34.978  57.327  1.00  0.00    -0.048 A 
HETATM    7  C18 UNL     1      18.627  34.758  58.643  1.00  0.00     0.014 A 
ENDROOT
BRANCH   6   8
HETATM    8  C14 UNL     1      16.750  35.069  57.149  1.00  0.00     0.076 C 
BRANCH   8   9
HETATM    9  C15 UNL     1      16.174  36.456  57.211  1.00  0.00     0.054 C 
HETATM   10  C16 UNL     1      17.103  37.591  57.335  1.00  0.00     0.045 C 
HETATM   11  C17 UNL     1      15.257  36.733  56.031  1.00  0.00     0.045 C 
BRANCH   9  12
HETATM   12  O2  UNL     1      15.321  36.479  58.342  1.00  0.00    -0.390 OA
ATOM     13  H2  UNL     1      14.538  36.001  58.093  1.00  0.00     0.210 HD
ENDBRANCH   9  12
ENDBRANCH   8   9
ENDBRANCH   6   8
BRANCH   5  14
HETATM   14  C10 UNL     1      18.644  35.296  54.904  1.00  0.00     0.042 C 
BRANCH  14  15
HETATM   15  C11 UNL     1      18.077  34.056  54.193  1.00  0.00     0.030 C 
BRANCH  15  16
HETATM   16  C12 UNL     1      18.915  33.696  52.985  1.00  0.00     0.164 C 
BRANCH  16  17
HETATM   17  O1  UNL     1      18.500  32.539  52.365  1.00  0.00    -0.401 OA
ATOM     18  H1  UNL     1      17.559  32.498  52.243  1.00  0.00     0.209 HD
ENDBRANCH  16  17
ENDBRANCH  15  16
ENDBRANCH  14  15
ENDBRANCH   5  14
BRANCH   1  19
HETATM   19  C4  UNL     1      20.445  34.315  60.246  1.00  0.00     0.038 C 
BRANCH  19  20
HETATM   20  C3  UNL     1      21.367  35.444  60.695  1.00  0.00     0.004 C 
BRANCH  20  21
HETATM   21  C2  UNL     1      20.834  35.971  62.012  1.00  0.00    -0.004 C 
HETATM   22  C1  UNL     1      19.430  36.503  61.833  1.00  0.00     0.005 C 
ENDBRANCH  20  21
ENDBRANCH  19  20
ENDBRANCH   1  19
TORSDOF 10
ENDMDL
MODEL 2
REMARK VINA RESULT: -6.815068077      1.412      1.554
REMARK  10 active torsions:
REMARK  status: ('A' for Active; 'I' for Inactive)
REMARK    1  A    between atoms: C2_2  and  C3_3 
REMARK    2  A    between atoms: C3_3  and  C4_4 
REMARK    3  A    between atoms: C4_4  and  C5_5 
REMARK    4  A    between atoms: C9_9  and  C10_10 
REMARK    5  A    between atoms: C10_10  and  C11_11 
REMARK    6  A    between atoms: C11_11  and  C12_12 
REMARK    7  A    between atoms: C12_12  and  O1_13 
REMARK    8  A    between atoms: C13_15  and  C14_16 
REMARK    9  A    between atoms: C14_16  and  C15_17 
REMARK   10  A    between atoms: C15_17  and  O2_20 
ROOT
HETATM    1  C5  UNL     1      20.988  34.364  59.209  1.00  0.00    -0.057 A 
HETATM    2  C6  UNL     1      21.529  34.899  58.091  1.00  0.00     0.014 A 
HETATM    3  C7  UNL     1      20.732  35.021  56.950  1.00  0.00    -0.055 A 
HETATM    4  C8  UNL     1      21.380  35.615  55.741  1.00  0.00     0.049 C 
HETATM    5  C9  UNL     1      19.415  34.616  56.922  1.00  0.00    -0.046 A 
HETATM    6  C13 UNL     1      18.915  34.075  58.079  1.00  0.00    -0.048 A 
HETATM    7  C18 UNL     1      19.687  33.939  59.242  1.00  0.00     0.014 A 
ENDROOT
BRANCH   6   8
HETATM    8  C14 UNL     1      17.579  33.491  58.144  1.00  0.00     0.076 C 
BRANCH   8   9
HETATM    9  C15 UNL     1      16.494  34.404  58.642  1.00  0.00     0.054 C 
HETATM   10  C16 UNL     1      16.889  35.658  59.305  1.00  0.00     0.045 C 
HETATM   11  C17 UNL     1      15.506  34.751  57.541  1.00  0.00     0.045 C 
BRANCH   9  12
HETATM   12  O2  UNL     1      15.740  33.649  59.575  1.00  0.00    -0.390 OA
ATOM     13  H2  UNL     1      14.888  34.065  59.625  1.00  0.00     0.210 HD
ENDBRANCH   9  12
ENDBRANCH   8   9
ENDBRANCH   6   8
BRANCH   5  14
HETATM   14  C10 UNL     1      18.610  34.836  55.735  1.00  0.00     0.042 C 
BRANCH  14  15
HETATM   15  C11 UNL     1      18.491  33.561  54.884  1.00  0.00     0.030 C 
BRANCH  15  16
HETATM   16  C12 UNL     1      18.490  33.895  53.408  1.00  0.00     0.164 C 
BRANCH  16  17
HETATM   17  O1  UNL     1      18.412  32.781  52.602  1.00  0.00    -0.401 OA
ATOM     18  H1  UNL     1      17.746  32.854  51.928  1.00  0.00     0.209 HD
ENDBRANCH  16  17
ENDBRANCH  15  16
ENDBRANCH  14  15
ENDBRANCH   5  14
BRANCH   1  19
HETATM   19  C4  UNL     1      21.827  34.232  60.428  1.00  0.00     0.038 C 
BRANCH  19  20
HETATM   20  C3  UNL     1      20.995  34.468  61.684  1.00  0.00     0.004 C 
BRANCH  20  21
HETATM   21  C2  UNL     1      20.930  35.964  61.912  1.00  0.00    -0.004 C 
HETATM   22  C1  UNL     1      19.490  36.427  61.944  1.00  0.00     0.005 C 
ENDBRANCH  20  21
ENDBRANCH  19  20
ENDBRANCH   1  19
TORSDOF 10
ENDMDL
MODEL 3
REMARK VINA RESULT: -6.810218831      2.123      2.863
REMARK  10 active torsions:
REMARK  status: ('A' for Active; 'I' for Inactive)
REMARK    1  A    between atoms: C2_2  and  C3_3 
REMARK    2  A    between atoms: C3_3  and  C4_4 
REMARK    3  A    between atoms: C4_4  and  C5_5 
REMARK    4  A    between atoms: C9_9  and  C10_10 
REMARK    5  A    between atoms: C10_10  and  C11_11 
REMARK    6  A    between atoms: C11_11  and  C12_12 
REMARK    7  A    between atoms: C12_12  and  O1_13 
REMARK    8  A    between atoms: C13_15  and  C14_16 
REMARK    9  A    between atoms: C14_16  and  C15_17 
REMARK   10  A    between atoms: C15_17  and  O2_20 
ROOT
HETATM    1  C5  UNL     1      20.644  34.352  58.703  1.00  0.00    -0.057 A 
HETATM    2  C6  UNL     1      21.301  35.105  57.792  1.00  0.00     0.014 A 
HETATM    3  C7  UNL     1      20.579  35.668  56.736  1.00  0.00    -0.055 A 
HETATM    4  C8  UNL     1      21.355  36.487  55.756  1.00  0.00     0.049 C 
HETATM    5  C9  UNL     1      19.221  35.482  56.589  1.00  0.00    -0.046 A 
HETATM    6  C13 UNL     1      18.601  34.707  57.536  1.00  0.00    -0.048 A 
HETATM    7  C18 UNL     1      19.296  34.129  58.608  1.00  0.00     0.014 A 
ENDROOT
BRANCH   6   8
HETATM    8  C14 UNL     1      17.196  34.328  57.424  1.00  0.00     0.076 C 
BRANCH   8   9
HETATM    9  C15 UNL     1      16.316  34.758  58.564  1.00  0.00     0.054 C 
HETATM   10  C16 UNL     1      15.875  33.736  59.528  1.00  0.00     0.045 C 
HETATM   11  C17 UNL     1      16.937  35.901  59.349  1.00  0.00     0.045 C 
BRANCH   9  12
HETATM   12  O2  UNL     1      15.154  35.317  57.976  1.00  0.00    -0.390 OA
ATOM     13  H2  UNL     1      14.510  34.619  57.948  1.00  0.00     0.210 HD
ENDBRANCH   9  12
ENDBRANCH   8   9
ENDBRANCH   6   8
BRANCH   5  14
HETATM   14  C10 UNL     1      18.507  36.153  55.518  1.00  0.00     0.042 C 
BRANCH  14  15
HETATM   15  C11 UNL     1      18.275  37.640  55.833  1.00  0.00     0.030 C 
BRANCH  15  16
HETATM   16  C12 UNL     1      16.854  37.878  56.294  1.00  0.00     0.164 C 
BRANCH  16  17
HETATM   17  O1  UNL     1      16.377  39.125  55.954  1.00  0.00    -0.401 OA
ATOM     18  H1  UNL     1      16.022  39.603  56.693  1.00  0.00     0.209 HD
ENDBRANCH  16  17
ENDBRANCH  15  16
ENDBRANCH  14  15
ENDBRANCH   5  14
BRANCH   1  19
HETATM   19  C4  UNL     1      21.402  33.752  59.830  1.00  0.00     0.038 C 
BRANCH  19  20
HETATM   20  C3  UNL     1      20.758  34.109  61.165  1.00  0.00     0.004 C 
BRANCH  20  21
HETATM   21  C2  UNL     1      21.081  35.562  61.452  1.00  0.00    -0.004 C 
HETATM   22  C1  UNL     1      19.809  36.339  61.711  1.00  0.00     0.005 C 
ENDBRANCH  20  21
ENDBRANCH  19  20
ENDBRANCH   1  19
TORSDOF 10
ENDMDL
MODEL 4
REMARK VINA RESULT: -6.741055401      2.334      5.703
REMARK  10 active torsions:
REMARK  status: ('A' for Active; 'I' for Inactive)
REMARK    1  A    between atoms: C2_2  and  C3_3 
REMARK    2  A    between atoms: C3_3  and  C4_4 
REMARK    3  A    between atoms: C4_4  and  C5_5 
REMARK    4  A    between atoms: C9_9  and  C10_10 
REMARK    5  A    between atoms: C10_10  and  C11_11 
REMARK    6  A    between atoms: C11_11  and  C12_12 
REMARK    7  A    between atoms: C12_12  and  O1_13 
REMARK    8  A    between atoms: C13_15  and  C14_16 
REMARK    9  A    between atoms: C14_16  and  C15_17 
REMARK   10  A    between atoms: C15_17  and  O2_20 
ROOT
HETATM    1  C5  UNL     1      20.143  34.875  56.933  1.00  0.00    -0.057 A 
HETATM    2  C6  UNL     1      21.041  34.462  57.856  1.00  0.00     0.014 A 
HETATM    3  C7  UNL     1      20.699  34.537  59.209  1.00  0.00    -0.055 A 
HETATM    4  C8  UNL     1      21.730  34.072  60.187  1.00  0.00     0.049 C 
HETATM    5  C9  UNL     1      19.480  35.017  59.637  1.00  0.00    -0.046 A 
HETATM    6  C13 UNL     1      18.606  35.428  58.663  1.00  0.00    -0.048 A 
HETATM    7  C18 UNL     1      18.917  35.365  57.297  1.00  0.00     0.014 A 
ENDROOT
BRANCH   6   8
HETATM    8  C14 UNL     1      17.338  36.075  58.986  1.00  0.00     0.076 C 
BRANCH   8   9
HETATM    9  C15 UNL     1      16.103  35.300  58.621  1.00  0.00     0.054 C 
HETATM   10  C16 UNL     1      15.754  35.176  57.196  1.00  0.00     0.045 C 
HETATM   11  C17 UNL     1      16.123  33.902  59.217  1.00  0.00     0.045 C 
BRANCH   9  12
HETATM   12  O2  UNL     1      15.023  35.950  59.268  1.00  0.00    -0.390 OA
ATOM     13  H2  UNL     1      14.677  36.575  58.642  1.00  0.00     0.210 HD
ENDBRANCH   9  12
ENDBRANCH   8   9
ENDBRANCH   6   8
BRANCH   5  14
HETATM   14  C10 UNL     1      19.147  35.002  61.050  1.00  0.00     0.042 C 
BRANCH  14  15
HETATM   15  C11 UNL     1      19.294  36.395  61.683  1.00  0.00     0.030 C 
BRANCH  15  16
HETATM   16  C12 UNL     1      20.508  36.453  62.585  1.00  0.00     0.164 C 
BRANCH  16  17
HETATM   17  O1  UNL     1      20.501  37.539  63.432  1.00  0.00    -0.401 OA
ATOM     18  H1  UNL     1      21.195  37.511  64.080  1.00  0.00     0.209 HD
ENDBRANCH  16  17
ENDBRANCH  15  16
ENDBRANCH  14  15
ENDBRANCH   5  14
BRANCH   1  19
HETATM   19  C4  UNL     1      20.496  34.797  55.492  1.00  0.00     0.038 C 
BRANCH  19  20
HETATM   20  C3  UNL     1      21.833  34.087  55.302  1.00  0.00     0.004 C 
BRANCH  20  21
HETATM   21  C2  UNL     1      21.848  33.515  53.898  1.00  0.00    -0.004 C 
HETATM   22  C1  UNL     1      20.589  32.717  53.645  1.00  0.00     0.005 C 
ENDBRANCH  20  21
ENDBRANCH  19  20
ENDBRANCH   1  19
TORSDOF 10
ENDMDL
MODEL 5
REMARK VINA RESULT: -6.667466779      3.455      5.366
REMARK  10 active torsions:
REMARK  status: ('A' for Active; 'I' for Inactive)
REMARK    1  A    between atoms: C2_2  and  C3_3 
REMARK    2  A    between atoms: C3_3  and  C4_4 
REMARK    3  A    between atoms: C4_4  and  C5_5 
REMARK    4  A    between atoms: C9_9  and  C10_10 
REMARK    5  A    between atoms: C10_10  and  C11_11 
REMARK    6  A    between atoms: C11_11  and  C12_12 
REMARK    7  A    between atoms: C12_12  and  O1_13 
REMARK    8  A    between atoms: C13_15  and  C14_16 
REMARK    9  A    between atoms: C14_16  and  C15_17 
REMARK   10  A    between atoms: C15_17  and  O2_20 
ROOT
HETATM    1  C5  UNL     1      19.049  35.053  57.167  1.00  0.00    -0.057 A 
HETATM    2  C6  UNL     1      18.845  36.108  56.346  1.00  0.00     0.014 A 
HETATM    3  C7  UNL     1      19.922  36.607  55.611  1.00  0.00    -0.055 A 
HETATM    4  C8  UNL     1      19.643  37.778  54.724  1.00  0.00     0.049 C 
HETATM    5  C9  UNL     1      21.186  36.064  55.691  1.00  0.00    -0.046 A 
HETATM    6  C13 UNL     1      21.343  34.998  56.540  1.00  0.00    -0.048 A 
HETATM    7  C18 UNL     1      20.282  34.472  57.292  1.00  0.00     0.014 A 
ENDROOT
BRANCH   6   8
HETATM    8  C14 UNL     1      22.653  34.415  56.814  1.00  0.00     0.076 C 
BRANCH   8   9
HETATM    9  C15 UNL     1      23.307  34.860  58.092  1.00  0.00     0.054 C 
HETATM   10  C16 UNL     1      22.540  35.725  59.003  1.00  0.00     0.045 C 
HETATM   11  C17 UNL     1      23.821  33.678  58.897  1.00  0.00     0.045 C 
BRANCH   9  12
HETATM   12  O2  UNL     1      24.473  35.569  57.712  1.00  0.00    -0.390 OA
ATOM     13  H2  UNL     1      24.185  36.440  57.467  1.00  0.00     0.210 HD
ENDBRANCH   9  12
ENDBRANCH   8   9
ENDBRANCH   6   8
BRANCH   5  14
HETATM   14  C10 UNL     1      22.253  36.572  54.847  1.00  0.00     0.042 C 
BRANCH  14  15
HETATM   15  C11 UNL     1      23.010  37.728  55.523  1.00  0.00     0.030 C 
BRANCH  15  16
HETATM   16  C12 UNL     1      24.277  38.059  54.765  1.00  0.00     0.164 C 
BRANCH  16  17
HETATM   17  O1  UNL     1      25.403  37.496  55.323  1.00  0.00    -0.401 OA
ATOM     18  H1  UNL     1      25.929  38.118  55.811  1.00  0.00     0.209 HD
ENDBRANCH  16  17
ENDBRANCH  15  16
ENDBRANCH  14  15
ENDBRANCH   5  14
BRANCH   1  19
HETATM   19  C4  UNL     1      17.909  34.513  57.951  1.00  0.00     0.038 C 
BRANCH  19  20
HETATM   20  C3  UNL     1      18.255  34.452  59.435  1.00  0.00     0.004 C 
BRANCH  20  21
HETATM   21  C2  UNL     1      17.945  35.810  60.031  1.00  0.00    -0.004 C 
HETATM   22  C1  UNL     1      18.996  36.186  61.051  1.00  0.00     0.005 C 
ENDBRANCH  20  21
ENDBRANCH  19  20
ENDBRANCH   1  19
TORSDOF 10
ENDMDL
