MODEL 1
REMARK VINA RESULT: -6.895462023      0.000      0.000
REMARK  9 active torsions:
REMARK  status: ('A' for Active; 'I' for Inactive)
REMARK    1  A    between atoms: C2_2  and  C3_3 
REMARK    2  A    between atoms: C3_3  and  C4_4 
REMARK    3  A    between atoms: C6_6  and  C7_7 
REMARK    4  A    between atoms: C7_7  and  O1_8 
REMARK    5  A    between atoms: C7_7  and  C8_10 
REMARK    6  A    between atoms: C11_13  and  O2_14 
REMARK    7  A    between atoms: O2_14  and  C12_15 
REMARK    8  A    between atoms: C14_17  and  C15_18 
REMARK    9  A    between atoms: C16_19  and  C17_20 
ROOT
HETATM    1  C4  UNL     1      20.343  34.448  56.164  1.00  0.00    -0.041 A 
HETATM    2  C5  UNL     1      20.252  34.317  54.693  1.00  0.00     0.022 A 
HETATM    3  C6  UNL     1      18.980  34.014  54.155  1.00  0.00     0.000 A 
HETATM    4  C10 UNL     1      17.932  33.877  55.007  1.00  0.00     0.052 A 
HETATM    5  C11 UNL     1      18.032  34.014  56.404  1.00  0.00     0.080 A 
HETATM    6  C14 UNL     1      19.270  34.287  56.902  1.00  0.00     0.004 A 
ENDROOT
BRANCH   3   7
HETATM    7  C7  UNL     1      18.926  33.753  52.820  1.00  0.00     0.075 C 
BRANCH   7   8
HETATM    8  O1  UNL     1      18.461  32.496  52.383  1.00  0.00    -0.360 OA
ATOM      9  H1  UNL     1      18.166  32.398  51.486  1.00  0.00     0.217 HD
ENDBRANCH   7   8
BRANCH   7  10
HETATM   10  C8  UNL     1      19.227  34.458  51.534  1.00  0.00     0.027 C 
HETATM   11  C9  UNL     1      18.512  35.078  50.717  1.00  0.00     0.014 C 
ENDBRANCH   7  10
ENDBRANCH   3   7
BRANCH   1  12
HETATM   12  C3  UNL     1      21.643  34.973  56.608  1.00  0.00     0.066 C 
BRANCH  12  13
HETATM   13  C2  UNL     1      22.679  33.956  56.832  1.00  0.00    -0.032 C 
HETATM   14  C1  UNL     1      23.112  33.291  57.822  1.00  0.00     0.007 C 
ENDBRANCH  12  13
ENDBRANCH   1  12
BRANCH   5  15
HETATM   15  O2  UNL     1      16.889  33.871  57.222  1.00  0.00    -0.351 OA
BRANCH  15  16
HETATM   16  C12 UNL     1      15.990  35.006  57.142  1.00  0.00     0.171 C 
HETATM   17  C13 UNL     1      15.948  35.654  58.550  1.00  0.00     0.034 C 
ENDBRANCH  15  16
ENDBRANCH   5  15
BRANCH   6  18
HETATM   18  C15 UNL     1      19.340  34.272  58.419  1.00  0.00     0.011 C 
HETATM   19  C16 UNL     1      19.686  33.497  59.347  1.00  0.00    -0.026 C 
BRANCH  19  20
HETATM   20  C17 UNL     1      19.503  34.040  60.775  1.00  0.00     0.022 C 
HETATM   21  C18 UNL     1      19.545  35.545  60.779  1.00  0.00     0.009 C 
ENDBRANCH  19  20
ENDBRANCH   6  18
TORSDOF 9
ENDMDL
MODEL 2
REMARK VINA RESULT: -6.784188935      1.409      3.850
REMARK  9 active torsions:
REMARK  status: ('A' for Active; 'I' for Inactive)
REMARK    1  A    between atoms: C2_2  and  C3_3 
REMARK    2  A    between atoms: C3_3  and  C4_4 
REMARK    3  A    between atoms: C6_6  and  C7_7 
REMARK    4  A    between atoms: C7_7  and  O1_8 
REMARK    5  A    between atoms: C7_7  and  C8_10 
REMARK    6  A    between atoms: C11_13  and  O2_14 
REMARK    7  A    between atoms: O2_14  and  C12_15 
REMARK    8  A    between atoms: C14_17  and  C15_18 
REMARK    9  A    between atoms: C16_19  and  C17_20 
ROOT
HETATM    1  C4  UNL     1      18.195  33.869  57.115  1.00  0.00    -0.041 A 
HETATM    2  C5  UNL     1      17.971  33.668  55.666  1.00  0.00     0.022 A 
HETATM    3  C6  UNL     1      19.053  33.955  54.805  1.00  0.00     0.000 A 
HETATM    4  C10 UNL     1      20.222  34.378  55.352  1.00  0.00     0.052 A 
HETATM    5  C11 UNL     1      20.424  34.557  56.733  1.00  0.00     0.080 A 
HETATM    6  C14 UNL     1      19.361  34.292  57.543  1.00  0.00     0.004 A 
ENDROOT
BRANCH   3   7
HETATM    7  C7  UNL     1      18.802  33.907  53.468  1.00  0.00     0.075 C 
BRANCH   7   8
HETATM    8  O1  UNL     1      18.070  32.821  52.945  1.00  0.00    -0.360 OA
ATOM      9  H1  UNL     1      18.252  32.523  52.061  1.00  0.00     0.217 HD
ENDBRANCH   7   8
BRANCH   7  10
HETATM   10  C8  UNL     1      19.078  34.735  52.252  1.00  0.00     0.027 C 
HETATM   11  C9  UNL     1      18.788  34.594  51.044  1.00  0.00     0.014 C 
ENDBRANCH   7  10
ENDBRANCH   3   7
BRANCH   1  12
HETATM   12  C3  UNL     1      17.096  33.343  57.939  1.00  0.00     0.066 C 
BRANCH  12  13
HETATM   13  C2  UNL     1      15.970  34.265  58.134  1.00  0.00    -0.032 C 
HETATM   14  C1  UNL     1      15.822  35.460  58.531  1.00  0.00     0.007 C 
ENDBRANCH  12  13
ENDBRANCH   1  12
BRANCH   5  15
HETATM   15  O2  UNL     1      21.676  34.988  57.225  1.00  0.00    -0.351 OA
BRANCH  15  16
HETATM   16  C12 UNL     1      22.765  34.108  56.848  1.00  0.00     0.171 C 
HETATM   17  C13 UNL     1      23.130  33.272  58.101  1.00  0.00     0.034 C 
ENDBRANCH  15  16
ENDBRANCH   5  15
BRANCH   6  18
HETATM   18  C15 UNL     1      19.596  34.648  59.001  1.00  0.00     0.011 C 
HETATM   19  C16 UNL     1      19.223  35.506  59.841  1.00  0.00    -0.026 C 
BRANCH  19  20
HETATM   20  C17 UNL     1      19.845  35.381  61.244  1.00  0.00     0.022 C 
HETATM   21  C18 UNL     1      21.217  34.767  61.163  1.00  0.00     0.009 C 
ENDBRANCH  19  20
ENDBRANCH   6  18
TORSDOF 9
ENDMDL
MODEL 3
REMARK VINA RESULT: -6.752046693      2.621      4.558
REMARK  9 active torsions:
REMARK  status: ('A' for Active; 'I' for Inactive)
REMARK    1  A    between atoms: C2_2  and  C3_3 
REMARK    2  A    between atoms: C3_3  and  C4_4 
REMARK    3  A    between atoms: C6_6  and  C7_7 
REMARK    4  A    between atoms: C7_7  and  O1_8 
REMARK    5  A    between atoms: C7_7  and  C8_10 
REMARK    6  A    between atoms: C11_13  and  O2_14 
REMARK    7  A    between atoms: O2_14  and  C12_15 
REMARK    8  A    between atoms: C14_17  and  C15_18 
REMARK    9  A    between atoms: C16_19  and  C17_20 
ROOT
HETATM    1  C4  UNL     1      20.820  34.116  58.648  1.00  0.00    -0.041 A 
HETATM    2  C5  UNL     1      22.202  34.408  58.206  1.00  0.00     0.022 A 
HETATM    3  C6  UNL     1      22.358  34.956  56.913  1.00  0.00     0.000 A 
HETATM    4  C10 UNL     1      21.246  35.193  56.171  1.00  0.00     0.052 A 
HETATM    5  C11 UNL     1      19.937  34.919  56.608  1.00  0.00     0.080 A 
HETATM    6  C14 UNL     1      19.810  34.373  57.849  1.00  0.00     0.004 A 
ENDROOT
BRANCH   3   7
HETATM    7  C7  UNL     1      23.632  35.089  56.454  1.00  0.00     0.075 C 
BRANCH   7   8
HETATM    8  O1  UNL     1      24.656  35.435  57.359  1.00  0.00    -0.360 OA
ATOM      9  H1  UNL     1      25.406  35.927  57.045  1.00  0.00     0.217 HD
ENDBRANCH   7   8
BRANCH   7  10
HETATM   10  C8  UNL     1      24.369  34.961  55.157  1.00  0.00     0.027 C 
HETATM   11  C9  UNL     1      25.244  35.662  54.604  1.00  0.00     0.014 C 
ENDBRANCH   7  10
ENDBRANCH   3   7
BRANCH   1  12
HETATM   12  C3  UNL     1      20.742  33.756  60.072  1.00  0.00     0.066 C 
BRANCH  12  13
HETATM   13  C2  UNL     1      20.867  34.884  61.004  1.00  0.00    -0.032 C 
HETATM   14  C1  UNL     1      20.199  35.928  61.276  1.00  0.00     0.007 C 
ENDBRANCH  12  13
ENDBRANCH   1  12
BRANCH   5  15
HETATM   15  O2  UNL     1      18.829  35.208  55.780  1.00  0.00    -0.351 OA
BRANCH  15  16
HETATM   16  C12 UNL     1      18.676  36.625  55.513  1.00  0.00     0.171 C 
HETATM   17  C13 UNL     1      17.410  37.098  56.272  1.00  0.00     0.034 C 
ENDBRANCH  15  16
ENDBRANCH   5  15
BRANCH   6  18
HETATM   18  C15 UNL     1      18.390  33.964  58.200  1.00  0.00     0.011 C 
HETATM   19  C16 UNL     1      17.428  34.375  58.896  1.00  0.00    -0.026 C 
BRANCH  19  20
HETATM   20  C17 UNL     1      16.170  33.488  58.889  1.00  0.00     0.022 C 
HETATM   21  C18 UNL     1      16.310  32.379  57.880  1.00  0.00     0.009 C 
ENDBRANCH  19  20
ENDBRANCH   6  18
TORSDOF 9
ENDMDL
MODEL 4
REMARK VINA RESULT: -6.679631822      2.375      4.525
REMARK  9 active torsions:
REMARK  status: ('A' for Active; 'I' for Inactive)
REMARK    1  A    between atoms: C2_2  and  C3_3 
REMARK    2  A    between atoms: C3_3  and  C4_4 
REMARK    3  A    between atoms: C6_6  and  C7_7 
REMARK    4  A    between atoms: C7_7  and  O1_8 
REMARK    5  A    between atoms: C7_7  and  C8_10 
REMARK    6  A    between atoms: C11_13  and  O2_14 
REMARK    7  A    between atoms: O2_14  and  C12_15 
REMARK    8  A    between atoms: C14_17  and  C15_18 
REMARK    9  A    between atoms: C16_19  and  C17_20 
ROOT
HETATM    1  C4  UNL     1      20.743  34.194  58.745  1.00  0.00    -0.041 A 
HETATM    2  C5  UNL     1      22.135  34.396  58.287  1.00  0.00     0.022 A 
HETATM    3  C6  UNL     1      22.313  35.036  57.040  1.00  0.00     0.000 A 
HETATM    4  C10 UNL     1      21.211  35.433  56.353  1.00  0.00     0.052 A 
HETATM    5  C11 UNL     1      19.892  35.242  56.805  1.00  0.00     0.080 A 
HETATM    6  C14 UNL     1      19.744  34.607  58.000  1.00  0.00     0.004 A 
ENDROOT
BRANCH   3   7
HETATM    7  C7  UNL     1      23.583  35.092  56.556  1.00  0.00     0.075 C 
BRANCH   7   8
HETATM    8  O1  UNL     1      24.628  35.496  57.412  1.00  0.00    -0.360 OA
ATOM      9  H1  UNL     1      24.554  35.328  58.344  1.00  0.00     0.217 HD
ENDBRANCH   7   8
BRANCH   7  10
HETATM   10  C8  UNL     1      24.299  34.823  55.269  1.00  0.00     0.027 C 
HETATM   11  C9  UNL     1      23.968  34.227  54.221  1.00  0.00     0.014 C 
ENDBRANCH   7  10
ENDBRANCH   3   7
BRANCH   1  12
HETATM   12  C3  UNL     1      20.663  33.723  60.136  1.00  0.00     0.066 C 
BRANCH  12  13
HETATM   13  C2  UNL     1      20.986  34.733  61.152  1.00  0.00    -0.032 C 
HETATM   14  C1  UNL     1      20.582  35.899  61.446  1.00  0.00     0.007 C 
ENDBRANCH  12  13
ENDBRANCH   1  12
BRANCH   5  15
HETATM   15  O2  UNL     1      18.797  35.699  56.036  1.00  0.00    -0.351 OA
BRANCH  15  16
HETATM   16  C12 UNL     1      18.849  35.253  54.657  1.00  0.00     0.171 C 
HETATM   17  C13 UNL     1      17.994  33.964  54.563  1.00  0.00     0.034 C 
ENDBRANCH  15  16
ENDBRANCH   5  15
BRANCH   6  18
HETATM   18  C15 UNL     1      18.300  34.298  58.358  1.00  0.00     0.011 C 
HETATM   19  C16 UNL     1      17.489  33.339  58.290  1.00  0.00    -0.026 C 
BRANCH  19  20
HETATM   20  C17 UNL     1      16.071  33.626  58.815  1.00  0.00     0.022 C 
HETATM   21  C18 UNL     1      15.706  35.070  58.595  1.00  0.00     0.009 C 
ENDBRANCH  19  20
ENDBRANCH   6  18
TORSDOF 9
ENDMDL
MODEL 5
REMARK VINA RESULT: -6.621515093      2.687      4.895
REMARK  9 active torsions:
REMARK  status: ('A' for Active; 'I' for Inactive)
REMARK    1  A    between atoms: C2_2  and  C3_3 
REMARK    2  A    between atoms: C3_3  and  C4_4 
REMARK    3  A    between atoms: C6_6  and  C7_7 
REMARK    4  A    between atoms: C7_7  and  O1_8 
REMARK    5  A    between atoms: C7_7  and  C8_10 
REMARK    6  A    between atoms: C11_13  and  O2_14 
REMARK    7  A    between atoms: O2_14  and  C12_15 
REMARK    8  A    between atoms: C14_17  and  C15_18 
REMARK    9  A    between atoms: C16_19  and  C17_20 
ROOT
HETATM    1  C4  UNL     1      19.998  34.658  56.457  1.00  0.00    -0.041 A 
HETATM    2  C5  UNL     1      21.401  34.823  56.018  1.00  0.00     0.022 A 
HETATM    3  C6  UNL     1      22.406  34.589  56.984  1.00  0.00     0.000 A 
HETATM    4  C10 UNL     1      22.028  34.218  58.235  1.00  0.00     0.052 A 
HETATM    5  C11 UNL     1      20.689  34.056  58.636  1.00  0.00     0.080 A 
HETATM    6  C14 UNL     1      19.737  34.305  57.694  1.00  0.00     0.004 A 
ENDROOT
BRANCH   3   7
HETATM    7  C7  UNL     1      23.685  34.878  56.621  1.00  0.00     0.075 C 
BRANCH   7   8
HETATM    8  O1  UNL     1      24.582  35.364  57.593  1.00  0.00    -0.360 OA
ATOM      9  H1  UNL     1      25.202  34.766  57.992  1.00  0.00     0.217 HD
ENDBRANCH   7   8
BRANCH   7  10
HETATM   10  C8  UNL     1      24.531  34.829  55.387  1.00  0.00     0.027 C 
HETATM   11  C9  UNL     1      25.023  35.717  54.657  1.00  0.00     0.014 C 
ENDBRANCH   7  10
ENDBRANCH   3   7
BRANCH   1  12
HETATM   12  C3  UNL     1      19.043  34.709  55.339  1.00  0.00     0.066 C 
BRANCH  12  13
HETATM   13  C2  UNL     1      18.528  36.047  55.024  1.00  0.00    -0.032 C 
HETATM   14  C1  UNL     1      18.067  37.030  55.681  1.00  0.00     0.007 C 
ENDBRANCH  12  13
ENDBRANCH   1  12
BRANCH   5  15
HETATM   15  O2  UNL     1      20.378  33.653  59.954  1.00  0.00    -0.351 OA
BRANCH  15  16
HETATM   16  C12 UNL     1      21.040  34.458  60.963  1.00  0.00     0.171 C 
HETATM   17  C13 UNL     1      20.188  35.739  61.153  1.00  0.00     0.034 C 
ENDBRANCH  15  16
ENDBRANCH   5  15
BRANCH   6  18
HETATM   18  C15 UNL     1      18.316  34.260  58.229  1.00  0.00     0.011 C 
HETATM   19  C16 UNL     1      17.350  33.457  58.293  1.00  0.00    -0.026 C 
BRANCH  19  20
HETATM   20  C17 UNL     1      16.076  33.996  58.968  1.00  0.00     0.022 C 
HETATM   21  C18 UNL     1      15.891  35.458  58.659  1.00  0.00     0.009 C 
ENDBRANCH  19  20
ENDBRANCH   6  18
TORSDOF 9
ENDMDL
