MODEL 1
REMARK VINA RESULT: -6.252399239      0.000      0.000
REMARK  0 active torsions:
REMARK  status: ('A' for Active; 'I' for Inactive)
REMARK       I    between atoms: C1_2  and  N2_4 
ROOT
HETATM    1  N1  UNL     1      -7.386  66.826  16.046  1.00  0.00    -0.039 NA
HETATM    2  C1  UNL     1      -6.957  66.786  14.667  1.00  0.00     0.340 C 
HETATM    3  O1  UNL     1      -7.366  65.843  14.043  1.00  0.00    -0.250 OA
HETATM    4  N2  UNL     1      -6.135  67.828  14.234  1.00  0.00    -0.258 N 
HETATM    5  C2  UNL     1      -5.716  68.874  15.024  1.00  0.00     0.193 A 
HETATM    6  N3  UNL     1      -4.948  69.706  14.341  1.00  0.00    -0.345 N 
ATOM      7  H3  UNL     1      -4.518  70.554  14.709  1.00  0.00     0.167 HD
HETATM    8  C3  UNL     1      -4.831  69.260  13.106  1.00  0.00     0.132 A 
HETATM    9  C4  UNL     1      -4.144  69.768  12.028  1.00  0.00     0.276 A 
HETATM   10  O2  UNL     1      -3.474  70.848  12.130  1.00  0.00    -0.266 OA
HETATM   11  N4  UNL     1      -4.180  69.125  10.869  1.00  0.00    -0.306 N 
ATOM     12  H4  UNL     1      -3.674  69.493  10.064  1.00  0.00     0.170 HD
HETATM   13  C5  UNL     1      -4.898  67.965  10.756  1.00  0.00     0.138 A 
HETATM   14  N5  UNL     1      -5.083  67.148   9.702  1.00  0.00    -0.337 N 
ATOM     15  H5  UNL     1      -4.687  67.285   8.772  1.00  0.00     0.168 HD
HETATM   16  C6  UNL     1      -5.863  66.134  10.064  1.00  0.00     0.182 A 
HETATM   17  N6  UNL     1      -6.173  66.326  11.381  1.00  0.00    -0.347 N 
ATOM     18  H6  UNL     1      -6.760  65.709  11.941  1.00  0.00     0.167 HD
HETATM   19  C7  UNL     1      -5.595  67.437  11.823  1.00  0.00     0.108 A 
HETATM   20  C8  UNL     1      -5.579  68.079  13.041  1.00  0.00     0.107 A 
ENDROOT
TORSDOF 0
ENDMDL
MODEL 2
REMARK VINA RESULT: -6.204920337      1.400      3.889
REMARK  0 active torsions:
REMARK  status: ('A' for Active; 'I' for Inactive)
REMARK       I    between atoms: C1_2  and  N2_4 
ROOT
HETATM    1  N1  UNL     1      -5.069  66.234   8.791  1.00  0.00    -0.039 NA
HETATM    2  C1  UNL     1      -5.533  66.364  10.153  1.00  0.00     0.340 C 
HETATM    3  O1  UNL     1      -6.334  65.532  10.491  1.00  0.00    -0.250 OA
HETATM    4  N2  UNL     1      -5.006  67.419  10.900  1.00  0.00    -0.258 N 
HETATM    5  C2  UNL     1      -4.087  68.329  10.427  1.00  0.00     0.193 A 
HETATM    6  N3  UNL     1      -3.773  69.213  11.359  1.00  0.00    -0.345 N 
ATOM      7  H3  UNL     1      -3.115  69.984  11.248  1.00  0.00     0.167 HD
HETATM    8  C3  UNL     1      -4.451  68.934  12.456  1.00  0.00     0.132 A 
HETATM    9  C4  UNL     1      -4.469  69.554  13.683  1.00  0.00     0.276 A 
HETATM   10  O2  UNL     1      -3.747  70.582  13.907  1.00  0.00    -0.266 OA
HETATM   11  N4  UNL     1      -5.248  69.077  14.644  1.00  0.00    -0.306 N 
ATOM     12  H4  UNL     1      -5.269  69.530  15.557  1.00  0.00     0.170 HD
HETATM   13  C5  UNL     1      -6.023  67.974  14.406  1.00  0.00     0.138 A 
HETATM   14  N5  UNL     1      -6.880  67.316  15.210  1.00  0.00    -0.337 N 
ATOM     15  H5  UNL     1      -7.088  67.561  16.178  1.00  0.00     0.168 HD
HETATM   16  C6  UNL     1      -7.412  66.296  14.544  1.00  0.00     0.182 A 
HETATM   17  N6  UNL     1      -6.871  66.321  13.290  1.00  0.00    -0.347 N 
ATOM     18  H6  UNL     1      -7.087  65.658  12.545  1.00  0.00     0.167 HD
HETATM   19  C7  UNL     1      -6.022  67.336  13.184  1.00  0.00     0.108 A 
HETATM   20  C8  UNL     1      -5.225  67.805  12.164  1.00  0.00     0.107 A 
ENDROOT
TORSDOF 0
ENDMDL
MODEL 3
REMARK VINA RESULT: -5.956282321      1.880      3.379
REMARK  0 active torsions:
REMARK  status: ('A' for Active; 'I' for Inactive)
REMARK       I    between atoms: C1_2  and  N2_4 
ROOT
HETATM    1  N1  UNL     1      -6.886  67.354  16.601  1.00  0.00    -0.039 NA
HETATM    2  C1  UNL     1      -6.142  68.211  15.707  1.00  0.00     0.340 C 
HETATM    3  O1  UNL     1      -5.654  69.178  16.230  1.00  0.00    -0.250 OA
HETATM    4  N2  UNL     1      -6.080  67.820  14.368  1.00  0.00    -0.258 N 
HETATM    5  C2  UNL     1      -6.673  66.689  13.855  1.00  0.00     0.193 A 
HETATM    6  N3  UNL     1      -6.444  66.580  12.558  1.00  0.00    -0.345 N 
ATOM      7  H3  UNL     1      -6.779  65.827  11.957  1.00  0.00     0.167 HD
HETATM    8  C3  UNL     1      -5.711  67.605  12.168  1.00  0.00     0.132 A 
HETATM    9  C4  UNL     1      -5.218  67.937  10.928  1.00  0.00     0.276 A 
HETATM   10  O2  UNL     1      -5.449  67.199   9.913  1.00  0.00    -0.266 OA
HETATM   11  N4  UNL     1      -4.494  69.039  10.787  1.00  0.00    -0.306 N 
ATOM     12  H4  UNL     1      -4.124  69.294   9.871  1.00  0.00     0.170 HD
HETATM   13  C5  UNL     1      -4.244  69.832  11.874  1.00  0.00     0.138 A 
HETATM   14  N5  UNL     1      -3.547  70.979  11.979  1.00  0.00    -0.337 N 
ATOM     15  H5  UNL     1      -3.072  71.455  11.212  1.00  0.00     0.168 HD
HETATM   16  C6  UNL     1      -3.575  71.396  13.241  1.00  0.00     0.182 A 
HETATM   17  N6  UNL     1      -4.310  70.481  13.941  1.00  0.00    -0.347 N 
ATOM     18  H6  UNL     1      -4.509  70.529  14.941  1.00  0.00     0.167 HD
HETATM   19  C7  UNL     1      -4.727  69.520  13.127  1.00  0.00     0.108 A 
HETATM   20  C8  UNL     1      -5.483  68.383  13.308  1.00  0.00     0.107 A 
ENDROOT
TORSDOF 0
ENDMDL
MODEL 4
REMARK VINA RESULT: -5.929225947      1.200      3.766
REMARK  0 active torsions:
REMARK  status: ('A' for Active; 'I' for Inactive)
REMARK       I    between atoms: C1_2  and  N2_4 
ROOT
HETATM    1  N1  UNL     1      -3.224  71.886  14.245  1.00  0.00    -0.039 NA
HETATM    2  C1  UNL     1      -3.640  70.896  13.279  1.00  0.00     0.340 C 
HETATM    3  O1  UNL     1      -3.216  71.071  12.167  1.00  0.00    -0.250 OA
HETATM    4  N2  UNL     1      -4.468  69.873  13.743  1.00  0.00    -0.258 N 
HETATM    5  C2  UNL     1      -4.906  69.750  15.043  1.00  0.00     0.193 A 
HETATM    6  N3  UNL     1      -5.676  68.685  15.185  1.00  0.00    -0.345 N 
ATOM      7  H3  UNL     1      -6.119  68.384  16.053  1.00  0.00     0.167 HD
HETATM    8  C3  UNL     1      -5.778  68.074  14.020  1.00  0.00     0.132 A 
HETATM    9  C4  UNL     1      -6.460  66.937  13.658  1.00  0.00     0.276 A 
HETATM   10  O2  UNL     1      -7.142  66.283  14.515  1.00  0.00    -0.266 OA
HETATM   11  N4  UNL     1      -6.406  66.516  12.402  1.00  0.00    -0.306 N 
ATOM     12  H4  UNL     1      -6.909  65.673  12.123  1.00  0.00     0.170 HD
HETATM   13  C5  UNL     1      -5.675  67.215  11.480  1.00  0.00     0.138 A 
HETATM   14  N5  UNL     1      -5.472  66.989  10.168  1.00  0.00    -0.337 N 
ATOM     15  H5  UNL     1      -5.861  66.210   9.636  1.00  0.00     0.168 HD
HETATM   16  C6  UNL     1      -4.685  67.939   9.676  1.00  0.00     0.182 A 
HETATM   17  N6  UNL     1      -4.389  68.782  10.710  1.00  0.00    -0.347 N 
ATOM     18  H6  UNL     1      -3.800  69.612  10.641  1.00  0.00     0.167 HD
HETATM   19  C7  UNL     1      -4.982  68.358  11.820  1.00  0.00     0.108 A 
HETATM   20  C8  UNL     1      -5.016  68.823  13.115  1.00  0.00     0.107 A 
ENDROOT
TORSDOF 0
ENDMDL
MODEL 5
REMARK VINA RESULT: -5.862722180      1.722      4.653
REMARK  0 active torsions:
REMARK  status: ('A' for Active; 'I' for Inactive)
REMARK       I    between atoms: C1_2  and  N2_4 
ROOT
HETATM    1  N1  UNL     1      -5.104  66.237   8.525  1.00  0.00    -0.039 NA
HETATM    2  C1  UNL     1      -4.802  67.282   9.477  1.00  0.00     0.340 C 
HETATM    3  O1  UNL     1      -4.129  68.178   9.040  1.00  0.00    -0.250 OA
HETATM    4  N2  UNL     1      -5.320  67.128  10.764  1.00  0.00    -0.258 N 
HETATM    5  C2  UNL     1      -6.086  66.062  11.177  1.00  0.00     0.193 A 
HETATM    6  N3  UNL     1      -6.432  66.189  12.446  1.00  0.00    -0.345 N 
ATOM      7  H3  UNL     1      -6.998  65.528  12.977  1.00  0.00     0.167 HD
HETATM    8  C3  UNL     1      -5.924  67.313  12.915  1.00  0.00     0.132 A 
HETATM    9  C4  UNL     1      -6.001  67.882  14.164  1.00  0.00     0.276 A 
HETATM   10  O2  UNL     1      -6.649  67.312  15.103  1.00  0.00    -0.266 OA
HETATM   11  N4  UNL     1      -5.394  69.039  14.393  1.00  0.00    -0.306 N 
ATOM     12  H4  UNL     1      -5.446  69.469  15.316  1.00  0.00     0.170 HD
HETATM   13  C5  UNL     1      -4.699  69.653  13.387  1.00  0.00     0.138 A 
HETATM   14  N5  UNL     1      -4.012  70.812  13.377  1.00  0.00    -0.337 N 
ATOM     15  H5  UNL     1      -3.904  71.441  14.172  1.00  0.00     0.168 HD
HETATM   16  C6  UNL     1      -3.497  71.006  12.167  1.00  0.00     0.182 A 
HETATM   17  N6  UNL     1      -3.874  69.938  11.402  1.00  0.00    -0.347 N 
ATOM     18  H6  UNL     1      -3.628  69.804  10.421  1.00  0.00     0.167 HD
HETATM   19  C7  UNL     1      -4.607  69.102  12.126  1.00  0.00     0.108 A 
HETATM   20  C8  UNL     1      -5.225  67.902  11.854  1.00  0.00     0.107 A 
ENDROOT
TORSDOF 0
ENDMDL
