MODEL 1
REMARK VINA RESULT: -6.797783097      0.000      0.000
REMARK  1 active torsions:
REMARK  status: ('A' for Active; 'I' for Inactive)
REMARK    1  A    between atoms: C4_8  and  N4_9 
ROOT
HETATM    1  N1  UNL     1      -4.441  70.268  15.912  1.00  0.00    -0.191 NA
HETATM    2  C1  UNL     1      -4.661  69.816  14.863  1.00  0.00     0.108 C 
HETATM    3  C2  UNL     1      -4.914  69.233  13.579  1.00  0.00     0.154 A 
HETATM    4  C3  UNL     1      -5.736  68.131  13.504  1.00  0.00     0.158 A 
HETATM    5  N2  UNL     1      -6.299  67.614  14.688  1.00  0.00    -0.080 NA
HETATM    6  N3  UNL     1      -5.946  67.612  12.278  1.00  0.00    -0.177 N 
ATOM      7  H3  UNL     1      -6.550  66.796  12.184  1.00  0.00     0.185 HD
HETATM    8  C4  UNL     1      -5.385  68.137  11.177  1.00  0.00     0.684 A 
HETATM    9  N6  UNL     1      -4.586  69.205  11.238  1.00  0.00    -0.155 N 
ATOM     10  H6  UNL     1      -4.173  69.581  10.384  1.00  0.00     0.187 HD
HETATM   11  C9  UNL     1      -4.318  69.798  12.444  1.00  0.00     0.283 A 
HETATM   12  O1  UNL     1      -3.575  70.804  12.549  1.00  0.00    -0.266 OA
ENDROOT
BRANCH   8  13
HETATM   13  N4  UNL     1      -5.647  67.501   9.942  1.00  0.00    -0.214 N 
HETATM   14  C5  UNL     1      -5.658  66.032   9.915  1.00  0.00     0.168 C 
HETATM   15  C6  UNL     1      -6.843  65.536   9.159  1.00  0.00     0.252 C 
HETATM   16  N5  UNL     1      -6.887  66.152   7.867  1.00  0.00    -0.072 N 
HETATM   17  C7  UNL     1      -5.813  67.073   7.621  1.00  0.00     0.252 C 
ATOM     18  H52 UNL     1      -6.926  65.444   7.133  1.00  0.00     0.277 HD
ATOM     19  H51 UNL     1      -7.788  66.605   7.717  1.00  0.00     0.277 HD
HETATM   20  C8  UNL     1      -5.908  68.176   8.694  1.00  0.00     0.168 C 
ENDBRANCH   8  13
TORSDOF 1
ENDMDL
MODEL 2
REMARK VINA RESULT: -6.784613664      1.294      2.050
REMARK  1 active torsions:
REMARK  status: ('A' for Active; 'I' for Inactive)
REMARK    1  A    between atoms: C4_8  and  N4_9 
ROOT
HETATM    1  N1  UNL     1      -4.428  70.461  15.799  1.00  0.00    -0.191 NA
HETATM    2  C1  UNL     1      -4.630  69.907  14.797  1.00  0.00     0.108 C 
HETATM    3  C2  UNL     1      -4.901  69.249  13.554  1.00  0.00     0.154 A 
HETATM    4  C3  UNL     1      -4.369  69.777  12.398  1.00  0.00     0.158 A 
HETATM    5  N2  UNL     1      -3.581  70.943  12.477  1.00  0.00    -0.080 NA
HETATM    6  N3  UNL     1      -4.648  69.131  11.250  1.00  0.00    -0.177 N 
ATOM      7  H3  UNL     1      -4.271  69.493  10.374  1.00  0.00     0.185 HD
HETATM    8  C4  UNL     1      -5.408  68.024  11.223  1.00  0.00     0.684 A 
HETATM    9  N6  UNL     1      -5.929  67.503  12.337  1.00  0.00    -0.155 N 
ATOM     10  H6  UNL     1      -6.503  66.661  12.285  1.00  0.00     0.187 HD
HETATM   11  C9  UNL     1      -5.695  68.096  13.550  1.00  0.00     0.283 A 
HETATM   12  O1  UNL     1      -6.162  67.641  14.622  1.00  0.00    -0.266 OA
ENDROOT
BRANCH   8  13
HETATM   13  N4  UNL     1      -5.664  67.435   9.963  1.00  0.00    -0.214 N 
HETATM   14  C5  UNL     1      -5.678  65.968   9.882  1.00  0.00     0.168 C 
HETATM   15  C6  UNL     1      -6.859  65.503   9.101  1.00  0.00     0.252 C 
HETATM   16  N5  UNL     1      -6.894  66.167   7.832  1.00  0.00    -0.072 N 
HETATM   17  C7  UNL     1      -5.817  67.093   7.627  1.00  0.00     0.252 C 
ATOM     18  H52 UNL     1      -6.930  65.486   7.073  1.00  0.00     0.277 HD
ATOM     19  H51 UNL     1      -7.793  66.626   7.693  1.00  0.00     0.277 HD
HETATM   20  C8  UNL     1      -5.916  68.156   8.739  1.00  0.00     0.168 C 
ENDBRANCH   8  13
TORSDOF 1
ENDMDL
MODEL 3
REMARK VINA RESULT: -6.491912409      1.018      1.088
REMARK  1 active torsions:
REMARK  status: ('A' for Active; 'I' for Inactive)
REMARK    1  A    between atoms: C4_8  and  N4_9 
ROOT
HETATM    1  N1  UNL     1      -5.757  69.160  16.745  1.00  0.00    -0.191 NA
HETATM    2  C1  UNL     1      -5.753  68.846  15.625  1.00  0.00     0.108 C 
HETATM    3  C2  UNL     1      -5.731  68.432  14.254  1.00  0.00     0.154 A 
HETATM    4  C3  UNL     1      -6.466  67.328  13.885  1.00  0.00     0.158 A 
HETATM    5  N2  UNL     1      -7.214  66.644  14.864  1.00  0.00    -0.080 NA
HETATM    6  N3  UNL     1      -6.417  66.970  12.587  1.00  0.00    -0.177 N 
ATOM      7  H3  UNL     1      -6.949  66.158  12.277  1.00  0.00     0.185 HD
HETATM    8  C4  UNL     1      -5.687  67.651  11.689  1.00  0.00     0.684 A 
HETATM    9  N6  UNL     1      -4.969  68.724  12.035  1.00  0.00    -0.155 N 
ATOM     10  H6  UNL     1      -4.425  69.220  11.330  1.00  0.00     0.187 HD
HETATM   11  C9  UNL     1      -4.963  69.158  13.334  1.00  0.00     0.283 A 
HETATM   12  O1  UNL     1      -4.306  70.161  13.705  1.00  0.00    -0.266 OA
ENDROOT
BRANCH   8  13
HETATM   13  N4  UNL     1      -5.681  67.179  10.356  1.00  0.00    -0.214 N 
HETATM   14  C5  UNL     1      -5.781  65.728  10.143  1.00  0.00     0.168 C 
HETATM   15  C6  UNL     1      -6.775  65.429   9.073  1.00  0.00     0.252 C 
HETATM   16  N5  UNL     1      -6.461  66.181   7.895  1.00  0.00    -0.072 N 
HETATM   17  C7  UNL     1      -5.303  67.018   8.026  1.00  0.00     0.252 C 
ATOM     18  H52 UNL     1      -6.366  65.561   7.090  1.00  0.00     0.277 HD
ATOM     19  H51 UNL     1      -7.267  66.729   7.596  1.00  0.00     0.277 HD
HETATM   20  C8  UNL     1      -5.585  68.004   9.177  1.00  0.00     0.168 C 
ENDBRANCH   8  13
TORSDOF 1
ENDMDL
MODEL 4
REMARK VINA RESULT: -6.442893028      2.199      2.715
REMARK  1 active torsions:
REMARK  status: ('A' for Active; 'I' for Inactive)
REMARK    1  A    between atoms: C4_8  and  N4_9 
ROOT
HETATM    1  N1  UNL     1      -6.733  68.170  17.083  1.00  0.00    -0.191 NA
HETATM    2  C1  UNL     1      -6.502  67.948  15.965  1.00  0.00     0.108 C 
HETATM    3  C2  UNL     1      -6.237  67.701  14.579  1.00  0.00     0.154 A 
HETATM    4  C3  UNL     1      -5.386  68.551  13.908  1.00  0.00     0.158 A 
HETATM    5  N2  UNL     1      -4.807  69.631  14.603  1.00  0.00    -0.080 NA
HETATM    6  N3  UNL     1      -5.165  68.286  12.606  1.00  0.00    -0.177 N 
ATOM      7  H3  UNL     1      -4.540  68.893  12.076  1.00  0.00     0.185 HD
HETATM    8  C4  UNL     1      -5.742  67.245  11.983  1.00  0.00     0.684 A 
HETATM    9  N6  UNL     1      -6.568  66.414  12.624  1.00  0.00    -0.155 N 
ATOM     10  H6  UNL     1      -6.992  65.633  12.124  1.00  0.00     0.187 HD
HETATM   11  C9  UNL     1      -6.849  66.609  13.950  1.00  0.00     0.283 A 
HETATM   12  O1  UNL     1      -7.618  65.854  14.593  1.00  0.00    -0.266 OA
ENDROOT
BRANCH   8  13
HETATM   13  N4  UNL     1      -5.465  67.069  10.608  1.00  0.00    -0.214 N 
HETATM   14  C5  UNL     1      -5.539  65.706  10.063  1.00  0.00     0.168 C 
HETATM   15  C6  UNL     1      -6.293  65.702   8.777  1.00  0.00     0.252 C 
HETATM   16  N5  UNL     1      -5.730  66.668   7.882  1.00  0.00    -0.072 N 
HETATM   17  C7  UNL     1      -4.612  67.387   8.424  1.00  0.00     0.252 C 
ATOM     18  H52 UNL     1      -5.478  66.230   6.995  1.00  0.00     0.277 HD
ATOM     19  H51 UNL     1      -6.448  67.315   7.557  1.00  0.00     0.277 HD
HETATM   20  C8  UNL     1      -5.113  68.120   9.684  1.00  0.00     0.168 C 
ENDBRANCH   8  13
TORSDOF 1
ENDMDL
MODEL 5
REMARK VINA RESULT: -6.354855018      2.010      2.587
REMARK  1 active torsions:
REMARK  status: ('A' for Active; 'I' for Inactive)
REMARK    1  A    between atoms: C4_8  and  N4_9 
ROOT
HETATM    1  N1  UNL     1      -7.398  67.804  17.270  1.00  0.00    -0.191 NA
HETATM    2  C1  UNL     1      -6.974  67.791  16.187  1.00  0.00     0.108 C 
HETATM    3  C2  UNL     1      -6.434  67.748  14.862  1.00  0.00     0.154 A 
HETATM    4  C3  UNL     1      -6.849  66.748  14.011  1.00  0.00     0.158 A 
HETATM    5  N2  UNL     1      -7.788  65.803  14.471  1.00  0.00    -0.080 NA
HETATM    6  N3  UNL     1      -6.316  66.741  12.774  1.00  0.00    -0.177 N 
ATOM      7  H3  UNL     1      -6.601  66.015  12.116  1.00  0.00     0.185 HD
HETATM    8  C4  UNL     1      -5.421  67.661  12.380  1.00  0.00     0.684 A 
HETATM    9  N6  UNL     1      -5.010  68.636  13.196  1.00  0.00    -0.155 N 
ATOM     10  H6  UNL     1      -4.329  69.320  12.868  1.00  0.00     0.187 HD
HETATM   11  C9  UNL     1      -5.502  68.718  14.472  1.00  0.00     0.283 A 
HETATM   12  O1  UNL     1      -5.147  69.617  15.273  1.00  0.00    -0.266 OA
ENDROOT
BRANCH   8  13
HETATM   13  N4  UNL     1      -4.901  67.551  11.070  1.00  0.00    -0.214 N 
HETATM   14  C5  UNL     1      -5.808  67.087  10.009  1.00  0.00     0.168 C 
HETATM   15  C6  UNL     1      -5.673  67.948   8.800  1.00  0.00     0.252 C 
HETATM   16  N5  UNL     1      -4.296  68.025   8.410  1.00  0.00    -0.072 N 
HETATM   17  C7  UNL     1      -3.406  67.281   9.255  1.00  0.00     0.252 C 
ATOM     18  H52 UNL     1      -4.184  67.744   7.436  1.00  0.00     0.277 HD
ATOM     19  H51 UNL     1      -3.998  68.998   8.344  1.00  0.00     0.277 HD
HETATM   20  C8  UNL     1      -3.547  67.857  10.679  1.00  0.00     0.168 C 
ENDBRANCH   8  13
TORSDOF 1
ENDMDL
