MODEL 1
REMARK VINA RESULT: -7.322588578      0.000      0.000
REMARK  1 active torsions:
REMARK  status: ('A' for Active; 'I' for Inactive)
REMARK    1  A    between atoms: C5_11  and  C6_12 
ROOT
HETATM    1  O1  UNL     1      -7.255  64.861   8.795  1.00  0.00    -0.245 OA
HETATM    2  C1  UNL     1      -6.506  65.845   9.126  1.00  0.00     0.342 A 
HETATM    3  N1  UNL     1      -5.767  66.488   8.225  1.00  0.00    -0.271 N 
ATOM      4  H1  UNL     1      -5.787  66.203   7.246  1.00  0.00     0.174 HD
HETATM    5  C2  UNL     1      -4.998  67.512   8.614  1.00  0.00     0.295 A 
HETATM    6  O2  UNL     1      -4.306  68.108   7.738  1.00  0.00    -0.264 OA
HETATM    7  C3  UNL     1      -4.977  67.887   9.936  1.00  0.00     0.197 A 
HETATM    8  N2  UNL     1      -4.302  68.864  10.574  1.00  0.00    -0.344 N 
ATOM      9  H2  UNL     1      -3.653  69.528  10.152  1.00  0.00     0.167 HD
HETATM   10  C4  UNL     1      -4.643  68.799  11.864  1.00  0.00     0.122 A 
HETATM   11  C5  UNL     1      -5.563  67.755  12.082  1.00  0.00     0.087 A 
HETATM   12  N5  UNL     1      -5.733  67.229  10.861  1.00  0.00    -0.229 N 
HETATM   13  N6  UNL     1      -6.463  66.237  10.412  1.00  0.00    -0.242 N 
ATOM     14  H6  UNL     1      -7.038  65.727  11.084  1.00  0.00     0.192 HD
ENDROOT
BRANCH  11  15
HETATM   15  C6  UNL     1      -6.141  67.405  13.367  1.00  0.00     0.028 A 
HETATM   16  C7  UNL     1      -6.919  66.357  13.762  1.00  0.00     0.122 A 
HETATM   17  N3  UNL     1      -7.194  66.504  15.102  1.00  0.00    -0.311 N 
HETATM   18  N4  UNL     1      -6.614  67.599  15.531  1.00  0.00    -0.311 N 
ATOM     19  H3  UNL     1      -7.754  65.867  15.668  1.00  0.00     0.186 HD
HETATM   20  C8  UNL     1      -5.965  68.175  14.515  1.00  0.00     0.122 A 
ATOM     21  H4  UNL     1      -6.652  67.954  16.487  1.00  0.00     0.186 HD
ENDBRANCH  11  15
TORSDOF 1
ENDMDL
MODEL 2
REMARK VINA RESULT: -7.253963693      2.500      4.853
REMARK  1 active torsions:
REMARK  status: ('A' for Active; 'I' for Inactive)
REMARK    1  A    between atoms: C5_11  and  C6_12 
ROOT
HETATM    1  O1  UNL     1      -7.027  66.789  14.464  1.00  0.00    -0.245 OA
HETATM    2  C1  UNL     1      -6.219  67.326  13.630  1.00  0.00     0.342 A 
HETATM    3  N1  UNL     1      -5.468  68.372  13.966  1.00  0.00    -0.271 N 
ATOM      4  H1  UNL     1      -5.527  68.766  14.905  1.00  0.00     0.174 HD
HETATM    5  C2  UNL     1      -4.636  68.904  13.063  1.00  0.00     0.295 A 
HETATM    6  O2  UNL     1      -3.933  69.896  13.408  1.00  0.00    -0.264 OA
HETATM    7  C3  UNL     1      -4.566  68.366  11.800  1.00  0.00     0.197 A 
HETATM    8  N2  UNL     1      -3.825  68.707  10.726  1.00  0.00    -0.344 N 
ATOM      9  H2  UNL     1      -3.151  69.471  10.673  1.00  0.00     0.167 HD
HETATM   10  C4  UNL     1      -4.140  67.856   9.746  1.00  0.00     0.122 A 
HETATM   11  C5  UNL     1      -5.110  66.934  10.181  1.00  0.00     0.087 A 
HETATM   12  N5  UNL     1      -5.334  67.294  11.453  1.00  0.00    -0.229 N 
HETATM   13  N6  UNL     1      -6.127  66.823  12.385  1.00  0.00    -0.242 N 
ATOM     14  H6  UNL     1      -6.713  66.022  12.151  1.00  0.00     0.192 HD
ENDROOT
BRANCH  11  15
HETATM   15  C6  UNL     1      -5.677  65.871   9.370  1.00  0.00     0.028 A 
HETATM   16  C7  UNL     1      -5.511  64.518   9.394  1.00  0.00     0.122 A 
HETATM   17  N3  UNL     1      -6.289  63.969   8.401  1.00  0.00    -0.311 N 
HETATM   18  N4  UNL     1      -6.917  64.937   7.779  1.00  0.00    -0.311 N 
ATOM     19  H3  UNL     1      -6.365  62.975   8.185  1.00  0.00     0.186 HD
HETATM   20  C8  UNL     1      -6.577  66.104   8.333  1.00  0.00     0.122 A 
ATOM     21  H4  UNL     1      -7.561  64.818   6.997  1.00  0.00     0.186 HD
ENDBRANCH  11  15
TORSDOF 1
ENDMDL
MODEL 3
REMARK VINA RESULT: -6.980229287      2.093      3.464
REMARK  1 active torsions:
REMARK  status: ('A' for Active; 'I' for Inactive)
REMARK    1  A    between atoms: C5_11  and  C6_12 
ROOT
HETATM    1  O1  UNL     1      -6.103  68.101   6.555  1.00  0.00    -0.245 OA
HETATM    2  C1  UNL     1      -6.148  67.447   7.655  1.00  0.00     0.342 A 
HETATM    3  N1  UNL     1      -6.516  66.168   7.687  1.00  0.00    -0.271 N 
ATOM      4  H1  UNL     1      -6.770  65.685   6.825  1.00  0.00     0.174 HD
HETATM    5  C2  UNL     1      -6.549  65.522   8.858  1.00  0.00     0.295 A 
HETATM    6  O2  UNL     1      -6.900  64.307   8.862  1.00  0.00    -0.264 OA
HETATM    7  C3  UNL     1      -6.206  66.184  10.013  1.00  0.00     0.197 A 
HETATM    8  N2  UNL     1      -6.157  65.770  11.296  1.00  0.00    -0.344 N 
ATOM      9  H2  UNL     1      -6.383  64.837  11.641  1.00  0.00     0.167 HD
HETATM   10  C4  UNL     1      -5.758  66.813  12.029  1.00  0.00     0.122 A 
HETATM   11  C5  UNL     1      -5.540  67.939  11.213  1.00  0.00     0.087 A 
HETATM   12  N5  UNL     1      -5.829  67.494   9.983  1.00  0.00    -0.229 N 
HETATM   13  N6  UNL     1      -5.818  68.066   8.803  1.00  0.00    -0.242 N 
ATOM     14  H6  UNL     1      -5.541  69.047   8.752  1.00  0.00     0.192 HD
ENDROOT
BRANCH  11  15
HETATM   15  C6  UNL     1      -5.100  69.241  11.684  1.00  0.00     0.028 A 
HETATM   16  C7  UNL     1      -5.629  70.109  12.592  1.00  0.00     0.122 A 
HETATM   17  N3  UNL     1      -4.807  71.210  12.667  1.00  0.00    -0.311 N 
HETATM   18  N4  UNL     1      -3.804  71.041  11.841  1.00  0.00    -0.311 N 
ATOM     19  H3  UNL     1      -4.954  72.022  13.266  1.00  0.00     0.186 HD
HETATM   20  C8  UNL     1      -3.940  69.862  11.226  1.00  0.00     0.122 A 
ATOM     21  H4  UNL     1      -3.042  71.702  11.691  1.00  0.00     0.186 HD
ENDBRANCH  11  15
TORSDOF 1
ENDMDL
MODEL 4
REMARK VINA RESULT: -6.702880439      1.988      3.522
REMARK  1 active torsions:
REMARK  status: ('A' for Active; 'I' for Inactive)
REMARK    1  A    between atoms: C5_11  and  C6_12 
ROOT
HETATM    1  O1  UNL     1      -4.135  68.220   7.687  1.00  0.00    -0.245 OA
HETATM    2  C1  UNL     1      -4.640  67.728   8.755  1.00  0.00     0.342 A 
HETATM    3  N1  UNL     1      -5.122  66.488   8.787  1.00  0.00    -0.271 N 
ATOM      4  H1  UNL     1      -5.096  65.905   7.951  1.00  0.00     0.174 HD
HETATM    5  C2  UNL     1      -5.640  66.012   9.926  1.00  0.00     0.295 A 
HETATM    6  O2  UNL     1      -6.090  64.830   9.931  1.00  0.00    -0.264 OA
HETATM    7  C3  UNL     1      -5.671  66.807  11.046  1.00  0.00     0.197 A 
HETATM    8  N2  UNL     1      -6.130  66.573  12.292  1.00  0.00    -0.344 N 
ATOM      9  H2  UNL     1      -6.558  65.710  12.629  1.00  0.00     0.167 HD
HETATM   10  C4  UNL     1      -5.919  67.683  13.004  1.00  0.00     0.122 A 
HETATM   11  C5  UNL     1      -5.308  68.672  12.210  1.00  0.00     0.087 A 
HETATM   12  N5  UNL     1      -5.178  68.078  11.016  1.00  0.00    -0.229 N 
HETATM   13  N6  UNL     1      -4.685  68.480   9.870  1.00  0.00    -0.242 N 
ATOM     14  H6  UNL     1      -4.310  69.428   9.819  1.00  0.00     0.192 HD
ENDROOT
BRANCH  11  15
HETATM   15  C6  UNL     1      -4.937  70.001  12.666  1.00  0.00     0.028 A 
HETATM   16  C7  UNL     1      -3.756  70.680  12.633  1.00  0.00     0.122 A 
HETATM   17  N3  UNL     1      -3.953  71.918  13.202  1.00  0.00    -0.311 N 
HETATM   18  N4  UNL     1      -5.206  72.011  13.578  1.00  0.00    -0.311 N 
ATOM     19  H3  UNL     1      -3.243  72.642  13.313  1.00  0.00     0.186 HD
HETATM   20  C8  UNL     1      -5.838  70.875  13.272  1.00  0.00     0.122 A 
ATOM     21  H4  UNL     1      -5.630  72.821  14.031  1.00  0.00     0.186 HD
ENDBRANCH  11  15
TORSDOF 1
ENDMDL
MODEL 5
REMARK VINA RESULT: -6.425911342      2.703      5.081
REMARK  1 active torsions:
REMARK  status: ('A' for Active; 'I' for Inactive)
REMARK    1  A    between atoms: C5_11  and  C6_12 
ROOT
HETATM    1  O1  UNL     1      -7.800  65.628  14.518  1.00  0.00    -0.245 OA
HETATM    2  C1  UNL     1      -7.001  66.571  14.186  1.00  0.00     0.342 A 
HETATM    3  N1  UNL     1      -6.529  67.430  15.087  1.00  0.00    -0.271 N 
ATOM      4  H1  UNL     1      -6.801  67.348  16.066  1.00  0.00     0.174 HD
HETATM    5  C2  UNL     1      -5.695  68.401  14.697  1.00  0.00     0.295 A 
HETATM    6  O2  UNL     1      -5.260  69.204  15.572  1.00  0.00    -0.264 OA
HETATM    7  C3  UNL     1      -5.336  68.502  13.374  1.00  0.00     0.197 A 
HETATM    8  N2  UNL     1      -4.528  69.372  12.734  1.00  0.00    -0.344 N 
ATOM      9  H2  UNL     1      -4.017  70.148  13.156  1.00  0.00     0.167 HD
HETATM   10  C4  UNL     1      -4.521  69.025  11.444  1.00  0.00     0.122 A 
HETATM   11  C5  UNL     1      -5.343  67.903  11.228  1.00  0.00     0.087 A 
HETATM   12  N5  UNL     1      -5.818  67.623  12.449  1.00  0.00    -0.229 N 
HETATM   13  N6  UNL     1      -6.630  66.697  12.899  1.00  0.00    -0.242 N 
ATOM     14  H6  UNL     1      -7.006  66.027  12.228  1.00  0.00     0.192 HD
ENDROOT
BRANCH  11  15
HETATM   15  C6  UNL     1      -5.564  67.263   9.942  1.00  0.00     0.028 A 
HETATM   16  C7  UNL     1      -5.871  65.979   9.603  1.00  0.00     0.122 A 
HETATM   17  N3  UNL     1      -5.972  65.906   8.233  1.00  0.00    -0.311 N 
HETATM   18  N4  UNL     1      -5.738  67.094   7.732  1.00  0.00    -0.311 N 
ATOM     19  H3  UNL     1      -6.194  65.067   7.696  1.00  0.00     0.186 HD
HETATM   20  C8  UNL     1      -5.487  67.947   8.730  1.00  0.00     0.122 A 
ATOM     21  H4  UNL     1      -5.745  67.331   6.740  1.00  0.00     0.186 HD
ENDBRANCH  11  15
TORSDOF 1
ENDMDL
