MODEL 1
REMARK VINA RESULT: -8.668579858      0.000      0.000
REMARK  9 active torsions:
REMARK  status: ('A' for Active; 'I' for Inactive)
REMARK    1  A    between atoms: C2_2  and  C3_3 
REMARK    2  A    between atoms: C3_3  and  C5_5 
REMARK    3  A    between atoms: C5_5  and  O2_7 
REMARK    4  A    between atoms: O2_7  and  C6_8 
REMARK    5  A    between atoms: C7_9  and  O3_10 
REMARK    6  A    between atoms: C10_15  and  C11_16 
REMARK    7  A    between atoms: C12_17  and  C13_18 
REMARK    8  A    between atoms: C25_31  and  C27_33 
REMARK    9  A    between atoms: C27_33  and  O6_34 
ROOT
HETATM    1  C6  UNL     1      10.942  25.188   6.968  1.00  0.00     0.169 C 
HETATM    2  C7  UNL     1      12.192  24.483   7.434  1.00  0.00     0.155 C 
HETATM    3  C8  UNL     1      12.315  23.248   6.601  1.00  0.00     0.052 C 
HETATM    4  C9  UNL     1      13.143  22.173   7.158  1.00  0.00     0.140 C 
HETATM    5  O4  UNL     1      14.045  22.501   8.172  1.00  0.00    -0.375 OA
HETATM    6  C10 UNL     1      14.779  21.371   7.739  1.00  0.00     0.155 C 
HETATM    7  C20 UNL     1      14.316  21.746   6.336  1.00  0.00     0.012 C 
HETATM    8  C21 UNL     1      14.099  20.554   5.446  1.00  0.00     0.021 C 
HETATM    9  C22 UNL     1      15.024  22.914   5.761  1.00  0.00     0.015 C 
HETATM   10  C23 UNL     1      14.186  23.904   5.040  1.00  0.00     0.007 C 
HETATM   11  C24 UNL     1      12.694  23.659   5.173  1.00  0.00     0.006 C 
HETATM   12  C25 UNL     1      11.859  24.742   4.642  1.00  0.00    -0.009 C 
HETATM   13  C26 UNL     1      12.712  25.864   4.048  1.00  0.00     0.018 C 
HETATM   14  C28 UNL     1      10.774  25.278   5.508  1.00  0.00    -0.009 C 
HETATM   15  C29 UNL     1      10.613  26.767   5.149  1.00  0.00     0.018 C 
HETATM   16  C30 UNL     1       9.411  24.700   5.152  1.00  0.00     0.018 C 
ENDROOT
BRANCH   6  17
HETATM   17  C11 UNL     1      16.217  21.427   7.993  1.00  0.00     0.005 C 
HETATM   18  C12 UNL     1      16.804  20.458   8.679  1.00  0.00     0.009 C 
BRANCH  18  19
HETATM   19  C13 UNL     1      18.270  20.458   8.970  1.00  0.00     0.075 C 
HETATM   20  C14 UNL     1      18.836  19.109   8.588  1.00  0.00     0.050 C 
HETATM   21  C15 UNL     1      18.915  21.504   8.130  1.00  0.00     0.042 C 
HETATM   22  C16 UNL     1      20.311  21.861   8.579  1.00  0.00     0.006 C 
HETATM   23  C17 UNL     1      20.438  21.883  10.085  1.00  0.00     0.032 C 
HETATM   24  C18 UNL     1      19.845  20.588  10.598  1.00  0.00     0.119 C 
HETATM   25  C19 UNL     1      20.145  20.362  12.062  1.00  0.00     0.039 C 
HETATM   26  O5  UNL     1      18.485  20.627  10.332  1.00  0.00    -0.372 OA
ENDBRANCH  18  19
ENDBRANCH   6  17
BRANCH   2  27
HETATM   27  O3  UNL     1      13.315  25.284   7.438  1.00  0.00    -0.392 OA
ATOM     28  H3  UNL     1      13.260  26.017   8.039  1.00  0.00     0.210 HD
ENDBRANCH   2  27
BRANCH   1  29
HETATM   29  O2  UNL     1      10.968  26.481   7.595  1.00  0.00    -0.312 OA
BRANCH  29  30
HETATM   30  C5  UNL     1      10.280  26.742   8.771  1.00  0.00     0.263 C 
HETATM   31  O1  UNL     1      10.777  26.266   9.817  1.00  0.00    -0.265 OA
BRANCH  30  32
HETATM   32  C3  UNL     1       9.038  27.525   8.837  1.00  0.00     0.081 C 
HETATM   33  C4  UNL     1       7.925  26.927   8.009  1.00  0.00     0.020 C 
BRANCH  32  34
HETATM   34  C2  UNL     1       9.215  28.954   8.391  1.00  0.00     0.010 C 
HETATM   35  C1  UNL     1       8.319  29.330   7.253  1.00  0.00     0.006 C 
ENDBRANCH  32  34
ENDBRANCH  30  32
ENDBRANCH  29  30
ENDBRANCH   1  29
BRANCH  12  36
HETATM   36  C27 UNL     1      11.162  24.209   3.369  1.00  0.00     0.174 C 
BRANCH  36  37
HETATM   37  O6  UNL     1      11.707  24.975   2.323  1.00  0.00    -0.400 OA
ATOM     38  H6  UNL     1      11.557  24.453   1.543  1.00  0.00     0.209 HD
ENDBRANCH  36  37
ENDBRANCH  12  36
TORSDOF 9
ENDMDL
MODEL 2
REMARK VINA RESULT: -8.653170827      2.813      4.816
REMARK  9 active torsions:
REMARK  status: ('A' for Active; 'I' for Inactive)
REMARK    1  A    between atoms: C2_2  and  C3_3 
REMARK    2  A    between atoms: C3_3  and  C5_5 
REMARK    3  A    between atoms: C5_5  and  O2_7 
REMARK    4  A    between atoms: O2_7  and  C6_8 
REMARK    5  A    between atoms: C7_9  and  O3_10 
REMARK    6  A    between atoms: C10_15  and  C11_16 
REMARK    7  A    between atoms: C12_17  and  C13_18 
REMARK    8  A    between atoms: C25_31  and  C27_33 
REMARK    9  A    between atoms: C27_33  and  O6_34 
ROOT
HETATM    1  C6  UNL     1       7.133  26.712   4.709  1.00  0.00     0.169 C 
HETATM    2  C7  UNL     1       8.475  26.092   5.009  1.00  0.00     0.155 C 
HETATM    3  C8  UNL     1       8.684  25.023   3.985  1.00  0.00     0.052 C 
HETATM    4  C9  UNL     1       9.653  23.979   4.332  1.00  0.00     0.140 C 
HETATM    5  O4  UNL     1      10.569  24.247   5.351  1.00  0.00    -0.375 OA
HETATM    6  C10 UNL     1      11.396  23.290   4.716  1.00  0.00     0.155 C 
HETATM    7  C20 UNL     1      10.819  23.821   3.410  1.00  0.00     0.012 C 
HETATM    8  C21 UNL     1      10.682  22.763   2.349  1.00  0.00     0.021 C 
HETATM    9  C22 UNL     1      11.364  25.137   3.002  1.00  0.00     0.015 C 
HETATM   10  C23 UNL     1      10.385  26.124   2.480  1.00  0.00     0.007 C 
HETATM   11  C24 UNL     1       8.938  25.691   2.628  1.00  0.00     0.006 C 
HETATM   12  C25 UNL     1       7.962  26.739   2.309  1.00  0.00    -0.009 C 
HETATM   13  C26 UNL     1       8.656  28.030   1.869  1.00  0.00     0.018 C 
HETATM   14  C28 UNL     1       6.875  27.006   3.289  1.00  0.00    -0.009 C 
HETATM   15  C29 UNL     1       6.535  28.504   3.179  1.00  0.00     0.018 C 
HETATM   16  C30 UNL     1       5.565  26.337   2.897  1.00  0.00     0.018 C 
ENDROOT
BRANCH   6  17
HETATM   17  C11 UNL     1      12.831  23.471   4.921  1.00  0.00     0.005 C 
HETATM   18  C12 UNL     1      13.503  22.617   5.678  1.00  0.00     0.009 C 
BRANCH  18  19
HETATM   19  C13 UNL     1      14.971  22.749   5.924  1.00  0.00     0.075 C 
HETATM   20  C14 UNL     1      15.590  23.486   4.758  1.00  0.00     0.050 C 
HETATM   21  C15 UNL     1      15.170  23.553   7.161  1.00  0.00     0.042 C 
HETATM   22  C16 UNL     1      16.567  23.458   7.723  1.00  0.00     0.006 C 
HETATM   23  C17 UNL     1      17.138  22.064   7.601  1.00  0.00     0.032 C 
HETATM   24  C18 UNL     1      16.927  21.624   6.168  1.00  0.00     0.119 C 
HETATM   25  C19 UNL     1      17.684  20.358   5.842  1.00  0.00     0.039 C 
HETATM   26  O5  UNL     1      15.559  21.491   5.978  1.00  0.00    -0.372 OA
ENDBRANCH  18  19
ENDBRANCH   6  17
BRANCH   2  27
HETATM   27  O3  UNL     1       9.503  27.007   5.099  1.00  0.00    -0.392 OA
ATOM     28  H3  UNL     1      10.014  27.089   4.302  1.00  0.00     0.210 HD
ENDBRANCH   2  27
BRANCH   1  29
HETATM   29  O2  UNL     1       7.053  27.887   5.533  1.00  0.00    -0.312 OA
BRANCH  29  30
HETATM   30  C5  UNL     1       6.649  27.830   6.858  1.00  0.00     0.263 C 
HETATM   31  O1  UNL     1       5.465  27.473   7.057  1.00  0.00    -0.265 OA
BRANCH  30  32
HETATM   32  C3  UNL     1       7.518  28.161   7.996  1.00  0.00     0.081 C 
HETATM   33  C4  UNL     1       8.486  29.278   7.687  1.00  0.00     0.020 C 
BRANCH  32  34
HETATM   34  C2  UNL     1       8.325  26.985   8.483  1.00  0.00     0.010 C 
HETATM   35  C1  UNL     1       9.778  27.300   8.657  1.00  0.00     0.006 C 
ENDBRANCH  32  34
ENDBRANCH  30  32
ENDBRANCH  29  30
ENDBRANCH   1  29
BRANCH  12  36
HETATM   36  C27 UNL     1       7.258  26.332   0.993  1.00  0.00     0.174 C 
BRANCH  36  37
HETATM   37  O6  UNL     1       7.712  27.269   0.047  1.00  0.00    -0.400 OA
ATOM     38  H6  UNL     1       7.391  26.940  -0.785  1.00  0.00     0.209 HD
ENDBRANCH  36  37
ENDBRANCH  12  36
TORSDOF 9
ENDMDL
MODEL 3
REMARK VINA RESULT: -8.468941701      2.560      9.271
REMARK  9 active torsions:
REMARK  status: ('A' for Active; 'I' for Inactive)
REMARK    1  A    between atoms: C2_2  and  C3_3 
REMARK    2  A    between atoms: C3_3  and  C5_5 
REMARK    3  A    between atoms: C5_5  and  O2_7 
REMARK    4  A    between atoms: O2_7  and  C6_8 
REMARK    5  A    between atoms: C7_9  and  O3_10 
REMARK    6  A    between atoms: C10_15  and  C11_16 
REMARK    7  A    between atoms: C12_17  and  C13_18 
REMARK    8  A    between atoms: C25_31  and  C27_33 
REMARK    9  A    between atoms: C27_33  and  O6_34 
ROOT
HETATM    1  C6  UNL     1      18.271  19.840   6.024  1.00  0.00     0.169 C 
HETATM    2  C7  UNL     1      17.161  20.825   6.296  1.00  0.00     0.155 C 
HETATM    3  C8  UNL     1      16.584  21.190   4.966  1.00  0.00     0.052 C 
HETATM    4  C9  UNL     1      15.843  22.453   4.910  1.00  0.00     0.140 C 
HETATM    5  O4  UNL     1      15.393  23.003   6.112  1.00  0.00    -0.375 OA
HETATM    6  C10 UNL     1      14.398  23.634   5.329  1.00  0.00     0.155 C 
HETATM    7  C20 UNL     1      14.412  22.365   4.486  1.00  0.00     0.012 C 
HETATM    8  C21 UNL     1      14.139  22.618   3.029  1.00  0.00     0.021 C 
HETATM    9  C22 UNL     1      13.732  21.213   5.123  1.00  0.00     0.015 C 
HETATM   10  C23 UNL     1      14.416  19.900   5.011  1.00  0.00     0.007 C 
HETATM   11  C24 UNL     1      15.812  19.982   4.422  1.00  0.00     0.006 C 
HETATM   12  C25 UNL     1      16.570  18.728   4.500  1.00  0.00    -0.009 C 
HETATM   13  C26 UNL     1      15.742  17.615   5.143  1.00  0.00     0.018 C 
HETATM   14  C28 UNL     1      17.949  18.778   5.055  1.00  0.00    -0.009 C 
HETATM   15  C29 UNL     1      18.198  17.425   5.749  1.00  0.00     0.018 C 
HETATM   16  C30 UNL     1      19.012  18.794   3.965  1.00  0.00     0.018 C 
ENDROOT
BRANCH   6  17
HETATM   17  C11 UNL     1      13.154  23.943   6.030  1.00  0.00     0.005 C 
HETATM   18  C12 UNL     1      12.523  25.082   5.786  1.00  0.00     0.009 C 
BRANCH  18  19
HETATM   19  C13 UNL     1      11.248  25.453   6.470  1.00  0.00     0.075 C 
HETATM   20  C14 UNL     1      10.279  24.299   6.342  1.00  0.00     0.050 C 
HETATM   21  C15 UNL     1      11.537  25.678   7.913  1.00  0.00     0.042 C 
HETATM   22  C16 UNL     1      10.433  26.403   8.643  1.00  0.00     0.006 C 
HETATM   23  C17 UNL     1       9.804  27.486   7.797  1.00  0.00     0.032 C 
HETATM   24  C18 UNL     1       9.469  26.862   6.458  1.00  0.00     0.119 C 
HETATM   25  C19 UNL     1       8.598  27.761   5.611  1.00  0.00     0.039 C 
HETATM   26  O5  UNL     1      10.671  26.549   5.840  1.00  0.00    -0.372 OA
ENDBRANCH  18  19
ENDBRANCH   6  17
BRANCH   2  27
HETATM   27  O3  UNL     1      16.236  20.380   7.218  1.00  0.00    -0.392 OA
ATOM     28  H3  UNL     1      15.603  21.040   7.475  1.00  0.00     0.210 HD
ENDBRANCH   2  27
BRANCH   1  29
HETATM   29  O2  UNL     1      18.649  19.313   7.306  1.00  0.00    -0.312 OA
BRANCH  29  30
HETATM   30  C5  UNL     1      19.609  19.923   8.098  1.00  0.00     0.263 C 
HETATM   31  O1  UNL     1      20.656  20.284   7.513  1.00  0.00    -0.265 OA
BRANCH  30  32
HETATM   32  C3  UNL     1      19.457  20.154   9.541  1.00  0.00     0.081 C 
HETATM   33  C4  UNL     1      18.121  19.688  10.071  1.00  0.00     0.020 C 
BRANCH  32  34
HETATM   34  C2  UNL     1      19.615  21.602   9.928  1.00  0.00     0.010 C 
HETATM   35  C1  UNL     1      20.919  21.892  10.603  1.00  0.00     0.006 C 
ENDBRANCH  32  34
ENDBRANCH  30  32
ENDBRANCH  29  30
ENDBRANCH   1  29
BRANCH  12  36
HETATM   36  C27 UNL     1      16.712  18.182   3.059  1.00  0.00     0.174 C 
BRANCH  36  37
HETATM   37  O6  UNL     1      16.226  19.218   2.242  1.00  0.00    -0.400 OA
ATOM     38  H6  UNL     1      15.420  18.873   1.875  1.00  0.00     0.209 HD
ENDBRANCH  36  37
ENDBRANCH  12  36
TORSDOF 9
ENDMDL
MODEL 4
REMARK VINA RESULT: -8.376185642      3.196     10.170
REMARK  9 active torsions:
REMARK  status: ('A' for Active; 'I' for Inactive)
REMARK    1  A    between atoms: C2_2  and  C3_3 
REMARK    2  A    between atoms: C3_3  and  C5_5 
REMARK    3  A    between atoms: C5_5  and  O2_7 
REMARK    4  A    between atoms: O2_7  and  C6_8 
REMARK    5  A    between atoms: C7_9  and  O3_10 
REMARK    6  A    between atoms: C10_15  and  C11_16 
REMARK    7  A    between atoms: C12_17  and  C13_18 
REMARK    8  A    between atoms: C25_31  and  C27_33 
REMARK    9  A    between atoms: C27_33  and  O6_34 
ROOT
HETATM    1  C6  UNL     1      14.705  20.662   5.754  1.00  0.00     0.169 C 
HETATM    2  C7  UNL     1      13.555  21.444   5.169  1.00  0.00     0.155 C 
HETATM    3  C8  UNL     1      13.050  22.332   6.260  1.00  0.00     0.052 C 
HETATM    4  C9  UNL     1      11.677  22.824   6.108  1.00  0.00     0.140 C 
HETATM    5  O4  UNL     1      11.101  22.776   4.837  1.00  0.00    -0.375 OA
HETATM    6  C10 UNL     1      10.282  23.839   5.284  1.00  0.00     0.155 C 
HETATM    7  C20 UNL     1      11.504  24.307   6.064  1.00  0.00     0.012 C 
HETATM    8  C21 UNL     1      11.157  24.970   7.368  1.00  0.00     0.021 C 
HETATM    9  C22 UNL     1      12.545  24.945   5.224  1.00  0.00     0.015 C 
HETATM   10  C23 UNL     1      13.951  24.569   5.516  1.00  0.00     0.007 C 
HETATM   11  C24 UNL     1      14.088  23.433   6.513  1.00  0.00     0.006 C 
HETATM   12  C25 UNL     1      15.455  22.917   6.650  1.00  0.00    -0.009 C 
HETATM   13  C26 UNL     1      16.433  23.685   5.758  1.00  0.00     0.018 C 
HETATM   14  C28 UNL     1      15.662  21.447   6.553  1.00  0.00    -0.009 C 
HETATM   15  C29 UNL     1      17.061  21.234   5.944  1.00  0.00     0.018 C 
HETATM   16  C30 UNL     1      15.790  20.789   7.920  1.00  0.00     0.018 C 
ENDROOT
BRANCH   6  17
HETATM   17  C11 UNL     1       9.790  24.731   4.236  1.00  0.00     0.005 C 
HETATM   18  C12 UNL     1       8.795  25.566   4.494  1.00  0.00     0.009 C 
BRANCH  18  19
HETATM   19  C13 UNL     1       8.250  26.502   3.464  1.00  0.00     0.075 C 
HETATM   20  C14 UNL     1       8.589  27.918   3.873  1.00  0.00     0.050 C 
HETATM   21  C15 UNL     1       8.910  26.207   2.164  1.00  0.00     0.042 C 
HETATM   22  C16 UNL     1       8.205  26.817   0.977  1.00  0.00     0.006 C 
HETATM   23  C17 UNL     1       6.700  26.761   1.117  1.00  0.00     0.032 C 
HETATM   24  C18 UNL     1       6.364  27.304   2.489  1.00  0.00     0.119 C 
HETATM   25  C19 UNL     1       4.883  27.550   2.658  1.00  0.00     0.039 C 
HETATM   26  O5  UNL     1       6.864  26.405   3.419  1.00  0.00    -0.372 OA
ENDBRANCH  18  19
ENDBRANCH   6  17
BRANCH   2  27
HETATM   27  O3  UNL     1      13.868  22.100   3.997  1.00  0.00    -0.392 OA
ATOM     28  H3  UNL     1      13.213  22.000   3.315  1.00  0.00     0.210 HD
ENDBRANCH   2  27
BRANCH   1  29
HETATM   29  O2  UNL     1      15.334  20.003   4.643  1.00  0.00    -0.312 OA
BRANCH  29  30
HETATM   30  C5  UNL     1      15.397  18.621   4.547  1.00  0.00     0.263 C 
HETATM   31  O1  UNL     1      14.352  18.000   4.851  1.00  0.00    -0.265 OA
BRANCH  30  32
HETATM   32  C3  UNL     1      16.593  17.882   4.120  1.00  0.00     0.081 C 
HETATM   33  C4  UNL     1      17.581  17.670   5.243  1.00  0.00     0.020 C 
BRANCH  32  34
HETATM   34  C2  UNL     1      17.331  18.554   2.991  1.00  0.00     0.010 C 
HETATM   35  C1  UNL     1      17.824  17.593   1.955  1.00  0.00     0.006 C 
ENDBRANCH  32  34
ENDBRANCH  30  32
ENDBRANCH  29  30
ENDBRANCH   1  29
BRANCH  12  36
HETATM   36  C27 UNL     1      15.966  23.326   8.052  1.00  0.00     0.174 C 
BRANCH  36  37
HETATM   37  O6  UNL     1      16.587  24.572   7.849  1.00  0.00    -0.400 OA
ATOM     38  H6  UNL     1      16.092  25.175   8.392  1.00  0.00     0.209 HD
ENDBRANCH  36  37
ENDBRANCH  12  36
TORSDOF 9
ENDMDL
MODEL 5
REMARK VINA RESULT: -8.215231794      2.694      9.689
REMARK  9 active torsions:
REMARK  status: ('A' for Active; 'I' for Inactive)
REMARK    1  A    between atoms: C2_2  and  C3_3 
REMARK    2  A    between atoms: C3_3  and  C5_5 
REMARK    3  A    between atoms: C5_5  and  O2_7 
REMARK    4  A    between atoms: O2_7  and  C6_8 
REMARK    5  A    between atoms: C7_9  and  O3_10 
REMARK    6  A    between atoms: C10_15  and  C11_16 
REMARK    7  A    between atoms: C12_17  and  C13_18 
REMARK    8  A    between atoms: C25_31  and  C27_33 
REMARK    9  A    between atoms: C27_33  and  O6_34 
ROOT
HETATM    1  C6  UNL     1      18.007  19.414   6.122  1.00  0.00     0.169 C 
HETATM    2  C7  UNL     1      16.888  20.426   6.074  1.00  0.00     0.155 C 
HETATM    3  C8  UNL     1      16.314  20.485   7.453  1.00  0.00     0.052 C 
HETATM    4  C9  UNL     1      14.949  21.010   7.561  1.00  0.00     0.140 C 
HETATM    5  O4  UNL     1      14.450  21.761   6.495  1.00  0.00    -0.375 OA
HETATM    6  C10 UNL     1      13.598  22.359   7.453  1.00  0.00     0.155 C 
HETATM    7  C20 UNL     1      14.769  22.221   8.418  1.00  0.00     0.012 C 
HETATM    8  C21 UNL     1      14.341  21.967   9.837  1.00  0.00     0.021 C 
HETATM    9  C22 UNL     1      15.854  23.205   8.193  1.00  0.00     0.015 C 
HETATM   10  C23 UNL     1      17.242  22.685   8.268  1.00  0.00     0.007 C 
HETATM   11  C24 UNL     1      17.328  21.174   8.375  1.00  0.00     0.006 C 
HETATM   12  C25 UNL     1      18.687  20.639   8.240  1.00  0.00    -0.009 C 
HETATM   13  C26 UNL     1      19.711  21.760   8.050  1.00  0.00     0.018 C 
HETATM   14  C28 UNL     1      18.909  19.524   7.281  1.00  0.00    -0.009 C 
HETATM   15  C29 UNL     1      20.343  19.681   6.740  1.00  0.00     0.018 C 
HETATM   16  C30 UNL     1      18.960  18.168   7.971  1.00  0.00     0.018 C 
ENDROOT
BRANCH   6  17
HETATM   17  C11 UNL     1      13.163  23.718   7.139  1.00  0.00     0.005 C 
HETATM   18  C12 UNL     1      11.873  23.985   7.006  1.00  0.00     0.009 C 
BRANCH  18  19
HETATM   19  C13 UNL     1      11.367  25.354   6.687  1.00  0.00     0.075 C 
HETATM   20  C14 UNL     1      12.314  26.369   7.288  1.00  0.00     0.050 C 
HETATM   21  C15 UNL     1      11.361  25.520   5.208  1.00  0.00     0.042 C 
HETATM   22  C16 UNL     1      10.544  26.698   4.737  1.00  0.00     0.006 C 
HETATM   23  C17 UNL     1       9.279  26.875   5.545  1.00  0.00     0.032 C 
HETATM   24  C18 UNL     1       9.679  26.837   7.005  1.00  0.00     0.119 C 
HETATM   25  C19 UNL     1       8.552  27.265   7.916  1.00  0.00     0.039 C 
HETATM   26  O5  UNL     1      10.123  25.551   7.274  1.00  0.00    -0.372 OA
ENDBRANCH  18  19
ENDBRANCH   6  17
BRANCH   2  27
HETATM   27  O3  UNL     1      17.265  21.649   5.559  1.00  0.00    -0.392 OA
ATOM     28  H3  UNL     1      17.001  22.388   6.094  1.00  0.00     0.210 HD
ENDBRANCH   2  27
BRANCH   1  29
HETATM   29  O2  UNL     1      18.704  19.546   4.872  1.00  0.00    -0.312 OA
BRANCH  29  30
HETATM   30  C5  UNL     1      18.609  18.589   3.873  1.00  0.00     0.263 C 
HETATM   31  O1  UNL     1      19.691  18.095   3.479  1.00  0.00    -0.265 OA
BRANCH  30  32
HETATM   32  C3  UNL     1      17.340  18.149   3.277  1.00  0.00     0.081 C 
HETATM   33  C4  UNL     1      17.537  17.238   2.088  1.00  0.00     0.020 C 
BRANCH  32  34
HETATM   34  C2  UNL     1      16.469  19.294   2.829  1.00  0.00     0.010 C 
HETATM   35  C1  UNL     1      15.025  19.103   3.167  1.00  0.00     0.006 C 
ENDBRANCH  32  34
ENDBRANCH  30  32
ENDBRANCH  29  30
ENDBRANCH   1  29
BRANCH  12  36
HETATM   36  C27 UNL     1      19.112  20.098   9.626  1.00  0.00     0.174 C 
BRANCH  36  37
HETATM   37  O6  UNL     1      19.687  21.206  10.274  1.00  0.00    -0.400 OA
ATOM     38  H6  UNL     1      19.809  20.919  11.172  1.00  0.00     0.209 HD
ENDBRANCH  36  37
ENDBRANCH  12  36
TORSDOF 9
ENDMDL
