MODEL 1
REMARK VINA RESULT: -7.806271221      0.000      0.000
REMARK  10 active torsions:
REMARK  status: ('A' for Active; 'I' for Inactive)
REMARK    1  A    between atoms: C2_2  and  C5_5 
REMARK    2  A    between atoms: C5_5  and  O2_7 
REMARK    3  A    between atoms: O2_7  and  C6_8 
REMARK    4  A    between atoms: C6_8  and  C7_9 
REMARK    5  A    between atoms: C9_11  and  O3_12 
REMARK    6  A    between atoms: O3_12  and  C10_13 
REMARK    7  A    between atoms: C10_13  and  C11_15 
REMARK    8  A    between atoms: C11_15  and  C12_16 
REMARK    9  A    between atoms: C12_16  and  C13_17 
REMARK   10  A    between atoms: C18_24  and  O7_25 
ROOT
HETATM    1  C7  UNL     1      10.359  25.374   5.377  1.00  0.00     0.010 C 
HETATM    2  C8  UNL     1       9.354  24.720   6.308  1.00  0.00     0.020 C 
HETATM    3  C9  UNL     1      11.598  24.530   5.501  1.00  0.00     0.142 C 
HETATM    4  C14 UNL     1      12.343  24.335   4.191  1.00  0.00     0.034 C 
HETATM    5  C15 UNL     1      11.364  23.469   3.487  1.00  0.00     0.014 C 
HETATM    6  C16 UNL     1      10.337  24.478   2.986  1.00  0.00    -0.013 C 
HETATM    7  C17 UNL     1      11.082  25.055   1.760  1.00  0.00     0.018 C 
HETATM    8  C18 UNL     1       9.287  23.517   2.506  1.00  0.00     0.127 C 
HETATM    9  C19 UNL     1       7.946  23.999   2.239  1.00  0.00     0.038 C 
HETATM   10  C20 UNL     1       7.524  24.971   3.318  1.00  0.00     0.004 C 
HETATM   11  C21 UNL     1       6.162  25.364   2.973  1.00  0.00    -0.043 C 
HETATM   12  C22 UNL     1       5.819  25.134   1.484  1.00  0.00     0.015 C 
HETATM   13  C23 UNL     1       5.194  24.326   3.613  1.00  0.00     0.015 C 
HETATM   14  C24 UNL     1       5.641  26.676   3.436  1.00  0.00     0.009 C 
HETATM   15  C25 UNL     1       6.642  27.684   3.812  1.00  0.00     0.002 C 
HETATM   16  C26 UNL     1       7.958  27.155   4.307  1.00  0.00     0.010 C 
HETATM   17  C27 UNL     1       8.569  26.027   3.572  1.00  0.00    -0.034 C 
HETATM   18  C28 UNL     1       8.713  26.730   2.186  1.00  0.00     0.016 C 
HETATM   19  C29 UNL     1       9.904  25.530   3.959  1.00  0.00     0.017 C 
ENDROOT
BRANCH   1  20
HETATM   20  C6  UNL     1      10.715  26.665   6.083  1.00  0.00     0.191 C 
BRANCH  20  21
HETATM   21  O2  UNL     1      10.154  27.103   7.184  1.00  0.00    -0.320 OA
BRANCH  21  22
HETATM   22  C5  UNL     1       9.691  27.769   8.166  1.00  0.00     0.266 C 
HETATM   23  O1  UNL     1      10.386  27.869   9.201  1.00  0.00    -0.264 OA
BRANCH  22  24
HETATM   24  C2  UNL     1       8.346  28.439   8.126  1.00  0.00     0.037 C 
HETATM   25  C1  UNL     1       8.285  29.414   6.952  1.00  0.00     0.025 C 
HETATM   26  C3  UNL     1       8.125  29.245   9.382  1.00  0.00     0.025 C 
HETATM   27  C4  UNL     1       7.278  27.413   7.939  1.00  0.00     0.025 C 
ENDBRANCH  22  24
ENDBRANCH  21  22
ENDBRANCH  20  21
ENDBRANCH   1  20
BRANCH   3  28
HETATM   28  O3  UNL     1      11.287  23.202   5.918  1.00  0.00    -0.315 OA
BRANCH  28  29
HETATM   29  C10 UNL     1      12.182  22.376   6.554  1.00  0.00     0.259 C 
HETATM   30  O4  UNL     1      11.904  21.165   6.722  1.00  0.00    -0.265 OA
BRANCH  29  31
HETATM   31  C11 UNL     1      13.485  22.887   7.052  1.00  0.00     0.121 C 
BRANCH  31  32
HETATM   32  C12 UNL     1      14.679  22.284   6.414  1.00  0.00     0.123 C 
BRANCH  32  33
HETATM   33  C13 UNL     1      15.764  23.195   6.042  1.00  0.00     0.172 C 
HETATM   34  O5  UNL     1      16.451  23.685   6.975  1.00  0.00    -0.648 OA
HETATM   35  O6  UNL     1      16.052  23.528   4.740  1.00  0.00    -0.648 OA
ENDBRANCH  32  33
ENDBRANCH  31  32
ENDBRANCH  29  31
ENDBRANCH  28  29
ENDBRANCH   3  28
BRANCH   8  36
HETATM   36  O7  UNL     1       9.794  22.956   1.312  1.00  0.00    -0.395 OA
ATOM     37  H7  UNL     1       9.075  22.975   0.691  1.00  0.00     0.210 HD
ENDBRANCH   8  36
TORSDOF 10
ENDMDL
MODEL 2
REMARK VINA RESULT: -7.706547465      0.941      1.059
REMARK  10 active torsions:
REMARK  status: ('A' for Active; 'I' for Inactive)
REMARK    1  A    between atoms: C2_2  and  C5_5 
REMARK    2  A    between atoms: C5_5  and  O2_7 
REMARK    3  A    between atoms: O2_7  and  C6_8 
REMARK    4  A    between atoms: C6_8  and  C7_9 
REMARK    5  A    between atoms: C9_11  and  O3_12 
REMARK    6  A    between atoms: O3_12  and  C10_13 
REMARK    7  A    between atoms: C10_13  and  C11_15 
REMARK    8  A    between atoms: C11_15  and  C12_16 
REMARK    9  A    between atoms: C12_16  and  C13_17 
REMARK   10  A    between atoms: C18_24  and  O7_25 
ROOT
HETATM    1  C7  UNL     1      10.335  25.353   5.360  1.00  0.00     0.010 C 
HETATM    2  C8  UNL     1       9.327  24.711   6.295  1.00  0.00     0.020 C 
HETATM    3  C9  UNL     1      11.569  24.503   5.488  1.00  0.00     0.142 C 
HETATM    4  C14 UNL     1      12.312  24.297   4.178  1.00  0.00     0.034 C 
HETATM    5  C15 UNL     1      11.327  23.432   3.479  1.00  0.00     0.014 C 
HETATM    6  C16 UNL     1      10.306  24.445   2.974  1.00  0.00    -0.013 C 
HETATM    7  C17 UNL     1      11.053  25.011   1.744  1.00  0.00     0.018 C 
HETATM    8  C18 UNL     1       9.249  23.488   2.500  1.00  0.00     0.127 C 
HETATM    9  C19 UNL     1       7.911  23.977   2.231  1.00  0.00     0.038 C 
HETATM   10  C20 UNL     1       7.495  24.957   3.306  1.00  0.00     0.004 C 
HETATM   11  C21 UNL     1       6.135  25.355   2.960  1.00  0.00    -0.043 C 
HETATM   12  C22 UNL     1       5.790  25.120   1.472  1.00  0.00     0.015 C 
HETATM   13  C23 UNL     1       5.162  24.327   3.606  1.00  0.00     0.015 C 
HETATM   14  C24 UNL     1       5.623  26.674   3.416  1.00  0.00     0.009 C 
HETATM   15  C25 UNL     1       6.630  27.678   3.786  1.00  0.00     0.002 C 
HETATM   16  C26 UNL     1       7.944  27.143   4.283  1.00  0.00     0.010 C 
HETATM   17  C27 UNL     1       8.547  26.008   3.553  1.00  0.00    -0.034 C 
HETATM   18  C28 UNL     1       8.694  26.702   2.163  1.00  0.00     0.016 C 
HETATM   19  C29 UNL     1       9.879  25.505   3.942  1.00  0.00     0.017 C 
ENDROOT
BRANCH   1  20
HETATM   20  C6  UNL     1      10.699  26.646   6.059  1.00  0.00     0.191 C 
BRANCH  20  21
HETATM   21  O2  UNL     1      10.136  27.097   7.154  1.00  0.00    -0.320 OA
BRANCH  21  22
HETATM   22  C5  UNL     1       9.677  27.775   8.130  1.00  0.00     0.266 C 
HETATM   23  O1  UNL     1      10.380  27.892   9.158  1.00  0.00    -0.264 OA
BRANCH  22  24
HETATM   24  C2  UNL     1       8.328  28.437   8.092  1.00  0.00     0.037 C 
HETATM   25  C1  UNL     1       8.262  29.414   6.921  1.00  0.00     0.025 C 
HETATM   26  C3  UNL     1       8.103  29.238   9.350  1.00  0.00     0.025 C 
HETATM   27  C4  UNL     1       7.266  27.405   7.902  1.00  0.00     0.025 C 
ENDBRANCH  22  24
ENDBRANCH  21  22
ENDBRANCH  20  21
ENDBRANCH   1  20
BRANCH   3  28
HETATM   28  O3  UNL     1      11.250  23.179   5.912  1.00  0.00    -0.315 OA
BRANCH  28  29
HETATM   29  C10 UNL     1      12.110  22.384   6.631  1.00  0.00     0.259 C 
HETATM   30  O4  UNL     1      11.901  21.150   6.709  1.00  0.00    -0.265 OA
BRANCH  29  31
HETATM   31  C11 UNL     1      13.292  22.955   7.325  1.00  0.00     0.121 C 
BRANCH  31  32
HETATM   32  C12 UNL     1      14.578  22.277   7.033  1.00  0.00     0.123 C 
BRANCH  32  33
HETATM   33  C13 UNL     1      15.141  21.438   8.094  1.00  0.00     0.172 C 
HETATM   34  O5  UNL     1      14.523  21.401   9.189  1.00  0.00    -0.648 OA
HETATM   35  O6  UNL     1      16.295  20.707   7.941  1.00  0.00    -0.648 OA
ENDBRANCH  32  33
ENDBRANCH  31  32
ENDBRANCH  29  31
ENDBRANCH  28  29
ENDBRANCH   3  28
BRANCH   8  36
HETATM   36  O7  UNL     1       9.752  22.917   1.308  1.00  0.00    -0.395 OA
ATOM     37  H7  UNL     1       9.157  22.209   1.089  1.00  0.00     0.210 HD
ENDBRANCH   8  36
TORSDOF 10
ENDMDL
MODEL 3
REMARK VINA RESULT: -7.579154336      1.073      1.423
REMARK  10 active torsions:
REMARK  status: ('A' for Active; 'I' for Inactive)
REMARK    1  A    between atoms: C2_2  and  C5_5 
REMARK    2  A    between atoms: C5_5  and  O2_7 
REMARK    3  A    between atoms: O2_7  and  C6_8 
REMARK    4  A    between atoms: C6_8  and  C7_9 
REMARK    5  A    between atoms: C9_11  and  O3_12 
REMARK    6  A    between atoms: O3_12  and  C10_13 
REMARK    7  A    between atoms: C10_13  and  C11_15 
REMARK    8  A    between atoms: C11_15  and  C12_16 
REMARK    9  A    between atoms: C12_16  and  C13_17 
REMARK   10  A    between atoms: C18_24  and  O7_25 
ROOT
HETATM    1  C7  UNL     1      10.127  25.514   4.998  1.00  0.00     0.010 C 
HETATM    2  C8  UNL     1       9.125  24.975   6.003  1.00  0.00     0.020 C 
HETATM    3  C9  UNL     1      11.341  24.643   5.166  1.00  0.00     0.142 C 
HETATM    4  C14 UNL     1      12.048  24.314   3.861  1.00  0.00     0.034 C 
HETATM    5  C15 UNL     1      11.024  23.426   3.253  1.00  0.00     0.014 C 
HETATM    6  C16 UNL     1      10.018  24.424   2.692  1.00  0.00    -0.013 C 
HETATM    7  C17 UNL     1      10.750  24.871   1.406  1.00  0.00     0.018 C 
HETATM    8  C18 UNL     1       8.926  23.463   2.318  1.00  0.00     0.127 C 
HETATM    9  C19 UNL     1       7.595  23.966   2.040  1.00  0.00     0.038 C 
HETATM   10  C20 UNL     1       7.231  25.038   3.044  1.00  0.00     0.004 C 
HETATM   11  C21 UNL     1       5.874  25.446   2.696  1.00  0.00    -0.043 C 
HETATM   12  C22 UNL     1       5.487  25.105   1.240  1.00  0.00     0.015 C 
HETATM   13  C23 UNL     1       4.889  24.498   3.442  1.00  0.00     0.015 C 
HETATM   14  C24 UNL     1       5.406  26.810   3.059  1.00  0.00     0.009 C 
HETATM   15  C25 UNL     1       6.448  27.811   3.327  1.00  0.00     0.002 C 
HETATM   16  C26 UNL     1       7.759  27.281   3.836  1.00  0.00     0.010 C 
HETATM   17  C27 UNL     1       8.315  26.075   3.185  1.00  0.00    -0.034 C 
HETATM   18  C28 UNL     1       8.447  26.655   1.742  1.00  0.00     0.016 C 
HETATM   19  C29 UNL     1       9.642  25.568   3.583  1.00  0.00     0.017 C 
ENDROOT
BRANCH   1  20
HETATM   20  C6  UNL     1      10.542  26.847   5.586  1.00  0.00     0.191 C 
BRANCH  20  21
HETATM   21  O2  UNL     1       9.815  27.571   6.403  1.00  0.00    -0.320 OA
BRANCH  21  22
HETATM   22  C5  UNL     1       8.955  28.314   6.978  1.00  0.00     0.266 C 
HETATM   23  O1  UNL     1       8.638  29.394   6.433  1.00  0.00    -0.264 OA
BRANCH  22  24
HETATM   24  C2  UNL     1       8.309  27.941   8.283  1.00  0.00     0.037 C 
HETATM   25  C1  UNL     1       8.129  29.186   9.149  1.00  0.00     0.025 C 
HETATM   26  C3  UNL     1       9.193  26.992   9.053  1.00  0.00     0.025 C 
HETATM   27  C4  UNL     1       6.962  27.350   8.028  1.00  0.00     0.025 C 
ENDBRANCH  22  24
ENDBRANCH  21  22
ENDBRANCH  20  21
ENDBRANCH   1  20
BRANCH   3  28
HETATM   28  O3  UNL     1      10.998  23.365   5.699  1.00  0.00    -0.315 OA
BRANCH  28  29
HETATM   29  C10 UNL     1      11.834  22.629   6.504  1.00  0.00     0.259 C 
HETATM   30  O4  UNL     1      11.605  21.410   6.693  1.00  0.00    -0.265 OA
BRANCH  29  31
HETATM   31  C11 UNL     1      13.013  23.246   7.163  1.00  0.00     0.121 C 
BRANCH  31  32
HETATM   32  C12 UNL     1      14.247  22.424   7.134  1.00  0.00     0.123 C 
BRANCH  32  33
HETATM   33  C13 UNL     1      14.956  22.248   8.404  1.00  0.00     0.172 C 
HETATM   34  O5  UNL     1      16.011  22.911   8.573  1.00  0.00    -0.648 OA
HETATM   35  O6  UNL     1      14.520  21.402   9.397  1.00  0.00    -0.648 OA
ENDBRANCH  32  33
ENDBRANCH  31  32
ENDBRANCH  29  31
ENDBRANCH  28  29
ENDBRANCH   3  28
BRANCH   8  36
HETATM   36  O7  UNL     1       9.386  22.787   1.164  1.00  0.00    -0.395 OA
ATOM     37  H7  UNL     1       8.606  22.470   0.722  1.00  0.00     0.210 HD
ENDBRANCH   8  36
TORSDOF 10
ENDMDL
MODEL 4
REMARK VINA RESULT: -7.204028082      1.890      2.913
REMARK  10 active torsions:
REMARK  status: ('A' for Active; 'I' for Inactive)
REMARK    1  A    between atoms: C2_2  and  C5_5 
REMARK    2  A    between atoms: C5_5  and  O2_7 
REMARK    3  A    between atoms: O2_7  and  C6_8 
REMARK    4  A    between atoms: C6_8  and  C7_9 
REMARK    5  A    between atoms: C9_11  and  O3_12 
REMARK    6  A    between atoms: O3_12  and  C10_13 
REMARK    7  A    between atoms: C10_13  and  C11_15 
REMARK    8  A    between atoms: C11_15  and  C12_16 
REMARK    9  A    between atoms: C12_16  and  C13_17 
REMARK   10  A    between atoms: C18_24  and  O7_25 
ROOT
HETATM    1  C7  UNL     1       8.904  26.409   4.318  1.00  0.00     0.010 C 
HETATM    2  C8  UNL     1       8.465  25.482   5.436  1.00  0.00     0.020 C 
HETATM    3  C9  UNL     1      10.057  25.699   3.664  1.00  0.00     0.142 C 
HETATM    4  C14 UNL     1      10.092  25.844   2.152  1.00  0.00     0.034 C 
HETATM    5  C15 UNL     1       8.900  25.029   1.807  1.00  0.00     0.014 C 
HETATM    6  C16 UNL     1       7.754  25.997   2.077  1.00  0.00    -0.013 C 
HETATM    7  C17 UNL     1       7.824  26.879   0.808  1.00  0.00     0.018 C 
HETATM    8  C18 UNL     1       6.606  25.039   1.937  1.00  0.00     0.127 C 
HETATM    9  C19 UNL     1       5.297  25.414   2.434  1.00  0.00     0.038 C 
HETATM   10  C20 UNL     1       5.433  26.106   3.772  1.00  0.00     0.004 C 
HETATM   11  C21 UNL     1       4.069  26.406   4.192  1.00  0.00    -0.043 C 
HETATM   12  C22 UNL     1       3.061  26.433   3.021  1.00  0.00     0.015 C 
HETATM   13  C23 UNL     1       3.525  25.164   4.958  1.00  0.00     0.015 C 
HETATM   14  C24 UNL     1       3.825  27.539   5.122  1.00  0.00     0.009 C 
HETATM   15  C25 UNL     1       4.880  28.558   5.207  1.00  0.00     0.002 C 
HETATM   16  C26 UNL     1       6.276  28.091   4.906  1.00  0.00     0.010 C 
HETATM   17  C27 UNL     1       6.469  27.200   3.741  1.00  0.00    -0.034 C 
HETATM   18  C28 UNL     1       5.934  28.170   2.642  1.00  0.00     0.016 C 
HETATM   19  C29 UNL     1       7.830  26.787   3.346  1.00  0.00     0.017 C 
ENDROOT
BRANCH   1  20
HETATM   20  C6  UNL     1       9.548  27.570   5.047  1.00  0.00     0.191 C 
BRANCH  20  21
HETATM   21  O2  UNL     1       9.003  28.235   6.038  1.00  0.00    -0.320 OA
BRANCH  21  22
HETATM   22  C5  UNL     1       8.699  28.811   7.132  1.00  0.00     0.266 C 
HETATM   23  O1  UNL     1       8.511  30.048   7.124  1.00  0.00    -0.264 OA
BRANCH  22  24
HETATM   24  C2  UNL     1       8.558  28.063   8.429  1.00  0.00     0.037 C 
HETATM   25  C1  UNL     1       9.863  27.341   8.757  1.00  0.00     0.025 C 
HETATM   26  C3  UNL     1       7.487  27.008   8.309  1.00  0.00     0.025 C 
HETATM   27  C4  UNL     1       8.263  29.022   9.534  1.00  0.00     0.025 C 
ENDBRANCH  22  24
ENDBRANCH  21  22
ENDBRANCH  20  21
ENDBRANCH   1  20
BRANCH   3  28
HETATM   28  O3  UNL     1       9.987  24.289   3.871  1.00  0.00    -0.315 OA
BRANCH  28  29
HETATM   29  C10 UNL     1      11.078  23.511   4.178  1.00  0.00     0.259 C 
HETATM   30  O4  UNL     1      11.968  23.315   3.316  1.00  0.00    -0.265 OA
BRANCH  29  31
HETATM   31  C11 UNL     1      11.231  22.890   5.518  1.00  0.00     0.121 C 
BRANCH  31  32
HETATM   32  C12 UNL     1      11.341  23.849   6.644  1.00  0.00     0.123 C 
BRANCH  32  33
HETATM   33  C13 UNL     1      12.517  24.722   6.658  1.00  0.00     0.172 C 
HETATM   34  O5  UNL     1      13.629  24.187   6.899  1.00  0.00    -0.648 OA
HETATM   35  O6  UNL     1      12.451  26.075   6.423  1.00  0.00    -0.648 OA
ENDBRANCH  32  33
ENDBRANCH  31  32
ENDBRANCH  29  31
ENDBRANCH  28  29
ENDBRANCH   3  28
BRANCH   8  36
HETATM   36  O7  UNL     1       6.487  24.778   0.552  1.00  0.00    -0.395 OA
ATOM     37  H7  UNL     1       5.822  24.105   0.471  1.00  0.00     0.210 HD
ENDBRANCH   8  36
TORSDOF 10
ENDMDL
MODEL 5
REMARK VINA RESULT: -7.185083435      1.812      3.159
REMARK  10 active torsions:
REMARK  status: ('A' for Active; 'I' for Inactive)
REMARK    1  A    between atoms: C2_2  and  C5_5 
REMARK    2  A    between atoms: C5_5  and  O2_7 
REMARK    3  A    between atoms: O2_7  and  C6_8 
REMARK    4  A    between atoms: C6_8  and  C7_9 
REMARK    5  A    between atoms: C9_11  and  O3_12 
REMARK    6  A    between atoms: O3_12  and  C10_13 
REMARK    7  A    between atoms: C10_13  and  C11_15 
REMARK    8  A    between atoms: C11_15  and  C12_16 
REMARK    9  A    between atoms: C12_16  and  C13_17 
REMARK   10  A    between atoms: C18_24  and  O7_25 
ROOT
HETATM    1  C7  UNL     1       8.949  26.428   4.550  1.00  0.00     0.010 C 
HETATM    2  C8  UNL     1       8.594  25.190   5.354  1.00  0.00     0.020 C 
HETATM    3  C9  UNL     1      10.175  26.038   3.772  1.00  0.00     0.142 C 
HETATM    4  C14 UNL     1      10.211  26.599   2.360  1.00  0.00     0.034 C 
HETATM    5  C15 UNL     1       9.112  25.802   1.759  1.00  0.00     0.014 C 
HETATM    6  C16 UNL     1       7.871  26.545   2.239  1.00  0.00    -0.013 C 
HETATM    7  C17 UNL     1       7.865  27.746   1.265  1.00  0.00     0.018 C 
HETATM    8  C18 UNL     1       6.827  25.559   1.798  1.00  0.00     0.127 C 
HETATM    9  C19 UNL     1       5.482  25.657   2.328  1.00  0.00     0.038 C 
HETATM   10  C20 UNL     1       5.533  25.961   3.809  1.00  0.00     0.004 C 
HETATM   11  C21 UNL     1       4.141  26.003   4.243  1.00  0.00    -0.043 C 
HETATM   12  C22 UNL     1       3.148  26.258   3.086  1.00  0.00     0.015 C 
HETATM   13  C23 UNL     1       3.718  24.552   4.617  1.00  0.00     0.015 C 
HETATM   14  C24 UNL     1       3.773  26.806   5.438  1.00  0.00     0.009 C 
HETATM   15  C25 UNL     1       4.718  27.857   5.839  1.00  0.00     0.002 C 
HETATM   16  C26 UNL     1       6.158  27.625   5.475  1.00  0.00     0.010 C 
HETATM   17  C27 UNL     1       6.452  27.114   4.119  1.00  0.00    -0.034 C 
HETATM   18  C28 UNL     1       5.834  28.295   3.308  1.00  0.00     0.016 C 
HETATM   19  C29 UNL     1       7.853  26.957   3.679  1.00  0.00     0.017 C 
ENDROOT
BRANCH   1  20
HETATM   20  C6  UNL     1       9.464  27.397   5.594  1.00  0.00     0.191 C 
BRANCH  20  21
HETATM   21  O2  UNL     1       9.583  27.136   6.874  1.00  0.00    -0.320 OA
BRANCH  21  22
HETATM   22  C5  UNL     1       9.645  27.145   8.146  1.00  0.00     0.266 C 
HETATM   23  O1  UNL     1       8.633  27.496   8.791  1.00  0.00    -0.264 OA
BRANCH  22  24
HETATM   24  C2  UNL     1      10.885  26.749   8.897  1.00  0.00     0.037 C 
HETATM   25  C1  UNL     1      11.690  27.993   9.265  1.00  0.00     0.025 C 
HETATM   26  C3  UNL     1      11.771  25.890   8.029  1.00  0.00     0.025 C 
HETATM   27  C4  UNL     1      10.506  26.046  10.159  1.00  0.00     0.025 C 
ENDBRANCH  22  24
ENDBRANCH  21  22
ENDBRANCH  20  21
ENDBRANCH   1  20
BRANCH   3  28
HETATM   28  O3  UNL     1      10.246  24.626   3.581  1.00  0.00    -0.315 OA
BRANCH  28  29
HETATM   29  C10 UNL     1      11.411  23.904   3.680  1.00  0.00     0.259 C 
HETATM   30  O4  UNL     1      11.716  23.084   2.780  1.00  0.00    -0.265 OA
BRANCH  29  31
HETATM   31  C11 UNL     1      12.328  24.071   4.836  1.00  0.00     0.121 C 
BRANCH  31  32
HETATM   32  C12 UNL     1      13.069  22.848   5.229  1.00  0.00     0.123 C 
BRANCH  32  33
HETATM   33  C13 UNL     1      12.563  22.110   6.389  1.00  0.00     0.172 C 
HETATM   34  O5  UNL     1      13.401  21.756   7.257  1.00  0.00    -0.648 OA
HETATM   35  O6  UNL     1      11.235  21.796   6.559  1.00  0.00    -0.648 OA
ENDBRANCH  32  33
ENDBRANCH  31  32
ENDBRANCH  29  31
ENDBRANCH  28  29
ENDBRANCH   3  28
BRANCH   8  36
HETATM   36  O7  UNL     1       6.751  25.682   0.391  1.00  0.00    -0.395 OA
ATOM     37  H7  UNL     1       5.842  25.520   0.166  1.00  0.00     0.210 HD
ENDBRANCH   8  36
TORSDOF 10
ENDMDL
