MODEL 1
REMARK VINA RESULT: -6.730799936      0.000      0.000
REMARK  8 active torsions:
REMARK  status: ('A' for Active; 'I' for Inactive)
REMARK    1  A    between atoms: C2_2  and  C4_4 
REMARK    2  A    between atoms: C13_14  and  C14_15 
REMARK    3  A    between atoms: C14_15  and  C15_16 
REMARK    4  A    between atoms: C17_19  and  N1_20 
REMARK       I    between atoms: N1_20  and  C18_21 
REMARK    5  A    between atoms: C18_21  and  O4_23 
REMARK    6  A    between atoms: O4_23  and  C19_24 
REMARK    7  A    between atoms: C23_28  and  C24_29 
REMARK    8  A    between atoms: C25_30  and  O5_31 
ROOT
HETATM    1  C4  UNL     1       9.181  26.724   3.919  1.00  0.00     0.054 C 
HETATM    2  C5  UNL     1       9.027  27.041   5.411  1.00  0.00     0.047 C 
HETATM    3  C6  UNL     1       8.458  28.359   5.788  1.00  0.00     0.152 A 
HETATM    4  O1  UNL     1       8.173  28.249   7.260  1.00  0.00    -0.375 OA
HETATM    5  C7  UNL     1       7.159  28.539   6.404  1.00  0.00     0.155 A 
HETATM    6  C8  UNL     1       6.056  27.682   6.005  1.00  0.00     0.026 C 
HETATM    7  C9  UNL     1       4.824  27.429   6.771  1.00  0.00     0.009 C 
HETATM    8  C10 UNL     1       4.146  26.531   5.698  1.00  0.00     0.011 C 
HETATM    9  C11 UNL     1       4.495  27.032   4.341  1.00  0.00    -0.029 C 
HETATM   10  C12 UNL     1       3.213  27.776   3.847  1.00  0.00     0.016 C 
HETATM   11  C13 UNL     1       4.936  26.122   3.271  1.00  0.00     0.046 C 
HETATM   12  C17 UNL     1       6.031  26.567   2.323  1.00  0.00     0.133 C 
HETATM   13  C22 UNL     1       7.314  25.646   2.292  1.00  0.00     0.092 C 
HETATM   14  C23 UNL     1       8.104  25.797   3.504  1.00  0.00     0.092 C 
HETATM   15  O6  UNL     1       7.130  26.576   4.023  1.00  0.00    -0.366 OA
HETATM   16  C26 UNL     1       6.821  27.571   3.058  1.00  0.00     0.166 C 
HETATM   17  C27 UNL     1       6.152  28.715   3.668  1.00  0.00     0.046 C 
HETATM   18  C28 UNL     1       5.366  28.169   4.790  1.00  0.00    -0.028 C 
HETATM   19  C29 UNL     1       4.521  29.378   5.241  1.00  0.00     0.016 C 
ENDROOT
BRANCH  12  20
HETATM   20  N1  UNL     1       5.657  26.734   1.012  1.00  0.00    -0.375 NA
HETATM   21  C18 UNL     1       5.283  26.898  -0.288  1.00  0.00     0.435 C 
HETATM   22  O3  UNL     1       4.288  26.430  -0.921  1.00  0.00    -0.221 OA
BRANCH  21  23
HETATM   23  O4  UNL     1       6.073  27.720  -1.181  1.00  0.00    -0.288 OA
BRANCH  23  24
HETATM   24  C19 UNL     1       7.447  27.507  -1.252  1.00  0.00     0.126 C 
HETATM   25  C20 UNL     1       8.184  28.291  -0.184  1.00  0.00     0.040 C 
HETATM   26  C21 UNL     1       7.975  27.989  -2.609  1.00  0.00     0.040 C 
ENDBRANCH  23  24
ENDBRANCH  21  23
ENDBRANCH  12  20
BRANCH  11  27
HETATM   27  C14 UNL     1       4.769  24.649   3.394  1.00  0.00     0.086 C 
BRANCH  27  28
HETATM   28  C15 UNL     1       3.613  24.026   2.721  1.00  0.00     0.123 C 
HETATM   29  C16 UNL     1       3.048  22.762   3.336  1.00  0.00     0.091 C 
HETATM   30  O2  UNL     1       3.084  24.423   1.725  1.00  0.00    -0.298 OA
ENDBRANCH  27  28
ENDBRANCH  11  27
BRANCH  14  31
HETATM   31  C24 UNL     1       8.434  24.442   3.897  1.00  0.00     0.035 C 
HETATM   32  C25 UNL     1       8.529  23.207   3.171  1.00  0.00     0.130 C 
BRANCH  32  33
HETATM   33  O5  UNL     1       9.503  23.074   2.172  1.00  0.00    -0.373 OA
ATOM     34  H5  UNL     1      10.288  22.570   2.353  1.00  0.00     0.216 HD
ENDBRANCH  32  33
ENDBRANCH  14  31
BRANCH   1  35
HETATM   35  C2  UNL     1      10.541  26.307   3.538  1.00  0.00    -0.086 C 
HETATM   36  C1  UNL     1      11.055  26.075   2.352  1.00  0.00     0.014 C 
HETATM   37  C3  UNL     1      11.568  26.151   4.655  1.00  0.00     0.043 C 
ENDBRANCH   1  35
TORSDOF 8
ENDMDL
MODEL 2
REMARK VINA RESULT: -6.657320997      2.031      5.762
REMARK  8 active torsions:
REMARK  status: ('A' for Active; 'I' for Inactive)
REMARK    1  A    between atoms: C2_2  and  C4_4 
REMARK    2  A    between atoms: C13_14  and  C14_15 
REMARK    3  A    between atoms: C14_15  and  C15_16 
REMARK    4  A    between atoms: C17_19  and  N1_20 
REMARK       I    between atoms: N1_20  and  C18_21 
REMARK    5  A    between atoms: C18_21  and  O4_23 
REMARK    6  A    between atoms: O4_23  and  C19_24 
REMARK    7  A    between atoms: C23_28  and  C24_29 
REMARK    8  A    between atoms: C25_30  and  O5_31 
ROOT
HETATM    1  C4  UNL     1       9.562  26.074   6.680  1.00  0.00     0.054 C 
HETATM    2  C5  UNL     1      11.056  26.037   6.336  1.00  0.00     0.047 C 
HETATM    3  C6  UNL     1      11.645  24.738   5.924  1.00  0.00     0.152 A 
HETATM    4  O1  UNL     1      13.008  25.084   5.390  1.00  0.00    -0.375 OA
HETATM    5  C7  UNL     1      12.118  24.446   4.587  1.00  0.00     0.155 A 
HETATM    6  C8  UNL     1      11.401  24.985   3.444  1.00  0.00     0.026 C 
HETATM    7  C9  UNL     1      11.930  25.151   2.080  1.00  0.00     0.009 C 
HETATM    8  C10 UNL     1      10.606  25.675   1.454  1.00  0.00     0.011 C 
HETATM    9  C11 UNL     1       9.451  24.987   2.093  1.00  0.00    -0.029 C 
HETATM   10  C12 UNL     1       8.979  23.935   1.039  1.00  0.00     0.016 C 
HETATM   11  C13 UNL     1       8.268  25.732   2.556  1.00  0.00     0.046 C 
HETATM   12  C17 UNL     1       7.590  25.319   3.846  1.00  0.00     0.133 C 
HETATM   13  C22 UNL     1       7.514  26.438   4.958  1.00  0.00     0.092 C 
HETATM   14  C23 UNL     1       8.819  26.681   5.554  1.00  0.00     0.092 C 
HETATM   15  O6  UNL     1       9.372  25.854   4.642  1.00  0.00    -0.366 OA
HETATM   16  C26 UNL     1       8.624  24.647   4.651  1.00  0.00     0.166 C 
HETATM   17  C27 UNL     1       9.387  23.543   4.078  1.00  0.00     0.046 C 
HETATM   18  C28 UNL     1      10.249  24.146   3.045  1.00  0.00    -0.028 C 
HETATM   19  C29 UNL     1      10.851  22.915   2.336  1.00  0.00     0.016 C 
ENDROOT
BRANCH  12  20
HETATM   20  N1  UNL     1       6.313  24.827   3.721  1.00  0.00    -0.375 NA
HETATM   21  C18 UNL     1       5.048  24.336   3.596  1.00  0.00     0.435 C 
HETATM   22  O3  UNL     1       4.607  23.157   3.751  1.00  0.00    -0.221 OA
BRANCH  21  23
HETATM   23  O4  UNL     1       3.952  25.213   3.237  1.00  0.00    -0.288 OA
BRANCH  23  24
HETATM   24  C19 UNL     1       3.874  26.469   3.832  1.00  0.00     0.126 C 
HETATM   25  C20 UNL     1       3.179  26.401   5.177  1.00  0.00     0.040 C 
HETATM   26  C21 UNL     1       3.048  27.408   2.945  1.00  0.00     0.040 C 
ENDBRANCH  23  24
ENDBRANCH  21  23
ENDBRANCH  12  20
BRANCH  11  27
HETATM   27  C14 UNL     1       8.036  27.143   2.144  1.00  0.00     0.086 C 
BRANCH  27  28
HETATM   28  C15 UNL     1       7.112  27.391   1.020  1.00  0.00     0.123 C 
HETATM   29  C16 UNL     1       7.727  27.721  -0.325  1.00  0.00     0.091 C 
HETATM   30  O2  UNL     1       5.919  27.365   1.074  1.00  0.00    -0.298 OA
ENDBRANCH  27  28
ENDBRANCH  11  27
BRANCH  14  31
HETATM   31  C24 UNL     1       8.935  28.125   5.601  1.00  0.00     0.035 C 
HETATM   32  C25 UNL     1       7.970  29.188   5.574  1.00  0.00     0.130 C 
BRANCH  32  33
HETATM   33  O5  UNL     1       7.049  29.304   6.623  1.00  0.00    -0.373 OA
ATOM     34  H5  UNL     1       6.254  29.807   6.491  1.00  0.00     0.216 HD
ENDBRANCH  32  33
ENDBRANCH  14  31
BRANCH   1  35
HETATM   35  C2  UNL     1       9.271  26.652   8.002  1.00  0.00    -0.086 C 
HETATM   36  C1  UNL     1       8.121  26.885   8.591  1.00  0.00     0.014 C 
HETATM   37  C3  UNL     1      10.459  27.012   8.890  1.00  0.00     0.043 C 
ENDBRANCH   1  35
TORSDOF 8
ENDMDL
MODEL 3
REMARK VINA RESULT: -6.628098318      1.538      2.063
REMARK  8 active torsions:
REMARK  status: ('A' for Active; 'I' for Inactive)
REMARK    1  A    between atoms: C2_2  and  C4_4 
REMARK    2  A    between atoms: C13_14  and  C14_15 
REMARK    3  A    between atoms: C14_15  and  C15_16 
REMARK    4  A    between atoms: C17_19  and  N1_20 
REMARK       I    between atoms: N1_20  and  C18_21 
REMARK    5  A    between atoms: C18_21  and  O4_23 
REMARK    6  A    between atoms: O4_23  and  C19_24 
REMARK    7  A    between atoms: C23_28  and  C24_29 
REMARK    8  A    between atoms: C25_30  and  O5_31 
ROOT
HETATM    1  C4  UNL     1      10.149  26.520   5.591  1.00  0.00     0.054 C 
HETATM    2  C5  UNL     1       9.478  26.536   6.970  1.00  0.00     0.047 C 
HETATM    3  C6  UNL     1       8.892  27.815   7.445  1.00  0.00     0.152 A 
HETATM    4  O1  UNL     1       8.081  27.442   8.654  1.00  0.00    -0.375 OA
HETATM    5  C7  UNL     1       7.472  28.051   7.603  1.00  0.00     0.155 A 
HETATM    6  C8  UNL     1       6.542  27.468   6.651  1.00  0.00     0.026 C 
HETATM    7  C9  UNL     1       5.102  27.244   6.862  1.00  0.00     0.009 C 
HETATM    8  C10 UNL     1       4.811  26.701   5.435  1.00  0.00     0.011 C 
HETATM    9  C11 UNL     1       5.664  27.419   4.449  1.00  0.00    -0.029 C 
HETATM   10  C12 UNL     1       4.701  28.430   3.747  1.00  0.00     0.016 C 
HETATM   11  C13 UNL     1       6.410  26.698   3.404  1.00  0.00     0.046 C 
HETATM   12  C17 UNL     1       7.802  27.166   3.029  1.00  0.00     0.133 C 
HETATM   13  C22 UNL     1       8.947  26.094   3.210  1.00  0.00     0.092 C 
HETATM   14  C23 UNL     1       9.245  25.870   4.617  1.00  0.00     0.092 C 
HETATM   15  O6  UNL     1       8.198  26.658   4.947  1.00  0.00    -0.366 OA
HETATM   16  C26 UNL     1       8.326  27.867   4.215  1.00  0.00     0.166 C 
HETATM   17  C27 UNL     1       7.552  28.943   4.824  1.00  0.00     0.046 C 
HETATM   18  C28 UNL     1       6.377  28.295   5.435  1.00  0.00    -0.028 C 
HETATM   19  C29 UNL     1       5.502  29.494   5.856  1.00  0.00     0.016 C 
ENDROOT
BRANCH  12  20
HETATM   20  N1  UNL     1       7.946  27.658   1.755  1.00  0.00    -0.375 NA
HETATM   21  C18 UNL     1       8.090  28.149   0.492  1.00  0.00     0.435 C 
HETATM   22  O3  UNL     1       8.665  29.202   0.081  1.00  0.00    -0.221 OA
BRANCH  21  23
HETATM   23  O4  UNL     1       7.539  27.433  -0.641  1.00  0.00    -0.288 OA
BRANCH  23  24
HETATM   24  C19 UNL     1       7.434  28.090  -1.864  1.00  0.00     0.126 C 
HETATM   25  C20 UNL     1       6.070  27.874  -2.491  1.00  0.00     0.040 C 
HETATM   26  C21 UNL     1       8.472  27.529  -2.842  1.00  0.00     0.040 C 
ENDBRANCH  23  24
ENDBRANCH  21  23
ENDBRANCH  12  20
BRANCH  11  27
HETATM   27  C14 UNL     1       6.119  25.273   3.092  1.00  0.00     0.086 C 
BRANCH  27  28
HETATM   28  C15 UNL     1       4.982  24.980   2.197  1.00  0.00     0.123 C 
HETATM   29  C16 UNL     1       5.013  25.593   0.811  1.00  0.00     0.091 C 
HETATM   30  O2  UNL     1       4.030  24.311   2.469  1.00  0.00    -0.298 OA
ENDBRANCH  27  28
ENDBRANCH  11  27
BRANCH  14  31
HETATM   31  C24 UNL     1       9.323  24.429   4.748  1.00  0.00     0.035 C 
HETATM   32  C25 UNL     1       9.656  23.378   3.829  1.00  0.00     0.130 C 
BRANCH  32  33
HETATM   33  O5  UNL     1      10.948  23.323   3.290  1.00  0.00    -0.373 OA
ATOM     34  H5  UNL     1      11.063  23.063   2.384  1.00  0.00     0.216 HD
ENDBRANCH  32  33
ENDBRANCH  14  31
BRANCH   1  35
HETATM   35  C2  UNL     1      11.525  25.998   5.607  1.00  0.00    -0.086 C 
HETATM   36  C1  UNL     1      12.484  26.108   4.717  1.00  0.00     0.014 C 
HETATM   37  C3  UNL     1      11.976  25.239   6.852  1.00  0.00     0.043 C 
ENDBRANCH   1  35
TORSDOF 8
ENDMDL
MODEL 4
REMARK VINA RESULT: -6.123441741     11.584     16.293
REMARK  8 active torsions:
REMARK  status: ('A' for Active; 'I' for Inactive)
REMARK    1  A    between atoms: C2_2  and  C4_4 
REMARK    2  A    between atoms: C13_14  and  C14_15 
REMARK    3  A    between atoms: C14_15  and  C15_16 
REMARK    4  A    between atoms: C17_19  and  N1_20 
REMARK       I    between atoms: N1_20  and  C18_21 
REMARK    5  A    between atoms: C18_21  and  O4_23 
REMARK    6  A    between atoms: O4_23  and  C19_24 
REMARK    7  A    between atoms: C23_28  and  C24_29 
REMARK    8  A    between atoms: C25_30  and  O5_31 
ROOT
HETATM    1  C4  UNL     1      17.269  20.837   6.203  1.00  0.00     0.054 C 
HETATM    2  C5  UNL     1      16.929  19.522   5.491  1.00  0.00     0.047 C 
HETATM    3  C6  UNL     1      18.046  18.732   4.915  1.00  0.00     0.152 A 
HETATM    4  O1  UNL     1      17.436  17.404   4.559  1.00  0.00    -0.375 OA
HETATM    5  C7  UNL     1      18.483  17.448   5.424  1.00  0.00     0.155 A 
HETATM    6  C8  UNL     1      18.467  17.207   6.856  1.00  0.00     0.026 C 
HETATM    7  C9  UNL     1      18.469  15.893   7.521  1.00  0.00     0.009 C 
HETATM    8  C10 UNL     1      18.532  16.445   8.973  1.00  0.00     0.011 C 
HETATM    9  C11 UNL     1      19.370  17.674   8.999  1.00  0.00    -0.029 C 
HETATM   10  C12 UNL     1      20.731  17.219   9.618  1.00  0.00     0.016 C 
HETATM   11  C13 UNL     1      18.934  18.892   9.703  1.00  0.00     0.046 C 
HETATM   12  C17 UNL     1      19.222  20.247   9.089  1.00  0.00     0.133 C 
HETATM   13  C22 UNL     1      17.954  21.142   8.798  1.00  0.00     0.092 C 
HETATM   14  C23 UNL     1      17.194  20.631   7.666  1.00  0.00     0.092 C 
HETATM   15  O6  UNL     1      18.003  19.549   7.632  1.00  0.00    -0.366 OA
HETATM   16  C26 UNL     1      19.343  20.018   7.638  1.00  0.00     0.166 C 
HETATM   17  C27 UNL     1      20.264  19.003   7.138  1.00  0.00     0.046 C 
HETATM   18  C28 UNL     1      19.685  17.706   7.533  1.00  0.00    -0.028 C 
HETATM   19  C29 UNL     1      20.804  16.706   7.178  1.00  0.00     0.016 C 
ENDROOT
BRANCH  12  20
HETATM   20  N1  UNL     1      20.094  21.047   9.787  1.00  0.00    -0.375 NA
HETATM   21  C18 UNL     1      20.958  21.844  10.477  1.00  0.00     0.435 C 
HETATM   22  O3  UNL     1      21.153  23.096  10.410  1.00  0.00    -0.221 OA
BRANCH  21  23
HETATM   23  O4  UNL     1      21.840  21.277  11.476  1.00  0.00    -0.288 OA
BRANCH  23  24
HETATM   24  C19 UNL     1      22.280  22.085  12.521  1.00  0.00     0.126 C 
HETATM   25  C20 UNL     1      23.794  22.165  12.558  1.00  0.00     0.040 C 
HETATM   26  C21 UNL     1      21.828  21.489  13.859  1.00  0.00     0.040 C 
ENDBRANCH  23  24
ENDBRANCH  21  23
ENDBRANCH  12  20
BRANCH  11  27
HETATM   27  C14 UNL     1      17.796  18.864  10.661  1.00  0.00     0.086 C 
BRANCH  27  28
HETATM   28  C15 UNL     1      18.093  18.566  12.076  1.00  0.00     0.123 C 
HETATM   29  C16 UNL     1      18.700  19.678  12.907  1.00  0.00     0.091 C 
HETATM   30  O2  UNL     1      17.907  17.521  12.626  1.00  0.00    -0.298 OA
ENDBRANCH  27  28
ENDBRANCH  11  27
BRANCH  14  31
HETATM   31  C24 UNL     1      15.814  20.670   8.105  1.00  0.00     0.035 C 
HETATM   32  C25 UNL     1      15.129  21.423   9.118  1.00  0.00     0.130 C 
BRANCH  32  33
HETATM   33  O5  UNL     1      15.052  22.817   9.001  1.00  0.00    -0.373 OA
ATOM     34  H5  UNL     1      15.459  23.362   9.665  1.00  0.00     0.216 HD
ENDBRANCH  32  33
ENDBRANCH  14  31
BRANCH   1  35
HETATM   35  C2  UNL     1      16.517  21.997   5.699  1.00  0.00    -0.086 C 
HETATM   36  C1  UNL     1      16.616  23.270   6.005  1.00  0.00     0.014 C 
HETATM   37  C3  UNL     1      15.476  21.743   4.612  1.00  0.00     0.043 C 
ENDBRANCH   1  35
TORSDOF 8
ENDMDL
MODEL 5
REMARK VINA RESULT: -6.028185349     11.736     16.337
REMARK  8 active torsions:
REMARK  status: ('A' for Active; 'I' for Inactive)
REMARK    1  A    between atoms: C2_2  and  C4_4 
REMARK    2  A    between atoms: C13_14  and  C14_15 
REMARK    3  A    between atoms: C14_15  and  C15_16 
REMARK    4  A    between atoms: C17_19  and  N1_20 
REMARK       I    between atoms: N1_20  and  C18_21 
REMARK    5  A    between atoms: C18_21  and  O4_23 
REMARK    6  A    between atoms: O4_23  and  C19_24 
REMARK    7  A    between atoms: C23_28  and  C24_29 
REMARK    8  A    between atoms: C25_30  and  O5_31 
ROOT
HETATM    1  C4  UNL     1      17.621  21.265   7.006  1.00  0.00     0.054 C 
HETATM    2  C5  UNL     1      17.415  20.288   5.843  1.00  0.00     0.047 C 
HETATM    3  C6  UNL     1      18.619  19.676   5.225  1.00  0.00     0.152 A 
HETATM    4  O1  UNL     1      18.086  18.582   4.342  1.00  0.00    -0.375 OA
HETATM    5  C7  UNL     1      18.965  18.274   5.330  1.00  0.00     0.155 A 
HETATM    6  C8  UNL     1      18.700  17.566   6.571  1.00  0.00     0.026 C 
HETATM    7  C9  UNL     1      18.590  16.107   6.738  1.00  0.00     0.009 C 
HETATM    8  C10 UNL     1      18.397  16.133   8.280  1.00  0.00     0.011 C 
HETATM    9  C11 UNL     1      19.213  17.233   8.863  1.00  0.00    -0.029 C 
HETATM   10  C12 UNL     1      20.446  16.520   9.505  1.00  0.00     0.016 C 
HETATM   11  C13 UNL     1      18.656  18.166   9.857  1.00  0.00     0.046 C 
HETATM   12  C17 UNL     1      19.042  19.630   9.799  1.00  0.00     0.133 C 
HETATM   13  C22 UNL     1      17.840  20.640   9.625  1.00  0.00     0.092 C 
HETATM   14  C23 UNL     1      17.292  20.583   8.278  1.00  0.00     0.092 C 
HETATM   15  O6  UNL     1      18.098  19.532   8.011  1.00  0.00    -0.366 OA
HETATM   16  C26 UNL     1      19.415  19.896   8.398  1.00  0.00     0.166 C 
HETATM   17  C27 UNL     1      20.414  19.059   7.741  1.00  0.00     0.046 C 
HETATM   18  C28 UNL     1      19.779  17.739   7.569  1.00  0.00    -0.028 C 
HETATM   19  C29 UNL     1      20.947  16.855   7.084  1.00  0.00     0.016 C 
ENDROOT
BRANCH  12  20
HETATM   20  N1  UNL     1      19.775  20.098  10.862  1.00  0.00    -0.375 NA
HETATM   21  C18 UNL     1      20.499  20.563  11.919  1.00  0.00     0.435 C 
HETATM   22  O3  UNL     1      20.170  20.722  13.133  1.00  0.00    -0.221 OA
BRANCH  21  23
HETATM   23  O4  UNL     1      21.880  20.965  11.742  1.00  0.00    -0.288 OA
BRANCH  23  24
HETATM   24  C19 UNL     1      22.245  22.271  12.056  1.00  0.00     0.126 C 
HETATM   25  C20 UNL     1      21.987  23.211  10.895  1.00  0.00     0.040 C 
HETATM   26  C21 UNL     1      23.747  22.328  12.358  1.00  0.00     0.040 C 
ENDBRANCH  23  24
ENDBRANCH  21  23
ENDBRANCH  12  20
BRANCH  11  27
HETATM   27  C14 UNL     1      17.368  17.880  10.546  1.00  0.00     0.086 C 
BRANCH  27  28
HETATM   28  C15 UNL     1      17.423  17.402  11.941  1.00  0.00     0.123 C 
HETATM   29  C16 UNL     1      16.645  16.145  12.276  1.00  0.00     0.091 C 
HETATM   30  O2  UNL     1      18.018  17.921  12.837  1.00  0.00    -0.298 OA
ENDBRANCH  27  28
ENDBRANCH  11  27
BRANCH  14  31
HETATM   31  C24 UNL     1      15.856  20.550   8.469  1.00  0.00     0.035 C 
HETATM   32  C25 UNL     1      14.995  21.035   9.510  1.00  0.00     0.130 C 
BRANCH  32  33
HETATM   33  O5  UNL     1      14.918  22.414   9.748  1.00  0.00    -0.373 OA
ATOM     34  H5  UNL     1      15.524  22.814  10.361  1.00  0.00     0.216 HD
ENDBRANCH  32  33
ENDBRANCH  14  31
BRANCH   1  35
HETATM   35  C2  UNL     1      16.964  22.568   6.811  1.00  0.00    -0.086 C 
HETATM   36  C1  UNL     1      17.031  23.666   7.527  1.00  0.00     0.014 C 
HETATM   37  C3  UNL     1      16.092  22.737   5.570  1.00  0.00     0.043 C 
ENDBRANCH   1  35
TORSDOF 8
ENDMDL
