MODEL 1
REMARK VINA RESULT: -9.332769759      0.000      0.000
REMARK  17 active torsions:
REMARK  status: ('A' for Active; 'I' for Inactive)
REMARK    1  A    between atoms: C2_2  and  C3_3 
REMARK    2  A    between atoms: C4_4  and  C5_5 
REMARK    3  A    between atoms: C5_5  and  C8_8 
REMARK    4  A    between atoms: C8_8  and  C9_9 
REMARK    5  A    between atoms: C9_9  and  C10_10 
REMARK       I    between atoms: C10_10  and  N1_12 
REMARK    6  A    between atoms: N1_12  and  C11_14 
REMARK    7  A    between atoms: C11_14  and  C12_15 
REMARK    8  A    between atoms: C12_15  and  C13_16 
REMARK    9  A    between atoms: C13_16  and  C14_17 
REMARK   10  A    between atoms: C14_17  and  C15_18 
REMARK   11  A    between atoms: C15_18  and  N2_21 
REMARK       I    between atoms: N2_21  and  C18_23 
REMARK       I    between atoms: C18_23  and  N3_25 
REMARK       I    between atoms: N3_25  and  C19_27 
REMARK   12  A    between atoms: C19_27  and  C20_29 
REMARK   13  A    between atoms: C20_29  and  C21_30 
REMARK   14  A    between atoms: C26_37  and  C28_39 
REMARK   15  A    between atoms: C28_39  and  C29_40 
REMARK   16  A    between atoms: C29_40  and  C30_41 
REMARK   17  A    between atoms: C36_47  and  O6_49 
ROOT
HETATM    1  N2  UNL     1      -5.658  18.202  28.190  1.00  0.00    -0.334 N 
ATOM      2  H2  UNL     1      -5.222  17.793  29.017  1.00  0.00     0.165 HD
HETATM    3  C18 UNL     1      -7.013  18.497  28.214  1.00  0.00     0.323 C 
HETATM    4  O2  UNL     1      -7.530  19.019  27.149  1.00  0.00    -0.247 OA
HETATM    5  N3  UNL     1      -7.927  18.307  29.257  1.00  0.00    -0.279 N 
ATOM      6  H3  UNL     1      -8.881  18.638  29.117  1.00  0.00     0.173 HD
HETATM    7  C19 UNL     1      -7.614  17.678  30.515  1.00  0.00     0.226 C 
HETATM    8  O3  UNL     1      -6.443  17.313  30.699  1.00  0.00    -0.273 OA
ENDROOT
BRANCH   7   9
HETATM    9  C20 UNL     1      -8.713  17.510  31.491  1.00  0.00     0.118 C 
BRANCH   9  10
HETATM   10  C21 UNL     1      -8.791  16.356  32.349  1.00  0.00     0.105 C 
HETATM   11  C22 UNL     1      -9.048  16.892  33.751  1.00  0.00     0.265 C 
HETATM   12  O4  UNL     1      -8.232  17.472  34.505  1.00  0.00    -0.265 OA
HETATM   13  O5  UNL     1     -10.386  16.570  33.953  1.00  0.00    -0.310 OA
HETATM   14  C23 UNL     1     -10.658  15.311  33.358  1.00  0.00     0.071 C 
HETATM   15  C24 UNL     1     -12.088  15.128  32.944  1.00  0.00     0.047 C 
HETATM   16  C25 UNL     1     -10.525  14.319  34.532  1.00  0.00     0.047 C 
HETATM   17  C26 UNL     1      -9.609  15.187  32.326  1.00  0.00     0.000 C 
HETATM   18  C27 UNL     1      -8.663  14.082  32.966  1.00  0.00     0.019 C 
BRANCH  17  19
HETATM   19  C28 UNL     1      -9.966  14.453  31.088  1.00  0.00     0.013 C 
BRANCH  19  20
HETATM   20  C29 UNL     1     -10.670  15.111  29.984  1.00  0.00     0.008 C 
BRANCH  20  21
HETATM   21  C30 UNL     1     -11.510  14.165  29.147  1.00  0.00     0.019 C 
HETATM   22  C31 UNL     1     -12.020  12.964  29.878  1.00  0.00     0.008 C 
HETATM   23  C32 UNL     1     -13.491  13.131  30.251  1.00  0.00     0.005 C 
HETATM   24  C33 UNL     1     -14.301  13.404  29.031  1.00  0.00    -0.016 C 
HETATM   25  C34 UNL     1     -15.341  14.437  29.341  1.00  0.00     0.010 C 
HETATM   26  C35 UNL     1     -13.485  13.734  27.805  1.00  0.00     0.042 C 
HETATM   27  C36 UNL     1     -12.463  14.802  28.205  1.00  0.00     0.058 C 
HETATM   28  C37 UNL     1     -11.763  15.241  26.928  1.00  0.00     0.046 C 
BRANCH  27  29
HETATM   29  O6  UNL     1     -13.197  15.862  28.640  1.00  0.00    -0.390 OA
ATOM     30  H6  UNL     1     -12.743  16.593  29.042  1.00  0.00     0.210 HD
ENDBRANCH  27  29
ENDBRANCH  20  21
ENDBRANCH  19  20
ENDBRANCH  17  19
ENDBRANCH   9  10
ENDBRANCH   7   9
BRANCH   1  31
HETATM   31  C15 UNL     1      -4.834  18.462  27.002  1.00  0.00     0.027 C 
HETATM   32  C16 UNL     1      -3.408  18.155  27.305  1.00  0.00     0.038 C 
HETATM   33  C17 UNL     1      -5.244  17.418  25.923  1.00  0.00     0.038 C 
BRANCH  31  34
HETATM   34  C14 UNL     1      -5.142  19.833  26.502  1.00  0.00     0.030 C 
BRANCH  34  35
HETATM   35  C13 UNL     1      -4.383  20.322  25.326  1.00  0.00     0.004 C 
BRANCH  35  36
HETATM   36  C12 UNL     1      -5.201  20.651  24.147  1.00  0.00     0.020 C 
BRANCH  36  37
HETATM   37  C11 UNL     1      -5.111  19.598  23.057  1.00  0.00     0.122 C 
BRANCH  37  38
HETATM   38  N1  UNL     1      -6.405  18.995  22.894  1.00  0.00    -0.361 N 
HETATM   39  C10 UNL     1      -6.663  17.961  21.964  1.00  0.00     0.217 C 
HETATM   40  O1  UNL     1      -5.695  17.583  21.236  1.00  0.00    -0.274 OA
ATOM     41  H1  UNL     1      -7.174  19.329  23.476  1.00  0.00     0.162 HD
BRANCH  39  42
HETATM   42  C9  UNL     1      -7.975  17.305  21.791  1.00  0.00     0.103 C 
BRANCH  42  43
HETATM   43  C8  UNL     1      -8.524  16.973  23.159  1.00  0.00     0.022 C 
BRANCH  43  44
HETATM   44  C5  UNL     1      -9.067  15.596  23.303  1.00  0.00    -0.030 C 
HETATM   45  C6  UNL     1      -8.458  14.730  22.227  1.00  0.00     0.019 C 
HETATM   46  C7  UNL     1     -10.582  15.605  23.167  1.00  0.00     0.019 C 
BRANCH  44  47
HETATM   47  C4  UNL     1      -8.727  15.080  24.656  1.00  0.00    -0.018 C 
HETATM   48  C3  UNL     1      -8.462  15.913  25.641  1.00  0.00    -0.004 C 
BRANCH  48  49
HETATM   49  C2  UNL     1      -8.124  15.494  26.981  1.00  0.00    -0.011 C 
HETATM   50  C1  UNL     1      -8.263  14.228  27.340  1.00  0.00     0.011 C 
ENDBRANCH  48  49
ENDBRANCH  44  47
ENDBRANCH  43  44
ENDBRANCH  42  43
ENDBRANCH  39  42
ENDBRANCH  37  38
ENDBRANCH  36  37
ENDBRANCH  35  36
ENDBRANCH  34  35
ENDBRANCH  31  34
ENDBRANCH   1  31
TORSDOF 17
ENDMDL
MODEL 2
REMARK VINA RESULT: -9.296883891      2.101      5.737
REMARK  17 active torsions:
REMARK  status: ('A' for Active; 'I' for Inactive)
REMARK    1  A    between atoms: C2_2  and  C3_3 
REMARK    2  A    between atoms: C4_4  and  C5_5 
REMARK    3  A    between atoms: C5_5  and  C8_8 
REMARK    4  A    between atoms: C8_8  and  C9_9 
REMARK    5  A    between atoms: C9_9  and  C10_10 
REMARK       I    between atoms: C10_10  and  N1_12 
REMARK    6  A    between atoms: N1_12  and  C11_14 
REMARK    7  A    between atoms: C11_14  and  C12_15 
REMARK    8  A    between atoms: C12_15  and  C13_16 
REMARK    9  A    between atoms: C13_16  and  C14_17 
REMARK   10  A    between atoms: C14_17  and  C15_18 
REMARK   11  A    between atoms: C15_18  and  N2_21 
REMARK       I    between atoms: N2_21  and  C18_23 
REMARK       I    between atoms: C18_23  and  N3_25 
REMARK       I    between atoms: N3_25  and  C19_27 
REMARK   12  A    between atoms: C19_27  and  C20_29 
REMARK   13  A    between atoms: C20_29  and  C21_30 
REMARK   14  A    between atoms: C26_37  and  C28_39 
REMARK   15  A    between atoms: C28_39  and  C29_40 
REMARK   16  A    between atoms: C29_40  and  C30_41 
REMARK   17  A    between atoms: C36_47  and  O6_49 
ROOT
HETATM    1  N2  UNL     1      -9.422  15.303  25.029  1.00  0.00    -0.334 N 
ATOM      2  H2  UNL     1      -8.749  14.713  25.518  1.00  0.00     0.165 HD
HETATM    3  C18 UNL     1     -10.577  15.702  25.686  1.00  0.00     0.323 C 
HETATM    4  O2  UNL     1     -11.405  16.454  25.037  1.00  0.00    -0.247 OA
HETATM    5  N3  UNL     1     -10.984  15.399  26.991  1.00  0.00    -0.279 N 
ATOM      6  H3  UNL     1     -11.844  15.829  27.330  1.00  0.00     0.173 HD
HETATM    7  C19 UNL     1     -10.274  14.523  27.887  1.00  0.00     0.226 C 
HETATM    8  O3  UNL     1      -9.207  14.033  27.487  1.00  0.00    -0.273 OA
ENDROOT
BRANCH   7   9
HETATM    9  C20 UNL     1     -10.872  14.269  29.217  1.00  0.00     0.118 C 
BRANCH   9  10
HETATM   10  C21 UNL     1     -12.270  13.958  29.369  1.00  0.00     0.105 C 
HETATM   11  C22 UNL     1     -12.487  12.640  28.638  1.00  0.00     0.265 C 
HETATM   12  O4  UNL     1     -12.519  12.454  27.398  1.00  0.00    -0.265 OA
HETATM   13  O5  UNL     1     -12.637  11.738  29.686  1.00  0.00    -0.310 OA
HETATM   14  C23 UNL     1     -13.350  12.363  30.741  1.00  0.00     0.071 C 
HETATM   15  C24 UNL     1     -13.053  11.796  32.099  1.00  0.00     0.047 C 
HETATM   16  C25 UNL     1     -14.808  11.913  30.509  1.00  0.00     0.047 C 
HETATM   17  C26 UNL     1     -13.106  13.801  30.514  1.00  0.00     0.000 C 
HETATM   18  C27 UNL     1     -14.524  14.284  29.983  1.00  0.00     0.019 C 
BRANCH  17  19
HETATM   19  C28 UNL     1     -13.035  14.670  31.714  1.00  0.00     0.013 C 
BRANCH  19  20
HETATM   20  C29 UNL     1     -11.831  15.445  32.027  1.00  0.00     0.008 C 
BRANCH  20  21
HETATM   21  C30 UNL     1     -10.862  14.722  32.943  1.00  0.00     0.019 C 
HETATM   22  C31 UNL     1      -9.461  14.628  32.427  1.00  0.00     0.008 C 
HETATM   23  C32 UNL     1      -8.554  15.650  33.109  1.00  0.00     0.005 C 
HETATM   24  C33 UNL     1      -8.598  15.467  34.586  1.00  0.00    -0.016 C 
HETATM   25  C34 UNL     1      -8.607  16.807  35.257  1.00  0.00     0.010 C 
HETATM   26  C35 UNL     1      -9.702  14.556  35.068  1.00  0.00     0.042 C 
HETATM   27  C36 UNL     1     -11.000  15.009  34.392  1.00  0.00     0.058 C 
HETATM   28  C37 UNL     1     -12.124  14.192  35.010  1.00  0.00     0.046 C 
BRANCH  27  29
HETATM   29  O6  UNL     1     -11.184  16.298  34.785  1.00  0.00    -0.390 OA
ATOM     30  H6  UNL     1     -12.071  16.607  34.926  1.00  0.00     0.210 HD
ENDBRANCH  27  29
ENDBRANCH  20  21
ENDBRANCH  19  20
ENDBRANCH  17  19
ENDBRANCH   9  10
ENDBRANCH   7   9
BRANCH   1  31
HETATM   31  C15 UNL     1      -9.144  15.710  23.645  1.00  0.00     0.027 C 
HETATM   32  C16 UNL     1      -8.341  14.656  22.965  1.00  0.00     0.038 C 
HETATM   33  C17 UNL     1     -10.505  15.720  22.890  1.00  0.00     0.038 C 
BRANCH  31  34
HETATM   34  C14 UNL     1      -8.581  17.091  23.660  1.00  0.00     0.030 C 
BRANCH  34  35
HETATM   35  C13 UNL     1      -7.136  17.246  23.362  1.00  0.00     0.004 C 
BRANCH  35  36
HETATM   36  C12 UNL     1      -6.812  18.265  22.350  1.00  0.00     0.020 C 
BRANCH  36  37
HETATM   37  C11 UNL     1      -6.125  19.482  22.943  1.00  0.00     0.122 C 
BRANCH  37  38
HETATM   38  N1  UNL     1      -5.842  19.219  24.328  1.00  0.00    -0.361 N 
HETATM   39  C10 UNL     1      -4.962  20.012  25.100  1.00  0.00     0.217 C 
HETATM   40  O1  UNL     1      -4.391  20.981  24.512  1.00  0.00    -0.274 OA
ATOM     41  H1  UNL     1      -6.298  18.423  24.774  1.00  0.00     0.162 HD
BRANCH  39  42
HETATM   42  C9  UNL     1      -4.672  19.782  26.530  1.00  0.00     0.103 C 
BRANCH  42  43
HETATM   43  C8  UNL     1      -5.915  19.228  27.184  1.00  0.00     0.022 C 
BRANCH  43  44
HETATM   44  C5  UNL     1      -5.746  17.902  27.837  1.00  0.00    -0.030 C 
HETATM   45  C6  UNL     1      -4.307  17.765  28.269  1.00  0.00     0.019 C 
HETATM   46  C7  UNL     1      -6.107  16.784  26.870  1.00  0.00     0.019 C 
BRANCH  44  47
HETATM   47  C4  UNL     1      -6.662  17.816  29.005  1.00  0.00    -0.018 C 
HETATM   48  C3  UNL     1      -7.917  17.451  28.844  1.00  0.00    -0.004 C 
BRANCH  48  49
HETATM   49  C2  UNL     1      -8.870  17.343  29.925  1.00  0.00    -0.011 C 
HETATM   50  C1  UNL     1     -10.131  17.701  29.742  1.00  0.00     0.011 C 
ENDBRANCH  48  49
ENDBRANCH  44  47
ENDBRANCH  43  44
ENDBRANCH  42  43
ENDBRANCH  39  42
ENDBRANCH  37  38
ENDBRANCH  36  37
ENDBRANCH  35  36
ENDBRANCH  34  35
ENDBRANCH  31  34
ENDBRANCH   1  31
TORSDOF 17
ENDMDL
MODEL 3
REMARK VINA RESULT: -8.910442756      2.886     10.063
REMARK  17 active torsions:
REMARK  status: ('A' for Active; 'I' for Inactive)
REMARK    1  A    between atoms: C2_2  and  C3_3 
REMARK    2  A    between atoms: C4_4  and  C5_5 
REMARK    3  A    between atoms: C5_5  and  C8_8 
REMARK    4  A    between atoms: C8_8  and  C9_9 
REMARK    5  A    between atoms: C9_9  and  C10_10 
REMARK       I    between atoms: C10_10  and  N1_12 
REMARK    6  A    between atoms: N1_12  and  C11_14 
REMARK    7  A    between atoms: C11_14  and  C12_15 
REMARK    8  A    between atoms: C12_15  and  C13_16 
REMARK    9  A    between atoms: C13_16  and  C14_17 
REMARK   10  A    between atoms: C14_17  and  C15_18 
REMARK   11  A    between atoms: C15_18  and  N2_21 
REMARK       I    between atoms: N2_21  and  C18_23 
REMARK       I    between atoms: C18_23  and  N3_25 
REMARK       I    between atoms: N3_25  and  C19_27 
REMARK   12  A    between atoms: C19_27  and  C20_29 
REMARK   13  A    between atoms: C20_29  and  C21_30 
REMARK   14  A    between atoms: C26_37  and  C28_39 
REMARK   15  A    between atoms: C28_39  and  C29_40 
REMARK   16  A    between atoms: C29_40  and  C30_41 
REMARK   17  A    between atoms: C36_47  and  O6_49 
ROOT
HETATM    1  N2  UNL     1     -12.206  14.493  28.739  1.00  0.00    -0.334 N 
ATOM      2  H2  UNL     1     -11.867  15.233  29.354  1.00  0.00     0.165 HD
HETATM    3  C18 UNL     1     -11.333  13.919  27.825  1.00  0.00     0.323 C 
HETATM    4  O2  UNL     1     -11.795  12.980  27.066  1.00  0.00    -0.247 OA
HETATM    5  N3  UNL     1      -9.984  14.220  27.604  1.00  0.00    -0.279 N 
ATOM      6  H3  UNL     1      -9.478  13.653  26.924  1.00  0.00     0.173 HD
HETATM    7  C19 UNL     1      -9.260  15.272  28.269  1.00  0.00     0.226 C 
HETATM    8  O3  UNL     1      -9.866  15.935  29.125  1.00  0.00    -0.273 OA
ENDROOT
BRANCH   7   9
HETATM    9  C20 UNL     1      -7.850  15.489  27.879  1.00  0.00     0.118 C 
BRANCH   9  10
HETATM   10  C21 UNL     1      -7.280  16.811  27.809  1.00  0.00     0.105 C 
HETATM   11  C22 UNL     1      -6.525  17.011  29.116  1.00  0.00     0.265 C 
HETATM   12  O4  UNL     1      -7.013  17.216  30.253  1.00  0.00    -0.265 OA
HETATM   13  O5  UNL     1      -5.197  16.909  28.714  1.00  0.00    -0.310 OA
HETATM   14  C23 UNL     1      -5.051  17.508  27.436  1.00  0.00     0.071 C 
HETATM   15  C24 UNL     1      -3.915  16.951  26.628  1.00  0.00     0.047 C 
HETATM   16  C25 UNL     1      -4.557  18.933  27.758  1.00  0.00     0.047 C 
HETATM   17  C26 UNL     1      -6.412  17.441  26.869  1.00  0.00     0.000 C 
HETATM   18  C27 UNL     1      -6.861  18.964  26.941  1.00  0.00     0.019 C 
BRANCH  17  19
HETATM   19  C28 UNL     1      -6.522  17.270  25.400  1.00  0.00     0.013 C 
BRANCH  19  20
HETATM   20  C29 UNL     1      -7.459  16.309  24.809  1.00  0.00     0.008 C 
BRANCH  20  21
HETATM   21  C30 UNL     1      -8.212  16.852  23.610  1.00  0.00     0.019 C 
HETATM   22  C31 UNL     1      -7.598  18.059  22.975  1.00  0.00     0.008 C 
HETATM   23  C32 UNL     1      -6.849  17.686  21.698  1.00  0.00     0.005 C 
HETATM   24  C33 UNL     1      -7.764  16.987  20.754  1.00  0.00    -0.016 C 
HETATM   25  C34 UNL     1      -7.031  15.863  20.087  1.00  0.00     0.010 C 
HETATM   26  C35 UNL     1      -9.077  16.560  21.362  1.00  0.00     0.042 C 
HETATM   27  C36 UNL     1      -8.764  15.839  22.677  1.00  0.00     0.058 C 
HETATM   28  C37 UNL     1     -10.079  15.274  23.192  1.00  0.00     0.046 C 
BRANCH  27  29
HETATM   29  O6  UNL     1      -7.983  14.779  22.332  1.00  0.00    -0.390 OA
ATOM     30  H6  UNL     1      -8.310  13.903  22.498  1.00  0.00     0.210 HD
ENDBRANCH  27  29
ENDBRANCH  20  21
ENDBRANCH  19  20
ENDBRANCH  17  19
ENDBRANCH   9  10
ENDBRANCH   7   9
BRANCH   1  31
HETATM   31  C15 UNL     1     -13.606  14.060  28.842  1.00  0.00     0.027 C 
HETATM   32  C16 UNL     1     -14.152  14.446  30.173  1.00  0.00     0.038 C 
HETATM   33  C17 UNL     1     -14.422  14.904  27.820  1.00  0.00     0.038 C 
BRANCH  31  34
HETATM   34  C14 UNL     1     -13.686  12.619  28.466  1.00  0.00     0.030 C 
BRANCH  34  35
HETATM   35  C13 UNL     1     -13.938  11.640  29.551  1.00  0.00     0.004 C 
BRANCH  35  36
HETATM   36  C12 UNL     1     -12.743  10.944  30.055  1.00  0.00     0.020 C 
BRANCH  36  37
HETATM   37  C11 UNL     1     -13.070   9.915  31.123  1.00  0.00     0.122 C 
BRANCH  37  38
HETATM   38  N1  UNL     1     -12.965  10.544  32.412  1.00  0.00    -0.361 N 
HETATM   39  C10 UNL     1     -14.091  10.908  33.186  1.00  0.00     0.217 C 
HETATM   40  O1  UNL     1     -15.235  10.680  32.687  1.00  0.00    -0.274 OA
ATOM     41  H1  UNL     1     -12.035  10.736  32.785  1.00  0.00     0.162 HD
BRANCH  39  42
HETATM   42  C9  UNL     1     -14.015  11.532  34.523  1.00  0.00     0.103 C 
BRANCH  42  43
HETATM   43  C8  UNL     1     -13.112  12.739  34.434  1.00  0.00     0.022 C 
BRANCH  43  44
HETATM   44  C5  UNL     1     -12.106  12.857  35.523  1.00  0.00    -0.030 C 
HETATM   45  C6  UNL     1     -11.558  11.481  35.814  1.00  0.00     0.019 C 
HETATM   46  C7  UNL     1     -12.744  13.438  36.775  1.00  0.00     0.019 C 
BRANCH  44  47
HETATM   47  C4  UNL     1     -11.023  13.777  35.086  1.00  0.00    -0.018 C 
HETATM   48  C3  UNL     1     -11.210  15.081  35.098  1.00  0.00    -0.004 C 
BRANCH  48  49
HETATM   49  C2  UNL     1     -10.211  16.042  34.690  1.00  0.00    -0.011 C 
HETATM   50  C1  UNL     1      -9.060  16.123  35.338  1.00  0.00     0.011 C 
ENDBRANCH  48  49
ENDBRANCH  44  47
ENDBRANCH  43  44
ENDBRANCH  42  43
ENDBRANCH  39  42
ENDBRANCH  37  38
ENDBRANCH  36  37
ENDBRANCH  35  36
ENDBRANCH  34  35
ENDBRANCH  31  34
ENDBRANCH   1  31
TORSDOF 17
ENDMDL
MODEL 4
REMARK VINA RESULT: -8.881820539      1.484      2.080
REMARK  17 active torsions:
REMARK  status: ('A' for Active; 'I' for Inactive)
REMARK    1  A    between atoms: C2_2  and  C3_3 
REMARK    2  A    between atoms: C4_4  and  C5_5 
REMARK    3  A    between atoms: C5_5  and  C8_8 
REMARK    4  A    between atoms: C8_8  and  C9_9 
REMARK    5  A    between atoms: C9_9  and  C10_10 
REMARK       I    between atoms: C10_10  and  N1_12 
REMARK    6  A    between atoms: N1_12  and  C11_14 
REMARK    7  A    between atoms: C11_14  and  C12_15 
REMARK    8  A    between atoms: C12_15  and  C13_16 
REMARK    9  A    between atoms: C13_16  and  C14_17 
REMARK   10  A    between atoms: C14_17  and  C15_18 
REMARK   11  A    between atoms: C15_18  and  N2_21 
REMARK       I    between atoms: N2_21  and  C18_23 
REMARK       I    between atoms: C18_23  and  N3_25 
REMARK       I    between atoms: N3_25  and  C19_27 
REMARK   12  A    between atoms: C19_27  and  C20_29 
REMARK   13  A    between atoms: C20_29  and  C21_30 
REMARK   14  A    between atoms: C26_37  and  C28_39 
REMARK   15  A    between atoms: C28_39  and  C29_40 
REMARK   16  A    between atoms: C29_40  and  C30_41 
REMARK   17  A    between atoms: C36_47  and  O6_49 
ROOT
HETATM    1  N2  UNL     1      -6.834  17.485  28.444  1.00  0.00    -0.334 N 
ATOM      2  H2  UNL     1      -7.848  17.373  28.462  1.00  0.00     0.165 HD
HETATM    3  C18 UNL     1      -6.137  17.543  29.642  1.00  0.00     0.323 C 
HETATM    4  O2  UNL     1      -4.852  17.680  29.580  1.00  0.00    -0.247 OA
HETATM    5  N3  UNL     1      -6.641  17.470  30.946  1.00  0.00    -0.279 N 
ATOM      6  H3  UNL     1      -5.969  17.474  31.714  1.00  0.00     0.173 HD
HETATM    7  C19 UNL     1      -8.039  17.391  31.280  1.00  0.00     0.226 C 
HETATM    8  O3  UNL     1      -8.852  17.346  30.344  1.00  0.00    -0.273 OA
ENDROOT
BRANCH   7   9
HETATM    9  C20 UNL     1      -8.404  17.373  32.714  1.00  0.00     0.118 C 
BRANCH   9  10
HETATM   10  C21 UNL     1      -8.734  16.147  33.394  1.00  0.00     0.105 C 
HETATM   11  C22 UNL     1      -9.072  16.541  34.826  1.00  0.00     0.265 C 
HETATM   12  O4  UNL     1      -8.275  16.897  35.726  1.00  0.00    -0.265 OA
HETATM   13  O5  UNL     1     -10.456  16.399  34.856  1.00  0.00    -0.310 OA
HETATM   14  C23 UNL     1     -10.827  15.277  34.070  1.00  0.00     0.071 C 
HETATM   15  C24 UNL     1     -12.213  15.361  33.502  1.00  0.00     0.047 C 
HETATM   16  C25 UNL     1     -10.963  14.141  35.105  1.00  0.00     0.047 C 
HETATM   17  C26 UNL     1      -9.695  15.126  33.135  1.00  0.00     0.000 C 
HETATM   18  C27 UNL     1      -8.985  13.822  33.703  1.00  0.00     0.019 C 
BRANCH  17  19
HETATM   19  C28 UNL     1     -10.006  14.610  31.780  1.00  0.00     0.013 C 
BRANCH  19  20
HETATM   20  C29 UNL     1     -11.302  14.861  31.143  1.00  0.00     0.008 C 
BRANCH  20  21
HETATM   21  C30 UNL     1     -11.596  13.942  29.974  1.00  0.00     0.019 C 
HETATM   22  C31 UNL     1     -12.700  12.961  30.207  1.00  0.00     0.008 C 
HETATM   23  C32 UNL     1     -13.989  13.411  29.523  1.00  0.00     0.005 C 
HETATM   24  C33 UNL     1     -13.750  13.617  28.068  1.00  0.00    -0.016 C 
HETATM   25  C34 UNL     1     -14.491  14.835  27.606  1.00  0.00     0.010 C 
HETATM   26  C35 UNL     1     -12.293  13.624  27.672  1.00  0.00     0.042 C 
HETATM   27  C36 UNL     1     -11.560  14.568  28.630  1.00  0.00     0.058 C 
HETATM   28  C37 UNL     1     -10.133  14.691  28.117  1.00  0.00     0.046 C 
BRANCH  27  29
HETATM   29  O6  UNL     1     -12.148  15.784  28.463  1.00  0.00    -0.390 OA
ATOM     30  H6  UNL     1     -11.856  16.334  27.746  1.00  0.00     0.210 HD
ENDBRANCH  27  29
ENDBRANCH  20  21
ENDBRANCH  19  20
ENDBRANCH  17  19
ENDBRANCH   9  10
ENDBRANCH   7   9
BRANCH   1  31
HETATM   31  C15 UNL     1      -6.147  17.580  27.149  1.00  0.00     0.027 C 
HETATM   32  C16 UNL     1      -6.996  16.972  26.087  1.00  0.00     0.038 C 
HETATM   33  C17 UNL     1      -6.074  19.091  26.781  1.00  0.00     0.038 C 
BRANCH  31  34
HETATM   34  C14 UNL     1      -4.764  17.044  27.304  1.00  0.00     0.030 C 
BRANCH  34  35
HETATM   35  C13 UNL     1      -3.693  17.660  26.484  1.00  0.00     0.004 C 
BRANCH  35  36
HETATM   36  C12 UNL     1      -3.349  16.929  25.253  1.00  0.00     0.020 C 
BRANCH  36  37
HETATM   37  C11 UNL     1      -3.650  17.724  23.995  1.00  0.00     0.122 C 
BRANCH  37  38
HETATM   38  N1  UNL     1      -5.000  17.443  23.587  1.00  0.00    -0.361 N 
HETATM   39  C10 UNL     1      -5.877  18.433  23.088  1.00  0.00     0.217 C 
HETATM   40  O1  UNL     1      -5.434  19.622  23.028  1.00  0.00    -0.274 OA
ATOM     41  H1  UNL     1      -5.341  16.485  23.662  1.00  0.00     0.162 HD
BRANCH  39  42
HETATM   42  C9  UNL     1      -7.259  18.171  22.638  1.00  0.00     0.103 C 
BRANCH  42  43
HETATM   43  C8  UNL     1      -7.217  17.098  21.576  1.00  0.00     0.022 C 
BRANCH  43  44
HETATM   44  C5  UNL     1      -8.298  16.079  21.666  1.00  0.00    -0.030 C 
HETATM   45  C6  UNL     1      -7.678  14.713  21.500  1.00  0.00     0.019 C 
HETATM   46  C7  UNL     1      -9.339  16.313  20.581  1.00  0.00     0.019 C 
BRANCH  44  47
HETATM   47  C4  UNL     1      -8.971  16.200  22.986  1.00  0.00    -0.018 C 
HETATM   48  C3  UNL     1      -9.885  15.324  23.352  1.00  0.00    -0.004 C 
BRANCH  48  49
HETATM   49  C2  UNL     1     -10.584  15.370  24.615  1.00  0.00    -0.011 C 
HETATM   50  C1  UNL     1     -10.885  16.534  25.169  1.00  0.00     0.011 C 
ENDBRANCH  48  49
ENDBRANCH  44  47
ENDBRANCH  43  44
ENDBRANCH  42  43
ENDBRANCH  39  42
ENDBRANCH  37  38
ENDBRANCH  36  37
ENDBRANCH  35  36
ENDBRANCH  34  35
ENDBRANCH  31  34
ENDBRANCH   1  31
TORSDOF 17
ENDMDL
MODEL 5
REMARK VINA RESULT: -8.865378414      1.895      3.686
REMARK  17 active torsions:
REMARK  status: ('A' for Active; 'I' for Inactive)
REMARK    1  A    between atoms: C2_2  and  C3_3 
REMARK    2  A    between atoms: C4_4  and  C5_5 
REMARK    3  A    between atoms: C5_5  and  C8_8 
REMARK    4  A    between atoms: C8_8  and  C9_9 
REMARK    5  A    between atoms: C9_9  and  C10_10 
REMARK       I    between atoms: C10_10  and  N1_12 
REMARK    6  A    between atoms: N1_12  and  C11_14 
REMARK    7  A    between atoms: C11_14  and  C12_15 
REMARK    8  A    between atoms: C12_15  and  C13_16 
REMARK    9  A    between atoms: C13_16  and  C14_17 
REMARK   10  A    between atoms: C14_17  and  C15_18 
REMARK   11  A    between atoms: C15_18  and  N2_21 
REMARK       I    between atoms: N2_21  and  C18_23 
REMARK       I    between atoms: C18_23  and  N3_25 
REMARK       I    between atoms: N3_25  and  C19_27 
REMARK   12  A    between atoms: C19_27  and  C20_29 
REMARK   13  A    between atoms: C20_29  and  C21_30 
REMARK   14  A    between atoms: C26_37  and  C28_39 
REMARK   15  A    between atoms: C28_39  and  C29_40 
REMARK   16  A    between atoms: C29_40  and  C30_41 
REMARK   17  A    between atoms: C36_47  and  O6_49 
ROOT
HETATM    1  N2  UNL     1      -5.820  18.044  28.242  1.00  0.00    -0.334 N 
ATOM      2  H2  UNL     1      -5.355  17.601  29.035  1.00  0.00     0.165 HD
HETATM    3  C18 UNL     1      -7.147  18.429  28.364  1.00  0.00     0.323 C 
HETATM    4  O2  UNL     1      -7.703  18.993  27.341  1.00  0.00    -0.247 OA
HETATM    5  N3  UNL     1      -7.995  18.292  29.470  1.00  0.00    -0.279 N 
ATOM      6  H3  UNL     1      -8.933  18.686  29.399  1.00  0.00     0.173 HD
HETATM    7  C19 UNL     1      -7.636  17.634  30.699  1.00  0.00     0.226 C 
HETATM    8  O3  UNL     1      -6.482  17.190  30.799  1.00  0.00    -0.273 OA
ENDROOT
BRANCH   7   9
HETATM    9  C20 UNL     1      -8.671  17.531  31.752  1.00  0.00     0.118 C 
BRANCH   9  10
HETATM   10  C21 UNL     1      -8.816  16.344  32.555  1.00  0.00     0.105 C 
HETATM   11  C22 UNL     1      -9.055  16.828  33.979  1.00  0.00     0.265 C 
HETATM   12  O4  UNL     1      -8.214  17.329  34.763  1.00  0.00    -0.265 OA
HETATM   13  O5  UNL     1     -10.409  16.569  34.160  1.00  0.00    -0.310 OA
HETATM   14  C23 UNL     1     -10.743  15.356  33.506  1.00  0.00     0.071 C 
HETATM   15  C24 UNL     1     -12.179  15.269  33.077  1.00  0.00     0.047 C 
HETATM   16  C25 UNL     1     -10.672  14.305  34.633  1.00  0.00     0.047 C 
HETATM   17  C26 UNL     1      -9.696  15.224  32.474  1.00  0.00     0.000 C 
HETATM   18  C27 UNL     1      -8.814  14.041  33.066  1.00  0.00     0.019 C 
BRANCH  17  19
HETATM   19  C28 UNL     1     -10.082  14.567  31.202  1.00  0.00     0.013 C 
BRANCH  19  20
HETATM   20  C29 UNL     1     -10.491  15.349  30.031  1.00  0.00     0.008 C 
BRANCH  20  21
HETATM   21  C30 UNL     1     -10.310  14.615  28.716  1.00  0.00     0.019 C 
HETATM   22  C31 UNL     1     -11.562  14.029  28.145  1.00  0.00     0.008 C 
HETATM   23  C32 UNL     1     -12.104  14.892  27.008  1.00  0.00     0.005 C 
HETATM   24  C33 UNL     1     -11.064  15.066  25.957  1.00  0.00    -0.016 C 
HETATM   25  C34 UNL     1     -11.101  16.474  25.443  1.00  0.00     0.010 C 
HETATM   26  C35 UNL     1      -9.681  14.624  26.372  1.00  0.00     0.042 C 
HETATM   27  C36 UNL     1      -9.389  15.248  27.740  1.00  0.00     0.058 C 
HETATM   28  C37 UNL     1      -7.938  14.930  28.067  1.00  0.00     0.046 C 
BRANCH  27  29
HETATM   29  O6  UNL     1      -9.467  16.593  27.550  1.00  0.00    -0.390 OA
ATOM     30  H6  UNL     1      -8.780  17.022  27.054  1.00  0.00     0.210 HD
ENDBRANCH  27  29
ENDBRANCH  20  21
ENDBRANCH  19  20
ENDBRANCH  17  19
ENDBRANCH   9  10
ENDBRANCH   7   9
BRANCH   1  31
HETATM   31  C15 UNL     1      -5.067  18.259  26.999  1.00  0.00     0.027 C 
HETATM   32  C16 UNL     1      -5.233  19.671  26.553  1.00  0.00     0.038 C 
HETATM   33  C17 UNL     1      -3.557  18.130  27.351  1.00  0.00     0.038 C 
BRANCH  31  34
HETATM   34  C14 UNL     1      -5.440  17.191  26.028  1.00  0.00     0.030 C 
BRANCH  34  35
HETATM   35  C13 UNL     1      -6.162  17.602  24.799  1.00  0.00     0.004 C 
BRANCH  35  36
HETATM   36  C12 UNL     1      -7.434  16.901  24.558  1.00  0.00     0.020 C 
BRANCH  36  37
HETATM   37  C11 UNL     1      -8.007  17.184  23.181  1.00  0.00     0.122 C 
BRANCH  37  38
HETATM   38  N1  UNL     1      -7.100  16.667  22.192  1.00  0.00    -0.361 N 
HETATM   39  C10 UNL     1      -7.243  16.918  20.808  1.00  0.00     0.217 C 
HETATM   40  O1  UNL     1      -8.240  17.616  20.447  1.00  0.00    -0.274 OA
ATOM     41  H1  UNL     1      -6.317  16.093  22.505  1.00  0.00     0.162 HD
BRANCH  39  42
HETATM   42  C9  UNL     1      -6.314  16.423  19.772  1.00  0.00     0.103 C 
BRANCH  42  43
HETATM   43  C8  UNL     1      -5.374  17.546  19.402  1.00  0.00     0.022 C 
BRANCH  43  44
HETATM   44  C5  UNL     1      -3.952  17.146  19.223  1.00  0.00    -0.030 C 
HETATM   45  C6  UNL     1      -3.225  18.272  18.529  1.00  0.00     0.019 C 
HETATM   46  C7  UNL     1      -3.858  15.876  18.391  1.00  0.00     0.019 C 
BRANCH  44  47
HETATM   47  C4  UNL     1      -3.354  16.870  20.556  1.00  0.00    -0.018 C 
HETATM   48  C3  UNL     1      -3.440  17.761  21.523  1.00  0.00    -0.004 C 
BRANCH  48  49
HETATM   49  C2  UNL     1      -2.887  17.571  22.844  1.00  0.00    -0.011 C 
HETATM   50  C1  UNL     1      -2.829  18.583  23.695  1.00  0.00     0.011 C 
ENDBRANCH  48  49
ENDBRANCH  44  47
ENDBRANCH  43  44
ENDBRANCH  42  43
ENDBRANCH  39  42
ENDBRANCH  37  38
ENDBRANCH  36  37
ENDBRANCH  35  36
ENDBRANCH  34  35
ENDBRANCH  31  34
ENDBRANCH   1  31
TORSDOF 17
ENDMDL
