MODEL 1
REMARK VINA RESULT: -9.240551412      0.000      0.000
REMARK  17 active torsions:
REMARK  status: ('A' for Active; 'I' for Inactive)
REMARK    1  A    between atoms: C2_2  and  N1_4 
REMARK       I    between atoms: N1_4  and  C4_6 
REMARK       I    between atoms: C4_6  and  N2_8 
REMARK    2  A    between atoms: N2_8  and  C5_10 
REMARK    3  A    between atoms: C5_10  and  C6_11 
REMARK    4  A    between atoms: C6_11  and  C7_12 
REMARK    5  A    between atoms: C7_12  and  C8_13 
REMARK    6  A    between atoms: C8_13  and  O2_14 
REMARK    7  A    between atoms: C8_13  and  C9_16 
REMARK    8  A    between atoms: C9_16  and  C10_17 
REMARK    9  A    between atoms: C10_17  and  C11_18 
REMARK   10  A    between atoms: C10_17  and  C13_22 
REMARK   11  A    between atoms: C11_18  and  C12_19 
REMARK   12  A    between atoms: C12_19  and  O3_20 
REMARK   13  A    between atoms: C13_22  and  C14_23 
REMARK   14  A    between atoms: C14_23  and  C15_24 
REMARK   15  A    between atoms: C15_24  and  C16_25 
REMARK   16  A    between atoms: C25_34  and  O4_35 
REMARK   17  A    between atoms: O4_35  and  S1_36 
ROOT
HETATM    1  C16 UNL     1      -7.382  17.921  29.707  1.00  0.00    -0.006 C 
HETATM    2  C17 UNL     1      -8.782  17.654  29.164  1.00  0.00     0.006 C 
HETATM    3  C18 UNL     1      -8.703  18.076  27.688  1.00  0.00     0.006 C 
HETATM    4  C19 UNL     1      -7.265  18.327  27.494  1.00  0.00    -0.002 C 
HETATM    5  C20 UNL     1      -6.692  18.375  26.167  1.00  0.00    -0.005 C 
HETATM    6  C21 UNL     1      -6.917  17.260  25.228  1.00  0.00     0.006 C 
HETATM    7  C22 UNL     1      -5.865  17.163  24.140  1.00  0.00     0.006 C 
HETATM    8  C23 UNL     1      -5.231  18.535  23.870  1.00  0.00    -0.004 C 
HETATM    9  C24 UNL     1      -4.393  18.394  22.658  1.00  0.00     0.039 C 
HETATM   10  C25 UNL     1      -2.957  18.037  22.881  1.00  0.00     0.145 C 
HETATM   11  C26 UNL     1      -2.410  19.086  23.808  1.00  0.00     0.034 C 
HETATM   12  C27 UNL     1      -3.116  19.156  25.124  1.00  0.00     0.012 C 
HETATM   13  C28 UNL     1      -4.592  19.115  25.091  1.00  0.00    -0.036 C 
HETATM   14  C29 UNL     1      -5.005  20.619  25.042  1.00  0.00     0.016 C 
HETATM   15  C30 UNL     1      -5.182  18.646  26.367  1.00  0.00    -0.002 C 
HETATM   16  C31 UNL     1      -4.662  17.469  27.063  1.00  0.00     0.006 C 
HETATM   17  C32 UNL     1      -5.166  17.555  28.523  1.00  0.00     0.010 C 
HETATM   18  C33 UNL     1      -6.627  17.356  28.484  1.00  0.00    -0.036 C 
HETATM   19  C34 UNL     1      -7.104  15.955  28.310  1.00  0.00     0.016 C 
ENDROOT
BRANCH   1  20
HETATM   20  C15 UNL     1      -7.031  17.280  30.967  1.00  0.00     0.005 C 
BRANCH  20  21
HETATM   21  C14 UNL     1      -8.241  17.138  31.902  1.00  0.00     0.001 C 
BRANCH  21  22
HETATM   22  C13 UNL     1      -8.579  15.656  32.044  1.00  0.00     0.005 C 
BRANCH  22  23
HETATM   23  C10 UNL     1      -9.873  15.453  32.784  1.00  0.00    -0.010 C 
BRANCH  23  24
HETATM   24  C9  UNL     1     -10.984  15.004  31.855  1.00  0.00     0.036 C 
BRANCH  24  25
HETATM   25  C8  UNL     1     -12.249  14.684  32.505  1.00  0.00     0.118 C 
BRANCH  25  26
HETATM   26  C7  UNL     1     -13.184  13.840  31.732  1.00  0.00     0.033 C 
BRANCH  26  27
HETATM   27  C6  UNL     1     -14.374  14.408  31.073  1.00  0.00     0.022 C 
BRANCH  27  28
HETATM   28  C5  UNL     1     -14.482  14.331  29.588  1.00  0.00     0.124 C 
BRANCH  28  29
HETATM   29  N2  UNL     1     -13.543  15.214  28.897  1.00  0.00    -0.343 N 
HETATM   30  C4  UNL     1     -12.749  14.775  27.822  1.00  0.00     0.316 C 
HETATM   31  N1  UNL     1     -11.845  15.664  27.152  1.00  0.00    -0.339 N 
HETATM   32  O1  UNL     1     -12.780  13.604  27.392  1.00  0.00    -0.247 OA
ATOM     33  H1  UNL     1     -11.766  16.633  27.463  1.00  0.00     0.164 HD
ATOM     34  H2  UNL     1     -13.462  16.183  29.205  1.00  0.00     0.164 HD
BRANCH  31  35
HETATM   35  C2  UNL     1     -11.045  15.205  26.046  1.00  0.00     0.078 C 
HETATM   36  C1  UNL     1      -9.694  14.672  26.493  1.00  0.00     0.032 C 
HETATM   37  C3  UNL     1     -10.783  16.378  25.120  1.00  0.00     0.032 C 
ENDBRANCH  31  35
ENDBRANCH  28  29
ENDBRANCH  27  28
ENDBRANCH  26  27
ENDBRANCH  25  26
BRANCH  25  38
HETATM   38  O2  UNL     1     -12.963  15.753  33.032  1.00  0.00    -0.396 OA
ATOM     39  H2  UNL     1     -12.645  15.918  33.912  1.00  0.00     0.210 HD
ENDBRANCH  25  38
ENDBRANCH  24  25
ENDBRANCH  23  24
BRANCH  23  40
HETATM   40  C11 UNL     1      -9.766  14.741  34.071  1.00  0.00     0.030 C 
BRANCH  40  41
HETATM   41  C12 UNL     1      -9.850  15.693  35.270  1.00  0.00     0.164 C 
BRANCH  41  42
HETATM   42  O3  UNL     1     -10.633  16.816  34.915  1.00  0.00    -0.401 OA
ATOM     43  H3  UNL     1     -10.306  17.580  35.374  1.00  0.00     0.209 HD
ENDBRANCH  41  42
ENDBRANCH  40  41
ENDBRANCH  23  40
ENDBRANCH  22  23
ENDBRANCH  21  22
ENDBRANCH  20  21
ENDBRANCH   1  20
BRANCH  10  44
HETATM   44  O4  UNL     1      -2.729  16.754  23.283  1.00  0.00    -0.252 OA
BRANCH  44  45
HETATM   45  S1  UNL     1      -1.588  16.037  22.285  1.00  0.00     0.251 S 
HETATM   46  O5  UNL     1      -2.151  15.690  20.937  1.00  0.00    -0.572 OA
HETATM   47  O6  UNL     1      -0.512  17.085  22.037  1.00  0.00    -0.572 OA
HETATM   48  O7  UNL     1      -0.840  14.725  22.978  1.00  0.00    -0.572 OA
ENDBRANCH  44  45
ENDBRANCH  10  44
TORSDOF 17
ENDMDL
MODEL 2
REMARK VINA RESULT: -9.005083988      3.689     10.124
REMARK  17 active torsions:
REMARK  status: ('A' for Active; 'I' for Inactive)
REMARK    1  A    between atoms: C2_2  and  N1_4 
REMARK       I    between atoms: N1_4  and  C4_6 
REMARK       I    between atoms: C4_6  and  N2_8 
REMARK    2  A    between atoms: N2_8  and  C5_10 
REMARK    3  A    between atoms: C5_10  and  C6_11 
REMARK    4  A    between atoms: C6_11  and  C7_12 
REMARK    5  A    between atoms: C7_12  and  C8_13 
REMARK    6  A    between atoms: C8_13  and  O2_14 
REMARK    7  A    between atoms: C8_13  and  C9_16 
REMARK    8  A    between atoms: C9_16  and  C10_17 
REMARK    9  A    between atoms: C10_17  and  C11_18 
REMARK   10  A    between atoms: C10_17  and  C13_22 
REMARK   11  A    between atoms: C11_18  and  C12_19 
REMARK   12  A    between atoms: C12_19  and  O3_20 
REMARK   13  A    between atoms: C13_22  and  C14_23 
REMARK   14  A    between atoms: C14_23  and  C15_24 
REMARK   15  A    between atoms: C15_24  and  C16_25 
REMARK   16  A    between atoms: C25_34  and  O4_35 
REMARK   17  A    between atoms: O4_35  and  S1_36 
ROOT
HETATM    1  C16 UNL     1      -9.116  16.751  25.833  1.00  0.00    -0.006 C 
HETATM    2  C17 UNL     1      -8.857  17.857  26.851  1.00  0.00     0.006 C 
HETATM    3  C18 UNL     1     -10.016  17.728  27.853  1.00  0.00     0.006 C 
HETATM    4  C19 UNL     1     -10.669  16.475  27.441  1.00  0.00    -0.002 C 
HETATM    5  C20 UNL     1     -11.566  15.776  28.336  1.00  0.00    -0.005 C 
HETATM    6  C21 UNL     1     -11.122  15.433  29.700  1.00  0.00     0.006 C 
HETATM    7  C22 UNL     1     -11.888  14.275  30.312  1.00  0.00     0.006 C 
HETATM    8  C23 UNL     1     -13.292  14.166  29.700  1.00  0.00    -0.004 C 
HETATM    9  C24 UNL     1     -14.037  13.169  30.502  1.00  0.00     0.039 C 
HETATM   10  C25 UNL     1     -13.976  11.752  30.027  1.00  0.00     0.145 C 
HETATM   11  C26 UNL     1     -14.450  11.775  28.601  1.00  0.00     0.034 C 
HETATM   12  C27 UNL     1     -13.623  12.637  27.703  1.00  0.00     0.012 C 
HETATM   13  C28 UNL     1     -13.252  13.971  28.218  1.00  0.00    -0.036 C 
HETATM   14  C29 UNL     1     -14.389  14.902  27.695  1.00  0.00     0.016 C 
HETATM   15  C30 UNL     1     -12.040  14.522  27.566  1.00  0.00    -0.002 C 
HETATM   16  C31 UNL     1     -10.841  13.707  27.368  1.00  0.00     0.006 C 
HETATM   17  C32 UNL     1      -9.997  14.412  26.279  1.00  0.00     0.010 C 
HETATM   18  C33 UNL     1      -9.505  15.672  26.867  1.00  0.00    -0.036 C 
HETATM   19  C34 UNL     1      -8.357  15.564  27.811  1.00  0.00     0.016 C 
ENDROOT
BRANCH   1  20
HETATM   20  C15 UNL     1      -8.001  16.372  24.975  1.00  0.00     0.005 C 
BRANCH  20  21
HETATM   21  C14 UNL     1      -7.124  17.576  24.600  1.00  0.00     0.001 C 
BRANCH  21  22
HETATM   22  C13 UNL     1      -5.685  17.281  25.018  1.00  0.00     0.005 C 
BRANCH  22  23
HETATM   23  C10 UNL     1      -5.098  18.415  25.814  1.00  0.00    -0.010 C 
BRANCH  23  24
HETATM   24  C9  UNL     1      -3.898  17.965  26.625  1.00  0.00     0.036 C 
BRANCH  24  25
HETATM   25  C8  UNL     1      -4.153  17.743  28.043  1.00  0.00     0.118 C 
BRANCH  25  26
HETATM   26  C7  UNL     1      -5.559  17.864  28.480  1.00  0.00     0.033 C 
BRANCH  26  27
HETATM   27  C6  UNL     1      -5.951  17.672  29.888  1.00  0.00     0.022 C 
BRANCH  27  28
HETATM   28  C5  UNL     1      -7.365  17.314  30.201  1.00  0.00     0.124 C 
BRANCH  28  29
HETATM   29  N2  UNL     1      -7.741  17.613  31.583  1.00  0.00    -0.343 N 
HETATM   30  C4  UNL     1      -8.234  16.628  32.457  1.00  0.00     0.316 C 
HETATM   31  N1  UNL     1      -8.585  16.944  33.812  1.00  0.00    -0.339 N 
HETATM   32  O1  UNL     1      -8.397  15.439  32.116  1.00  0.00    -0.247 OA
ATOM     33  H1  UNL     1      -8.483  17.901  34.149  1.00  0.00     0.164 HD
ATOM     34  H2  UNL     1      -7.641  18.569  31.923  1.00  0.00     0.164 HD
BRANCH  31  35
HETATM   35  C2  UNL     1      -9.079  15.924  34.701  1.00  0.00     0.078 C 
HETATM   36  C1  UNL     1     -10.582  16.014  34.902  1.00  0.00     0.032 C 
HETATM   37  C3  UNL     1      -8.430  16.113  36.059  1.00  0.00     0.032 C 
ENDBRANCH  31  35
ENDBRANCH  28  29
ENDBRANCH  27  28
ENDBRANCH  26  27
ENDBRANCH  25  26
BRANCH  25  38
HETATM   38  O2  UNL     1      -3.358  18.454  28.935  1.00  0.00    -0.396 OA
ATOM     39  H2  UNL     1      -2.540  18.664  28.500  1.00  0.00     0.210 HD
ENDBRANCH  25  38
ENDBRANCH  24  25
ENDBRANCH  23  24
BRANCH  23  40
HETATM   40  C11 UNL     1      -4.962  19.695  25.095  1.00  0.00     0.030 C 
BRANCH  40  41
HETATM   41  C12 UNL     1      -4.219  19.535  23.763  1.00  0.00     0.164 C 
BRANCH  41  42
HETATM   42  O3  UNL     1      -4.171  20.786  23.106  1.00  0.00    -0.401 OA
ATOM     43  H3  UNL     1      -4.903  21.318  23.396  1.00  0.00     0.209 HD
ENDBRANCH  41  42
ENDBRANCH  40  41
ENDBRANCH  23  40
ENDBRANCH  22  23
ENDBRANCH  21  22
ENDBRANCH  20  21
ENDBRANCH   1  20
BRANCH  10  44
HETATM   44  O4  UNL     1     -12.780  11.124  30.215  1.00  0.00    -0.252 OA
BRANCH  44  45
HETATM   45  S1  UNL     1     -12.980   9.807  31.234  1.00  0.00     0.251 S 
HETATM   46  O5  UNL     1     -12.842  10.185  32.681  1.00  0.00    -0.572 OA
HETATM   47  O6  UNL     1     -14.418   9.338  31.055  1.00  0.00    -0.572 OA
HETATM   48  O7  UNL     1     -11.996   8.525  30.851  1.00  0.00    -0.572 OA
ENDBRANCH  44  45
ENDBRANCH  10  44
TORSDOF 17
ENDMDL
MODEL 3
REMARK VINA RESULT: -8.986009178      3.645     10.050
REMARK  17 active torsions:
REMARK  status: ('A' for Active; 'I' for Inactive)
REMARK    1  A    between atoms: C2_2  and  N1_4 
REMARK       I    between atoms: N1_4  and  C4_6 
REMARK       I    between atoms: C4_6  and  N2_8 
REMARK    2  A    between atoms: N2_8  and  C5_10 
REMARK    3  A    between atoms: C5_10  and  C6_11 
REMARK    4  A    between atoms: C6_11  and  C7_12 
REMARK    5  A    between atoms: C7_12  and  C8_13 
REMARK    6  A    between atoms: C8_13  and  O2_14 
REMARK    7  A    between atoms: C8_13  and  C9_16 
REMARK    8  A    between atoms: C9_16  and  C10_17 
REMARK    9  A    between atoms: C10_17  and  C11_18 
REMARK   10  A    between atoms: C10_17  and  C13_22 
REMARK   11  A    between atoms: C11_18  and  C12_19 
REMARK   12  A    between atoms: C12_19  and  O3_20 
REMARK   13  A    between atoms: C13_22  and  C14_23 
REMARK   14  A    between atoms: C14_23  and  C15_24 
REMARK   15  A    between atoms: C15_24  and  C16_25 
REMARK   16  A    between atoms: C25_34  and  O4_35 
REMARK   17  A    between atoms: O4_35  and  S1_36 
ROOT
HETATM    1  C16 UNL     1      -8.527  15.563  25.298  1.00  0.00    -0.006 C 
HETATM    2  C17 UNL     1      -9.366  16.287  24.251  1.00  0.00     0.006 C 
HETATM    3  C18 UNL     1     -10.797  15.777  24.494  1.00  0.00     0.006 C 
HETATM    4  C19 UNL     1     -10.665  15.011  25.744  1.00  0.00    -0.002 C 
HETATM    5  C20 UNL     1     -11.828  14.678  26.537  1.00  0.00    -0.005 C 
HETATM    6  C21 UNL     1     -12.764  15.740  26.949  1.00  0.00     0.006 C 
HETATM    7  C22 UNL     1     -13.582  15.383  28.176  1.00  0.00     0.006 C 
HETATM    8  C23 UNL     1     -13.736  13.861  28.304  1.00  0.00    -0.004 C 
HETATM    9  C24 UNL     1     -14.722  13.615  29.382  1.00  0.00     0.039 C 
HETATM   10  C25 UNL     1     -14.169  13.438  30.761  1.00  0.00     0.145 C 
HETATM   11  C26 UNL     1     -13.170  12.321  30.665  1.00  0.00     0.034 C 
HETATM   12  C27 UNL     1     -12.051  12.590  29.711  1.00  0.00     0.012 C 
HETATM   13  C28 UNL     1     -12.417  13.163  28.400  1.00  0.00    -0.036 C 
HETATM   14  C29 UNL     1     -12.598  11.911  27.485  1.00  0.00     0.016 C 
HETATM   15  C30 UNL     1     -11.297  13.890  27.757  1.00  0.00    -0.002 C 
HETATM   16  C31 UNL     1     -10.471  14.837  28.506  1.00  0.00     0.006 C 
HETATM   17  C32 UNL     1      -9.166  15.028  27.697  1.00  0.00     0.010 C 
HETATM   18  C33 UNL     1      -9.531  15.741  26.458  1.00  0.00    -0.036 C 
HETATM   19  C34 UNL     1      -9.773  17.206  26.579  1.00  0.00     0.016 C 
ENDROOT
BRANCH   1  20
HETATM   20  C15 UNL     1      -7.204  16.108  25.573  1.00  0.00     0.005 C 
BRANCH  20  21
HETATM   21  C14 UNL     1      -6.790  17.170  24.544  1.00  0.00     0.001 C 
BRANCH  21  22
HETATM   22  C13 UNL     1      -5.383  17.658  24.884  1.00  0.00     0.005 C 
BRANCH  22  23
HETATM   23  C10 UNL     1      -5.382  19.112  25.272  1.00  0.00    -0.010 C 
BRANCH  23  24
HETATM   24  C9  UNL     1      -5.166  19.293  26.762  1.00  0.00     0.036 C 
BRANCH  24  25
HETATM   25  C8  UNL     1      -4.511  18.179  27.436  1.00  0.00     0.118 C 
BRANCH  25  26
HETATM   26  C7  UNL     1      -5.162  17.690  28.669  1.00  0.00     0.033 C 
BRANCH  26  27
HETATM   27  C6  UNL     1      -6.553  17.204  28.669  1.00  0.00     0.022 C 
BRANCH  27  28
HETATM   28  C5  UNL     1      -7.559  17.895  29.528  1.00  0.00     0.124 C 
BRANCH  28  29
HETATM   29  N2  UNL     1      -7.366  17.642  30.956  1.00  0.00    -0.343 N 
HETATM   30  C4  UNL     1      -8.284  16.898  31.718  1.00  0.00     0.316 C 
HETATM   31  N1  UNL     1      -8.065  16.653  33.115  1.00  0.00    -0.339 N 
HETATM   32  O1  UNL     1      -9.328  16.413  31.237  1.00  0.00    -0.247 OA
ATOM     33  H1  UNL     1      -7.234  17.031  33.570  1.00  0.00     0.164 HD
ATOM     34  H2  UNL     1      -6.536  18.019  31.414  1.00  0.00     0.164 HD
BRANCH  31  35
HETATM   35  C2  UNL     1      -9.008  15.880  33.883  1.00  0.00     0.078 C 
HETATM   36  C1  UNL     1      -8.978  16.237  35.359  1.00  0.00     0.032 C 
HETATM   37  C3  UNL     1      -8.638  14.414  33.765  1.00  0.00     0.032 C 
ENDBRANCH  31  35
ENDBRANCH  28  29
ENDBRANCH  27  28
ENDBRANCH  26  27
ENDBRANCH  25  26
BRANCH  25  38
HETATM   38  O2  UNL     1      -3.152  18.319  27.689  1.00  0.00    -0.396 OA
ATOM     39  H2  UNL     1      -3.049  18.815  28.492  1.00  0.00     0.210 HD
ENDBRANCH  25  38
ENDBRANCH  24  25
ENDBRANCH  23  24
BRANCH  23  40
HETATM   40  C11 UNL     1      -4.616  20.007  24.385  1.00  0.00     0.030 C 
BRANCH  40  41
HETATM   41  C12 UNL     1      -5.515  21.025  23.672  1.00  0.00     0.164 C 
BRANCH  41  42
HETATM   42  O3  UNL     1      -6.498  20.334  22.927  1.00  0.00    -0.401 OA
ATOM     43  H3  UNL     1      -6.490  20.652  22.032  1.00  0.00     0.209 HD
ENDBRANCH  41  42
ENDBRANCH  40  41
ENDBRANCH  23  40
ENDBRANCH  22  23
ENDBRANCH  21  22
ENDBRANCH  20  21
ENDBRANCH   1  20
BRANCH  10  44
HETATM   44  O4  UNL     1     -13.693  14.573  31.349  1.00  0.00    -0.252 OA
BRANCH  44  45
HETATM   45  S1  UNL     1     -13.055  14.210  32.857  1.00  0.00     0.251 S 
HETATM   46  O5  UNL     1     -11.604  13.828  32.780  1.00  0.00    -0.572 OA
HETATM   47  O6  UNL     1     -13.111  15.497  33.670  1.00  0.00    -0.572 OA
HETATM   48  O7  UNL     1     -13.933  13.070  33.686  1.00  0.00    -0.572 OA
ENDBRANCH  44  45
ENDBRANCH  10  44
TORSDOF 17
ENDMDL
MODEL 4
REMARK VINA RESULT: -8.882633019      1.801      2.383
REMARK  17 active torsions:
REMARK  status: ('A' for Active; 'I' for Inactive)
REMARK    1  A    between atoms: C2_2  and  N1_4 
REMARK       I    between atoms: N1_4  and  C4_6 
REMARK       I    between atoms: C4_6  and  N2_8 
REMARK    2  A    between atoms: N2_8  and  C5_10 
REMARK    3  A    between atoms: C5_10  and  C6_11 
REMARK    4  A    between atoms: C6_11  and  C7_12 
REMARK    5  A    between atoms: C7_12  and  C8_13 
REMARK    6  A    between atoms: C8_13  and  O2_14 
REMARK    7  A    between atoms: C8_13  and  C9_16 
REMARK    8  A    between atoms: C9_16  and  C10_17 
REMARK    9  A    between atoms: C10_17  and  C11_18 
REMARK   10  A    between atoms: C10_17  and  C13_22 
REMARK   11  A    between atoms: C11_18  and  C12_19 
REMARK   12  A    between atoms: C12_19  and  O3_20 
REMARK   13  A    between atoms: C13_22  and  C14_23 
REMARK   14  A    between atoms: C14_23  and  C15_24 
REMARK   15  A    between atoms: C15_24  and  C16_25 
REMARK   16  A    between atoms: C25_34  and  O4_35 
REMARK   17  A    between atoms: O4_35  and  S1_36 
ROOT
HETATM    1  C16 UNL     1      -8.093  17.729  30.340  1.00  0.00    -0.006 C 
HETATM    2  C17 UNL     1      -9.436  17.483  29.661  1.00  0.00     0.006 C 
HETATM    3  C18 UNL     1      -9.199  17.885  28.196  1.00  0.00     0.006 C 
HETATM    4  C19 UNL     1      -7.744  18.105  28.147  1.00  0.00    -0.002 C 
HETATM    5  C20 UNL     1      -7.038  18.126  26.884  1.00  0.00    -0.005 C 
HETATM    6  C21 UNL     1      -7.191  17.004  25.939  1.00  0.00     0.006 C 
HETATM    7  C22 UNL     1      -6.035  16.873  24.964  1.00  0.00     0.006 C 
HETATM    8  C23 UNL     1      -5.350  18.229  24.746  1.00  0.00    -0.004 C 
HETATM    9  C24 UNL     1      -4.396  18.057  23.627  1.00  0.00     0.039 C 
HETATM   10  C25 UNL     1      -2.997  17.675  23.998  1.00  0.00     0.145 C 
HETATM   11  C26 UNL     1      -2.526  18.724  24.965  1.00  0.00     0.034 C 
HETATM   12  C27 UNL     1      -3.360  18.825  26.202  1.00  0.00     0.012 C 
HETATM   13  C28 UNL     1      -4.826  18.812  26.019  1.00  0.00    -0.036 C 
HETATM   14  C29 UNL     1      -5.200  20.323  25.913  1.00  0.00     0.016 C 
HETATM   15  C30 UNL     1      -5.551  18.370  27.233  1.00  0.00    -0.002 C 
HETATM   16  C31 UNL     1      -5.129  17.192  27.991  1.00  0.00     0.006 C 
HETATM   17  C32 UNL     1      -5.776  17.305  29.392  1.00  0.00     0.010 C 
HETATM   18  C33 UNL     1      -7.229  17.134  29.206  1.00  0.00    -0.036 C 
HETATM   19  C34 UNL     1      -7.716  15.741  28.998  1.00  0.00     0.016 C 
ENDROOT
BRANCH   1  20
HETATM   20  C15 UNL     1      -7.884  17.096  31.636  1.00  0.00     0.005 C 
BRANCH  20  21
HETATM   21  C14 UNL     1      -9.202  16.893  32.400  1.00  0.00     0.001 C 
BRANCH  21  22
HETATM   22  C13 UNL     1      -9.602  15.422  32.302  1.00  0.00     0.005 C 
BRANCH  22  23
HETATM   23  C10 UNL     1     -10.992  15.192  32.829  1.00  0.00    -0.010 C 
BRANCH  23  24
HETATM   24  C9  UNL     1     -11.988  14.982  31.705  1.00  0.00     0.036 C 
BRANCH  24  25
HETATM   25  C8  UNL     1     -11.500  14.195  30.579  1.00  0.00     0.118 C 
BRANCH  25  26
HETATM   26  C7  UNL     1     -11.774  14.743  29.234  1.00  0.00     0.033 C 
BRANCH  26  27
HETATM   27  C6  UNL     1     -11.000  14.318  28.054  1.00  0.00     0.022 C 
BRANCH  27  28
HETATM   28  C5  UNL     1     -11.232  15.010  26.752  1.00  0.00     0.124 C 
BRANCH  28  29
HETATM   29  N2  UNL     1     -10.105  14.886  25.827  1.00  0.00    -0.343 N 
HETATM   30  C4  UNL     1     -10.142  15.410  24.523  1.00  0.00     0.316 C 
HETATM   31  N1  UNL     1      -9.019  15.286  23.639  1.00  0.00    -0.339 N 
HETATM   32  O1  UNL     1     -11.137  16.004  24.060  1.00  0.00    -0.247 OA
ATOM     33  H1  UNL     1      -8.178  14.802  23.956  1.00  0.00     0.164 HD
ATOM     34  H2  UNL     1      -9.263  14.402  26.140  1.00  0.00     0.164 HD
BRANCH  31  35
HETATM   35  C2  UNL     1      -9.065  15.837  22.309  1.00  0.00     0.078 C 
HETATM   36  C1  UNL     1      -8.447  14.907  21.278  1.00  0.00     0.032 C 
HETATM   37  C3  UNL     1      -8.265  17.126  22.292  1.00  0.00     0.032 C 
ENDBRANCH  31  35
ENDBRANCH  28  29
ENDBRANCH  27  28
ENDBRANCH  26  27
ENDBRANCH  25  26
BRANCH  25  38
HETATM   38  O2  UNL     1     -11.831  12.846  30.574  1.00  0.00    -0.396 OA
ATOM     39  H2  UNL     1     -12.651  12.740  31.043  1.00  0.00     0.210 HD
ENDBRANCH  25  38
ENDBRANCH  24  25
ENDBRANCH  23  24
BRANCH  23  40
HETATM   40  C11 UNL     1     -11.094  14.273  33.977  1.00  0.00     0.030 C 
BRANCH  40  41
HETATM   41  C12 UNL     1     -10.577  14.905  35.274  1.00  0.00     0.164 C 
BRANCH  41  42
HETATM   42  O3  UNL     1     -11.083  16.220  35.383  1.00  0.00    -0.401 OA
ATOM     43  H3  UNL     1     -10.717  16.632  36.156  1.00  0.00     0.209 HD
ENDBRANCH  41  42
ENDBRANCH  40  41
ENDBRANCH  23  40
ENDBRANCH  22  23
ENDBRANCH  21  22
ENDBRANCH  20  21
ENDBRANCH   1  20
BRANCH  10  44
HETATM   44  O4  UNL     1      -2.838  16.393  24.434  1.00  0.00    -0.252 OA
BRANCH  44  45
HETATM   45  S1  UNL     1      -1.534  15.682  23.655  1.00  0.00     0.251 S 
HETATM   46  O5  UNL     1      -1.654  15.763  22.160  1.00  0.00    -0.572 OA
HETATM   47  O6  UNL     1      -0.309  16.507  24.026  1.00  0.00    -0.572 OA
HETATM   48  O7  UNL     1      -1.242  14.124  24.150  1.00  0.00    -0.572 OA
ENDBRANCH  44  45
ENDBRANCH  10  44
TORSDOF 17
ENDMDL
MODEL 5
REMARK VINA RESULT: -8.860986811      3.913     10.499
REMARK  17 active torsions:
REMARK  status: ('A' for Active; 'I' for Inactive)
REMARK    1  A    between atoms: C2_2  and  N1_4 
REMARK       I    between atoms: N1_4  and  C4_6 
REMARK       I    between atoms: C4_6  and  N2_8 
REMARK    2  A    between atoms: N2_8  and  C5_10 
REMARK    3  A    between atoms: C5_10  and  C6_11 
REMARK    4  A    between atoms: C6_11  and  C7_12 
REMARK    5  A    between atoms: C7_12  and  C8_13 
REMARK    6  A    between atoms: C8_13  and  O2_14 
REMARK    7  A    between atoms: C8_13  and  C9_16 
REMARK    8  A    between atoms: C9_16  and  C10_17 
REMARK    9  A    between atoms: C10_17  and  C11_18 
REMARK   10  A    between atoms: C10_17  and  C13_22 
REMARK   11  A    between atoms: C11_18  and  C12_19 
REMARK   12  A    between atoms: C12_19  and  O3_20 
REMARK   13  A    between atoms: C13_22  and  C14_23 
REMARK   14  A    between atoms: C14_23  and  C15_24 
REMARK   15  A    between atoms: C15_24  and  C16_25 
REMARK   16  A    between atoms: C25_34  and  O4_35 
REMARK   17  A    between atoms: O4_35  and  S1_36 
ROOT
HETATM    1  C16 UNL     1     -10.626  16.154  25.940  1.00  0.00    -0.006 C 
HETATM    2  C17 UNL     1      -9.895  17.169  26.811  1.00  0.00     0.006 C 
HETATM    3  C18 UNL     1     -10.582  17.056  28.182  1.00  0.00     0.006 C 
HETATM    4  C19 UNL     1     -11.454  15.882  28.017  1.00  0.00    -0.002 C 
HETATM    5  C20 UNL     1     -11.994  15.190  29.167  1.00  0.00    -0.005 C 
HETATM    6  C21 UNL     1     -11.090  14.727  30.236  1.00  0.00     0.006 C 
HETATM    7  C22 UNL     1     -11.661  13.587  31.059  1.00  0.00     0.006 C 
HETATM    8  C23 UNL     1     -13.195  13.618  31.042  1.00  0.00    -0.004 C 
HETATM    9  C24 UNL     1     -13.659  12.625  32.038  1.00  0.00     0.039 C 
HETATM   10  C25 UNL     1     -13.915  11.241  31.529  1.00  0.00     0.145 C 
HETATM   11  C26 UNL     1     -14.900  11.392  30.405  1.00  0.00     0.034 C 
HETATM   12  C27 UNL     1     -14.411  12.252  29.284  1.00  0.00     0.012 C 
HETATM   13  C28 UNL     1     -13.750  13.519  29.657  1.00  0.00    -0.036 C 
HETATM   14  C29 UNL     1     -14.912  14.561  29.653  1.00  0.00     0.016 C 
HETATM   15  C30 UNL     1     -12.841  14.025  28.602  1.00  0.00    -0.002 C 
HETATM   16  C31 UNL     1     -11.891  13.144  27.923  1.00  0.00     0.006 C 
HETATM   17  C32 UNL     1     -11.474  13.858  26.615  1.00  0.00     0.010 C 
HETATM   18  C33 UNL     1     -10.681  15.038  27.007  1.00  0.00    -0.036 C 
HETATM   19  C34 UNL     1      -9.272  14.788  27.421  1.00  0.00     0.016 C 
ENDROOT
BRANCH   1  20
HETATM   20  C15 UNL     1      -9.970  15.755  24.701  1.00  0.00     0.005 C 
BRANCH  20  21
HETATM   21  C14 UNL     1      -9.119  16.888  24.107  1.00  0.00     0.001 C 
BRANCH  21  22
HETATM   22  C13 UNL     1      -7.665  16.423  24.041  1.00  0.00     0.005 C 
BRANCH  22  23
HETATM   23  C10 UNL     1      -6.731  17.449  24.621  1.00  0.00    -0.010 C 
BRANCH  23  24
HETATM   24  C9  UNL     1      -6.260  17.056  26.008  1.00  0.00     0.036 C 
BRANCH  24  25
HETATM   25  C8  UNL     1      -6.042  18.164  26.930  1.00  0.00     0.118 C 
BRANCH  25  26
HETATM   26  C7  UNL     1      -5.989  17.816  28.365  1.00  0.00     0.033 C 
BRANCH  26  27
HETATM   27  C6  UNL     1      -7.153  18.001  29.249  1.00  0.00     0.022 C 
BRANCH  27  28
HETATM   28  C5  UNL     1      -7.608  16.858  30.092  1.00  0.00     0.124 C 
BRANCH  28  29
HETATM   29  N2  UNL     1      -8.042  17.266  31.428  1.00  0.00    -0.343 N 
HETATM   30  C4  UNL     1      -8.362  16.335  32.432  1.00  0.00     0.316 C 
HETATM   31  N1  UNL     1      -8.774  16.761  33.739  1.00  0.00    -0.339 N 
HETATM   32  O1  UNL     1      -8.311  15.101  32.252  1.00  0.00    -0.247 OA
ATOM     33  H1  UNL     1      -8.845  17.757  33.945  1.00  0.00     0.164 HD
ATOM     34  H2  UNL     1      -8.115  18.262  31.639  1.00  0.00     0.164 HD
BRANCH  31  35
HETATM   35  C2  UNL     1      -9.089  15.796  34.762  1.00  0.00     0.078 C 
HETATM   36  C1  UNL     1     -10.581  15.716  35.038  1.00  0.00     0.032 C 
HETATM   37  C3  UNL     1      -8.412  16.223  36.051  1.00  0.00     0.032 C 
ENDBRANCH  31  35
ENDBRANCH  28  29
ENDBRANCH  27  28
ENDBRANCH  26  27
ENDBRANCH  25  26
BRANCH  25  38
HETATM   38  O2  UNL     1      -6.873  19.268  26.781  1.00  0.00    -0.396 OA
ATOM     39  H2  UNL     1      -6.778  19.592  25.893  1.00  0.00     0.210 HD
ENDBRANCH  25  38
ENDBRANCH  24  25
ENDBRANCH  23  24
BRANCH  23  40
HETATM   40  C11 UNL     1      -5.701  17.966  23.700  1.00  0.00     0.030 C 
BRANCH  40  41
HETATM   41  C12 UNL     1      -6.312  18.683  22.491  1.00  0.00     0.164 C 
BRANCH  41  42
HETATM   42  O3  UNL     1      -6.617  20.016  22.848  1.00  0.00    -0.401 OA
ATOM     43  H3  UNL     1      -7.409  20.025  23.372  1.00  0.00     0.209 HD
ENDBRANCH  41  42
ENDBRANCH  40  41
ENDBRANCH  23  40
ENDBRANCH  22  23
ENDBRANCH  21  22
ENDBRANCH  20  21
ENDBRANCH   1  20
BRANCH  10  44
HETATM   44  O4  UNL     1     -12.802  10.520  31.213  1.00  0.00    -0.252 OA
BRANCH  44  45
HETATM   45  S1  UNL     1     -12.947   8.957  31.804  1.00  0.00     0.251 S 
HETATM   46  O5  UNL     1     -12.796   8.900  33.297  1.00  0.00    -0.572 OA
HETATM   47  O6  UNL     1     -14.372   8.513  31.506  1.00  0.00    -0.572 OA
HETATM   48  O7  UNL     1     -11.932   7.875  31.057  1.00  0.00    -0.572 OA
ENDBRANCH  44  45
ENDBRANCH  10  44
TORSDOF 17
ENDMDL
