MODEL 1
REMARK VINA RESULT: -8.766223651      0.000      0.000
REMARK  12 active torsions:
REMARK  status: ('A' for Active; 'I' for Inactive)
REMARK       I    between atoms: N1_2  and  C2_4 
REMARK    1  A    between atoms: C2_4  and  C3_6 
REMARK    2  A    between atoms: C3_6  and  C4_7 
REMARK    3  A    between atoms: C4_7  and  C5_8 
REMARK    4  A    between atoms: C5_8  and  N2_9 
REMARK    5  A    between atoms: C5_8  and  C22_41 
REMARK    6  A    between atoms: C8_15  and  C9_16 
REMARK    7  A    between atoms: C9_16  and  C10_17 
REMARK    8  A    between atoms: C10_17  and  C11_18 
REMARK    9  A    between atoms: C11_18  and  C12_19 
REMARK   10  A    between atoms: C12_19  and  C13_20 
REMARK   11  A    between atoms: C14_25  and  N6_26 
REMARK       I    between atoms: N6_26  and  C15_28 
REMARK   12  A    between atoms: C15_28  and  C16_30 
ROOT
HETATM    1  N2  UNL     1       8.034  18.280   8.153  1.00  0.00    -0.369 N 
ATOM      2  H2  UNL     1       8.433  19.219   8.154  1.00  0.00     0.161 HD
HETATM    3  C6  UNL     1       8.578  17.426   7.373  1.00  0.00     0.131 A 
HETATM    4  C7  UNL     1       9.672  17.832   6.579  1.00  0.00     0.139 A 
HETATM    5  N3  UNL     1      10.222  16.915   5.780  1.00  0.00    -0.351 N 
ATOM      6  H3  UNL     1      11.014  17.190   5.198  1.00  0.00     0.166 HD
HETATM    7  C8  UNL     1       9.787  15.656   5.704  1.00  0.00     0.095 A 
HETATM    8  N7  UNL     1       8.752  15.306   6.467  1.00  0.00    -0.287 N 
ATOM      9  H7  UNL     1       8.406  14.348   6.422  1.00  0.00     0.188 HD
HETATM   10  N8  UNL     1       8.151  16.179   7.293  1.00  0.00    -0.283 N 
ATOM     11  H8  UNL     1       7.360  15.877   7.863  1.00  0.00     0.188 HD
ENDROOT
BRANCH   7  12
HETATM   12  C9  UNL     1      10.420  14.678   4.813  1.00  0.00     0.078 C 
BRANCH  12  13
HETATM   13  C10 UNL     1      11.919  14.835   4.956  1.00  0.00     0.008 C 
BRANCH  13  14
HETATM   14  C11 UNL     1      12.579  13.639   5.558  1.00  0.00     0.007 C 
BRANCH  14  15
HETATM   15  C12 UNL     1      13.526  13.997   6.684  1.00  0.00     0.066 C 
BRANCH  15  16
HETATM   16  C13 UNL     1      12.777  14.880   7.649  1.00  0.00     0.069 A 
HETATM   17  N4  UNL     1      12.981  16.166   7.881  1.00  0.00    -0.296 N 
HETATM   18  N5  UNL     1      12.270  16.789   8.727  1.00  0.00    -0.279 N 
ATOM     19  H4  UNL     1      13.716  16.662   7.377  1.00  0.00     0.187 HD
HETATM   20  C14 UNL     1      11.311  16.116   9.374  1.00  0.00     0.167 A 
ATOM     21  H5  UNL     1      12.424  17.781   8.910  1.00  0.00     0.189 HD
HETATM   22  S1  UNL     1      11.482  14.551   8.712  1.00  0.00    -0.038 SA
BRANCH  20  23
HETATM   23  N6  UNL     1      10.477  16.580  10.279  1.00  0.00    -0.306 N 
HETATM   24  C15 UNL     1       9.559  15.702  10.915  1.00  0.00     0.227 C 
HETATM   25  O2  UNL     1       8.656  15.208  10.195  1.00  0.00    -0.273 OA
ATOM     26  H6  UNL     1      10.490  17.570  10.524  1.00  0.00     0.171 HD
BRANCH  24  27
HETATM   27  C16 UNL     1       9.612  15.351  12.352  1.00  0.00     0.078 C 
HETATM   28  C17 UNL     1       8.195  15.199  12.846  1.00  0.00     0.014 C 
HETATM   29  C18 UNL     1       8.115  15.146  14.359  1.00  0.00     0.001 C 
HETATM   30  C19 UNL     1       8.736  16.435  14.867  1.00  0.00     0.000 C 
HETATM   31  C20 UNL     1      10.232  16.317  14.582  1.00  0.00     0.001 C 
HETATM   32  C21 UNL     1      10.390  16.385  13.083  1.00  0.00     0.014 C 
ENDBRANCH  24  27
ENDBRANCH  20  23
ENDBRANCH  15  16
ENDBRANCH  14  15
ENDBRANCH  13  14
ENDBRANCH  12  13
ENDBRANCH   7  12
BRANCH   1  33
HETATM   33  C5  UNL     1       6.953  18.060   9.000  1.00  0.00     0.087 C 
BRANCH  33  34
HETATM   34  C4  UNL     1       7.194  18.458  10.431  1.00  0.00     0.034 C 
BRANCH  34  35
HETATM   35  C3  UNL     1       6.399  17.696  11.408  1.00  0.00     0.105 C 
BRANCH  35  36
HETATM   36  C2  UNL     1       5.849  18.347  12.574  1.00  0.00     0.217 C 
HETATM   37  N1  UNL     1       5.349  17.525  13.639  1.00  0.00    -0.365 N 
HETATM   38  C1  UNL     1       4.778  18.071  14.850  1.00  0.00     0.149 C 
ATOM     39  H1  UNL     1       5.399  16.511  13.537  1.00  0.00     0.161 HD
HETATM   40  O1  UNL     1       5.758  19.577  12.759  1.00  0.00    -0.274 OA
ENDBRANCH  35  36
ENDBRANCH  34  35
ENDBRANCH  33  34
BRANCH  33  41
HETATM   41  C22 UNL     1       5.743  18.879   8.470  1.00  0.00     0.008 A 
HETATM   42  C23 UNL     1       4.390  18.223   8.665  1.00  0.00     0.007 A 
HETATM   43  C24 UNL     1       5.011  18.319   7.306  1.00  0.00     0.007 A 
ENDBRANCH  33  41
ENDBRANCH   1  33
TORSDOF 12
ENDMDL
MODEL 2
REMARK VINA RESULT: -8.566005314      2.412      8.051
REMARK  12 active torsions:
REMARK  status: ('A' for Active; 'I' for Inactive)
REMARK       I    between atoms: N1_2  and  C2_4 
REMARK    1  A    between atoms: C2_4  and  C3_6 
REMARK    2  A    between atoms: C3_6  and  C4_7 
REMARK    3  A    between atoms: C4_7  and  C5_8 
REMARK    4  A    between atoms: C5_8  and  N2_9 
REMARK    5  A    between atoms: C5_8  and  C22_41 
REMARK    6  A    between atoms: C8_15  and  C9_16 
REMARK    7  A    between atoms: C9_16  and  C10_17 
REMARK    8  A    between atoms: C10_17  and  C11_18 
REMARK    9  A    between atoms: C11_18  and  C12_19 
REMARK   10  A    between atoms: C12_19  and  C13_20 
REMARK   11  A    between atoms: C14_25  and  N6_26 
REMARK       I    between atoms: N6_26  and  C15_28 
REMARK   12  A    between atoms: C15_28  and  C16_30 
ROOT
HETATM    1  N2  UNL     1      10.902  16.772   9.171  1.00  0.00    -0.369 N 
ATOM      2  H2  UNL     1      11.543  17.561   9.250  1.00  0.00     0.161 HD
HETATM    3  C6  UNL     1      10.302  16.411  10.240  1.00  0.00     0.131 A 
HETATM    4  C7  UNL     1      10.564  17.114  11.436  1.00  0.00     0.139 A 
HETATM    5  N3  UNL     1       9.917  16.716  12.534  1.00  0.00    -0.351 N 
ATOM      6  H3  UNL     1      10.093  17.212  13.408  1.00  0.00     0.166 HD
HETATM    7  C8  UNL     1       9.050  15.701  12.544  1.00  0.00     0.095 A 
HETATM    8  N7  UNL     1       8.827  15.059  11.399  1.00  0.00    -0.287 N 
ATOM      9  H7  UNL     1       8.168  14.281  11.388  1.00  0.00     0.188 HD
HETATM   10  N8  UNL     1       9.445  15.407  10.257  1.00  0.00    -0.283 N 
ATOM     11  H8  UNL     1       9.250  14.892   9.397  1.00  0.00     0.188 HD
ENDROOT
BRANCH   7  12
HETATM   12  C9  UNL     1       8.359  15.296  13.773  1.00  0.00     0.078 C 
BRANCH  12  13
HETATM   13  C10 UNL     1       9.054  15.977  14.933  1.00  0.00     0.008 C 
BRANCH  13  14
HETATM   14  C11 UNL     1       8.128  16.319  16.052  1.00  0.00     0.007 C 
BRANCH  14  15
HETATM   15  C12 UNL     1       7.702  17.772  16.037  1.00  0.00     0.066 C 
BRANCH  15  16
HETATM   16  C13 UNL     1       6.690  17.940  14.933  1.00  0.00     0.069 A 
HETATM   17  N4  UNL     1       5.441  17.501  14.916  1.00  0.00    -0.296 N 
HETATM   18  N5  UNL     1       4.695  17.717  13.913  1.00  0.00    -0.279 N 
ATOM     19  H4  UNL     1       5.076  16.986  15.717  1.00  0.00     0.187 HD
HETATM   20  C14 UNL     1       5.200  18.397  12.877  1.00  0.00     0.167 A 
ATOM     21  H5  UNL     1       3.733  17.379  13.896  1.00  0.00     0.189 HD
HETATM   22  S1  UNL     1       6.791  18.710  13.412  1.00  0.00    -0.038 SA
BRANCH  20  23
HETATM   23  N6  UNL     1       4.591  18.718  11.757  1.00  0.00    -0.306 N 
HETATM   24  C15 UNL     1       5.143  19.715  10.909  1.00  0.00     0.227 C 
HETATM   25  O2  UNL     1       5.158  20.890  11.352  1.00  0.00    -0.273 OA
ATOM     26  H6  UNL     1       3.722  18.251  11.496  1.00  0.00     0.171 HD
BRANCH  24  27
HETATM   27  C16 UNL     1       5.687  19.442   9.559  1.00  0.00     0.078 C 
HETATM   28  C17 UNL     1       4.667  18.629   8.803  1.00  0.00     0.014 C 
HETATM   29  C18 UNL     1       5.235  18.031   7.530  1.00  0.00     0.001 C 
HETATM   30  C19 UNL     1       6.416  17.173   7.951  1.00  0.00     0.000 C 
HETATM   31  C20 UNL     1       7.499  18.150   8.403  1.00  0.00     0.001 C 
HETATM   32  C21 UNL     1       7.008  18.772   9.687  1.00  0.00     0.014 C 
ENDBRANCH  24  27
ENDBRANCH  20  23
ENDBRANCH  15  16
ENDBRANCH  14  15
ENDBRANCH  13  14
ENDBRANCH  12  13
ENDBRANCH   7  12
BRANCH   1  33
HETATM   33  C5  UNL     1      10.770  16.198   7.911  1.00  0.00     0.087 C 
BRANCH  33  34
HETATM   34  C4  UNL     1      10.536  17.186   6.800  1.00  0.00     0.034 C 
BRANCH  34  35
HETATM   35  C3  UNL     1       9.655  16.688   5.730  1.00  0.00     0.105 C 
BRANCH  35  36
HETATM   36  C2  UNL     1      10.185  16.401   4.417  1.00  0.00     0.217 C 
HETATM   37  N1  UNL     1       9.395  16.755   3.273  1.00  0.00    -0.365 N 
HETATM   38  C1  UNL     1       9.828  16.514   1.915  1.00  0.00     0.149 C 
ATOM     39  H1  UNL     1       8.488  17.197   3.425  1.00  0.00     0.161 HD
HETATM   40  O1  UNL     1      11.282  15.864   4.166  1.00  0.00    -0.274 OA
ENDBRANCH  35  36
ENDBRANCH  34  35
ENDBRANCH  33  34
BRANCH  33  41
HETATM   41  C22 UNL     1      12.074  15.415   7.592  1.00  0.00     0.008 A 
HETATM   42  C23 UNL     1      11.869  13.977   7.157  1.00  0.00     0.007 A 
HETATM   43  C24 UNL     1      12.430  14.302   8.507  1.00  0.00     0.007 A 
ENDBRANCH  33  41
ENDBRANCH   1  33
TORSDOF 12
ENDMDL
MODEL 3
REMARK VINA RESULT: -8.465185497      2.316      6.760
REMARK  12 active torsions:
REMARK  status: ('A' for Active; 'I' for Inactive)
REMARK       I    between atoms: N1_2  and  C2_4 
REMARK    1  A    between atoms: C2_4  and  C3_6 
REMARK    2  A    between atoms: C3_6  and  C4_7 
REMARK    3  A    between atoms: C4_7  and  C5_8 
REMARK    4  A    between atoms: C5_8  and  N2_9 
REMARK    5  A    between atoms: C5_8  and  C22_41 
REMARK    6  A    between atoms: C8_15  and  C9_16 
REMARK    7  A    between atoms: C9_16  and  C10_17 
REMARK    8  A    between atoms: C10_17  and  C11_18 
REMARK    9  A    between atoms: C11_18  and  C12_19 
REMARK   10  A    between atoms: C12_19  and  C13_20 
REMARK   11  A    between atoms: C14_25  and  N6_26 
REMARK       I    between atoms: N6_26  and  C15_28 
REMARK   12  A    between atoms: C15_28  and  C16_30 
ROOT
HETATM    1  N2  UNL     1       6.901  18.358  15.277  1.00  0.00    -0.369 N 
ATOM      2  H2  UNL     1       7.473  19.168  15.516  1.00  0.00     0.161 HD
HETATM    3  C6  UNL     1       6.320  18.382  14.139  1.00  0.00     0.131 A 
HETATM    4  C7  UNL     1       6.502  19.508  13.307  1.00  0.00     0.139 A 
HETATM    5  N3  UNL     1       5.886  19.499  12.122  1.00  0.00    -0.351 N 
ATOM      6  H3  UNL     1       6.006  20.305  11.508  1.00  0.00     0.166 HD
HETATM    7  C8  UNL     1       5.122  18.489  11.703  1.00  0.00     0.095 A 
HETATM    8  N7  UNL     1       4.971  17.442  12.513  1.00  0.00    -0.287 N 
ATOM      9  H7  UNL     1       4.390  16.661  12.209  1.00  0.00     0.188 HD
HETATM   10  N8  UNL     1       5.562  17.386  13.719  1.00  0.00    -0.283 N 
ATOM     11  H8  UNL     1       5.424  16.568  14.314  1.00  0.00     0.188 HD
ENDROOT
BRANCH   7  12
HETATM   12  C9  UNL     1       4.463  18.519  10.393  1.00  0.00     0.078 C 
BRANCH  12  13
HETATM   13  C10 UNL     1       4.802  17.227   9.682  1.00  0.00     0.008 C 
BRANCH  13  14
HETATM   14  C11 UNL     1       5.062  17.410   8.224  1.00  0.00     0.007 C 
BRANCH  14  15
HETATM   15  C12 UNL     1       5.784  18.705   7.916  1.00  0.00     0.066 C 
BRANCH  15  16
HETATM   16  C13 UNL     1       7.230  18.526   8.300  1.00  0.00     0.069 A 
HETATM   17  N4  UNL     1       7.916  19.227   9.189  1.00  0.00    -0.296 N 
HETATM   18  N5  UNL     1       9.136  18.964   9.415  1.00  0.00    -0.279 N 
ATOM     19  H4  UNL     1       7.460  19.984   9.697  1.00  0.00     0.187 HD
HETATM   20  C14 UNL     1       9.709  17.963   8.735  1.00  0.00     0.167 A 
ATOM     21  H5  UNL     1       9.669  19.502  10.098  1.00  0.00     0.189 HD
HETATM   22  S1  UNL     1       8.416  17.422   7.761  1.00  0.00    -0.038 SA
BRANCH  20  23
HETATM   23  N6  UNL     1      10.952  17.541   8.827  1.00  0.00    -0.306 N 
HETATM   24  C15 UNL     1      11.225  16.242   9.332  1.00  0.00     0.227 C 
HETATM   25  O2  UNL     1      10.963  16.038  10.543  1.00  0.00    -0.273 OA
ATOM     26  H6  UNL     1      11.719  18.147   8.536  1.00  0.00     0.171 HD
BRANCH  24  27
HETATM   27  C16 UNL     1      11.791  15.142   8.518  1.00  0.00     0.078 C 
HETATM   28  C17 UNL     1      11.485  13.841   9.218  1.00  0.00     0.014 C 
HETATM   29  C18 UNL     1      12.273  12.679   8.647  1.00  0.00     0.001 C 
HETATM   30  C19 UNL     1      13.741  13.046   8.791  1.00  0.00     0.000 C 
HETATM   31  C20 UNL     1      13.988  14.175   7.792  1.00  0.00     0.001 C 
HETATM   32  C21 UNL     1      13.244  15.379   8.312  1.00  0.00     0.014 C 
ENDBRANCH  24  27
ENDBRANCH  20  23
ENDBRANCH  15  16
ENDBRANCH  14  15
ENDBRANCH  13  14
ENDBRANCH  12  13
ENDBRANCH   7  12
BRANCH   1  33
HETATM   33  C5  UNL     1       6.835  17.340  16.222  1.00  0.00     0.087 C 
BRANCH  33  34
HETATM   34  C4  UNL     1       8.167  16.932  16.791  1.00  0.00     0.034 C 
BRANCH  34  35
HETATM   35  C3  UNL     1       8.900  15.959  15.965  1.00  0.00     0.105 C 
BRANCH  35  36
HETATM   36  C2  UNL     1       8.910  16.079  14.525  1.00  0.00     0.217 C 
HETATM   37  N1  UNL     1       8.135  15.145  13.760  1.00  0.00    -0.365 N 
HETATM   38  C1  UNL     1       8.072  15.173  12.316  1.00  0.00     0.149 C 
ATOM     39  H1  UNL     1       7.604  14.429  14.257  1.00  0.00     0.161 HD
HETATM   40  O1  UNL     1       9.536  16.928  13.859  1.00  0.00    -0.274 OA
ENDBRANCH  35  36
ENDBRANCH  34  35
ENDBRANCH  33  34
BRANCH  33  41
HETATM   41  C22 UNL     1       5.937  17.820  17.395  1.00  0.00     0.008 A 
HETATM   42  C23 UNL     1       4.955  16.790  17.916  1.00  0.00     0.007 A 
HETATM   43  C24 UNL     1       4.486  17.964  17.115  1.00  0.00     0.007 A 
ENDBRANCH  33  41
ENDBRANCH   1  33
TORSDOF 12
ENDMDL
MODEL 4
REMARK VINA RESULT: -8.388069473      2.186      6.853
REMARK  12 active torsions:
REMARK  status: ('A' for Active; 'I' for Inactive)
REMARK       I    between atoms: N1_2  and  C2_4 
REMARK    1  A    between atoms: C2_4  and  C3_6 
REMARK    2  A    between atoms: C3_6  and  C4_7 
REMARK    3  A    between atoms: C4_7  and  C5_8 
REMARK    4  A    between atoms: C5_8  and  N2_9 
REMARK    5  A    between atoms: C5_8  and  C22_41 
REMARK    6  A    between atoms: C8_15  and  C9_16 
REMARK    7  A    between atoms: C9_16  and  C10_17 
REMARK    8  A    between atoms: C10_17  and  C11_18 
REMARK    9  A    between atoms: C11_18  and  C12_19 
REMARK   10  A    between atoms: C12_19  and  C13_20 
REMARK   11  A    between atoms: C14_25  and  N6_26 
REMARK       I    between atoms: N6_26  and  C15_28 
REMARK   12  A    between atoms: C15_28  and  C16_30 
ROOT
HETATM    1  N2  UNL     1       6.188  17.300   9.935  1.00  0.00    -0.369 N 
ATOM      2  H2  UNL     1       5.350  16.750   9.743  1.00  0.00     0.161 HD
HETATM    3  C6  UNL     1       6.417  17.588  11.158  1.00  0.00     0.131 A 
HETATM    4  C7  UNL     1       5.513  17.135  12.144  1.00  0.00     0.139 A 
HETATM    5  N3  UNL     1       5.785  17.447  13.413  1.00  0.00    -0.351 N 
ATOM      6  H3  UNL     1       5.142  17.129  14.139  1.00  0.00     0.166 HD
HETATM    7  C8  UNL     1       6.856  18.155  13.779  1.00  0.00     0.095 A 
HETATM    8  N7  UNL     1       7.688  18.567  12.824  1.00  0.00    -0.287 N 
ATOM      9  H7  UNL     1       8.511  19.109  13.085  1.00  0.00     0.188 HD
HETATM   10  N8  UNL     1       7.474  18.288  11.526  1.00  0.00    -0.283 N 
ATOM     11  H8  UNL     1       8.133  18.621  10.821  1.00  0.00     0.188 HD
ENDROOT
BRANCH   7  12
HETATM   12  C9  UNL     1       7.118  18.475  15.186  1.00  0.00     0.078 C 
BRANCH  12  13
HETATM   13  C10 UNL     1       7.590  17.206  15.863  1.00  0.00     0.008 C 
BRANCH  13  14
HETATM   14  C11 UNL     1       9.055  17.204  16.148  1.00  0.00     0.007 C 
BRANCH  14  15
HETATM   15  C12 UNL     1       9.728  15.908  15.749  1.00  0.00     0.066 C 
BRANCH  15  16
HETATM   16  C13 UNL     1       9.834  15.891  14.246  1.00  0.00     0.069 A 
HETATM   17  N4  UNL     1      10.723  16.524  13.498  1.00  0.00    -0.296 N 
HETATM   18  N5  UNL     1      10.694  16.420  12.234  1.00  0.00    -0.279 N 
ATOM     19  H4  UNL     1      11.438  17.101  13.941  1.00  0.00     0.187 HD
HETATM   20  C14 UNL     1       9.747  15.655  11.679  1.00  0.00     0.167 A 
ATOM     21  H5  UNL     1      11.377  16.907  11.654  1.00  0.00     0.189 HD
HETATM   22  S1  UNL     1       8.903  15.097  13.055  1.00  0.00    -0.038 SA
BRANCH  20  23
HETATM   23  N6  UNL     1       9.553  15.422  10.399  1.00  0.00    -0.306 N 
HETATM   24  C15 UNL     1      10.490  15.896   9.441  1.00  0.00     0.227 C 
HETATM   25  O2  UNL     1      10.577  17.141   9.303  1.00  0.00    -0.273 OA
ATOM     26  H6  UNL     1       8.730  14.902  10.093  1.00  0.00     0.171 HD
BRANCH  24  27
HETATM   27  C16 UNL     1      11.347  15.014   8.618  1.00  0.00     0.078 C 
HETATM   28  C17 UNL     1      11.467  13.688   9.329  1.00  0.00     0.014 C 
HETATM   29  C18 UNL     1      12.560  12.817   8.743  1.00  0.00     0.001 C 
HETATM   30  C19 UNL     1      13.848  13.615   8.853  1.00  0.00     0.000 C 
HETATM   31  C20 UNL     1      13.718  14.755   7.844  1.00  0.00     0.001 C 
HETATM   32  C21 UNL     1      12.653  15.680   8.378  1.00  0.00     0.014 C 
ENDBRANCH  24  27
ENDBRANCH  20  23
ENDBRANCH  15  16
ENDBRANCH  14  15
ENDBRANCH  13  14
ENDBRANCH  12  13
ENDBRANCH   7  12
BRANCH   1  33
HETATM   33  C5  UNL     1       6.962  17.661   8.838  1.00  0.00     0.087 C 
BRANCH  33  34
HETATM   34  C4  UNL     1       7.365  16.510   7.956  1.00  0.00     0.034 C 
BRANCH  34  35
HETATM   35  C3  UNL     1       7.991  16.917   6.687  1.00  0.00     0.105 C 
BRANCH  35  36
HETATM   36  C2  UNL     1       8.967  16.067   6.044  1.00  0.00     0.217 C 
HETATM   37  N1  UNL     1      10.189  16.663   5.586  1.00  0.00    -0.365 N 
HETATM   38  C1  UNL     1      11.233  15.907   4.931  1.00  0.00     0.149 C 
ATOM     39  H1  UNL     1      10.328  17.663   5.728  1.00  0.00     0.161 HD
HETATM   40  O1  UNL     1       8.858  14.842   5.840  1.00  0.00    -0.274 OA
ENDBRANCH  35  36
ENDBRANCH  34  35
ENDBRANCH  33  34
BRANCH  33  41
HETATM   41  C22 UNL     1       6.149  18.666   7.975  1.00  0.00     0.008 A 
HETATM   42  C23 UNL     1       5.465  19.773   8.752  1.00  0.00     0.007 A 
HETATM   43  C24 UNL     1       4.673  18.657   8.145  1.00  0.00     0.007 A 
ENDBRANCH  33  41
ENDBRANCH   1  33
TORSDOF 12
ENDMDL
MODEL 5
REMARK VINA RESULT: -8.301886898      2.396      8.082
REMARK  12 active torsions:
REMARK  status: ('A' for Active; 'I' for Inactive)
REMARK       I    between atoms: N1_2  and  C2_4 
REMARK    1  A    between atoms: C2_4  and  C3_6 
REMARK    2  A    between atoms: C3_6  and  C4_7 
REMARK    3  A    between atoms: C4_7  and  C5_8 
REMARK    4  A    between atoms: C5_8  and  N2_9 
REMARK    5  A    between atoms: C5_8  and  C22_41 
REMARK    6  A    between atoms: C8_15  and  C9_16 
REMARK    7  A    between atoms: C9_16  and  C10_17 
REMARK    8  A    between atoms: C10_17  and  C11_18 
REMARK    9  A    between atoms: C11_18  and  C12_19 
REMARK   10  A    between atoms: C12_19  and  C13_20 
REMARK   11  A    between atoms: C14_25  and  N6_26 
REMARK       I    between atoms: N6_26  and  C15_28 
REMARK   12  A    between atoms: C15_28  and  C16_30 
ROOT
HETATM    1  N2  UNL     1      10.084  15.725   8.755  1.00  0.00    -0.369 N 
ATOM      2  H2  UNL     1       9.448  15.016   8.388  1.00  0.00     0.161 HD
HETATM    3  C6  UNL     1      10.031  15.946  10.012  1.00  0.00     0.131 A 
HETATM    4  C7  UNL     1       9.115  15.210  10.794  1.00  0.00     0.139 A 
HETATM    5  N3  UNL     1       9.089  15.459  12.105  1.00  0.00    -0.351 N 
ATOM      6  H3  UNL     1       8.432  14.937  12.685  1.00  0.00     0.166 HD
HETATM    7  C8  UNL     1       9.880  16.359  12.693  1.00  0.00     0.095 A 
HETATM    8  N7  UNL     1      10.733  17.036  11.927  1.00  0.00    -0.287 N 
ATOM      9  H7  UNL     1      11.346  17.728  12.359  1.00  0.00     0.188 HD
HETATM   10  N8  UNL     1      10.811  16.835  10.600  1.00  0.00    -0.283 N 
ATOM     11  H8  UNL     1      11.476  17.373  10.043  1.00  0.00     0.188 HD
ENDROOT
BRANCH   7  12
HETATM   12  C9  UNL     1       9.821  16.602  14.138  1.00  0.00     0.078 C 
BRANCH  12  13
HETATM   13  C10 UNL     1       8.654  15.809  14.687  1.00  0.00     0.008 C 
BRANCH  13  14
HETATM   14  C11 UNL     1       8.177  16.307  16.011  1.00  0.00     0.007 C 
BRANCH  14  15
HETATM   15  C12 UNL     1       7.773  17.765  15.978  1.00  0.00     0.066 C 
BRANCH  15  16
HETATM   16  C13 UNL     1       6.744  17.929  14.889  1.00  0.00     0.069 A 
HETATM   17  N4  UNL     1       5.498  17.482  14.889  1.00  0.00    -0.296 N 
HETATM   18  N5  UNL     1       4.736  17.695  13.897  1.00  0.00    -0.279 N 
ATOM     19  H4  UNL     1       5.147  16.962  15.693  1.00  0.00     0.187 HD
HETATM   20  C14 UNL     1       5.222  18.381  12.856  1.00  0.00     0.167 A 
ATOM     21  H5  UNL     1       3.776  17.351  13.893  1.00  0.00     0.189 HD
HETATM   22  S1  UNL     1       6.818  18.703  13.369  1.00  0.00    -0.038 SA
BRANCH  20  23
HETATM   23  N6  UNL     1       4.594  18.701  11.745  1.00  0.00    -0.306 N 
HETATM   24  C15 UNL     1       5.125  19.708  10.894  1.00  0.00     0.227 C 
HETATM   25  O2  UNL     1       5.134  20.881  11.342  1.00  0.00    -0.273 OA
ATOM     26  H6  UNL     1       3.727  18.226  11.494  1.00  0.00     0.171 HD
BRANCH  24  27
HETATM   27  C16 UNL     1       5.654  19.447   9.537  1.00  0.00     0.078 C 
HETATM   28  C17 UNL     1       4.639  18.613   8.794  1.00  0.00     0.014 C 
HETATM   29  C18 UNL     1       5.199  18.028   7.513  1.00  0.00     0.001 C 
HETATM   30  C19 UNL     1       6.403  17.194   7.915  1.00  0.00     0.000 C 
HETATM   31  C20 UNL     1       7.474  18.192   8.352  1.00  0.00     0.001 C 
HETATM   32  C21 UNL     1       6.989  18.802   9.643  1.00  0.00     0.014 C 
ENDBRANCH  24  27
ENDBRANCH  20  23
ENDBRANCH  15  16
ENDBRANCH  14  15
ENDBRANCH  13  14
ENDBRANCH  12  13
ENDBRANCH   7  12
BRANCH   1  33
HETATM   33  C5  UNL     1      10.917  16.353   7.836  1.00  0.00     0.087 C 
BRANCH  33  34
HETATM   34  C4  UNL     1      12.383  16.071   8.032  1.00  0.00     0.034 C 
BRANCH  34  35
HETATM   35  C3  UNL     1      12.723  14.639   8.029  1.00  0.00     0.105 C 
BRANCH  35  36
HETATM   36  C2  UNL     1      13.646  14.105   7.053  1.00  0.00     0.217 C 
HETATM   37  N1  UNL     1      13.315  12.866   6.411  1.00  0.00    -0.365 N 
HETATM   38  C1  UNL     1      14.164  12.244   5.420  1.00  0.00     0.149 C 
ATOM     39  H1  UNL     1      12.442  12.403   6.665  1.00  0.00     0.161 HD
HETATM   40  O1  UNL     1      14.726  14.620   6.700  1.00  0.00    -0.274 OA
ENDBRANCH  35  36
ENDBRANCH  34  35
ENDBRANCH  33  34
BRANCH  33  41
HETATM   41  C22 UNL     1      10.522  15.873   6.411  1.00  0.00     0.008 A 
HETATM   42  C23 UNL     1       9.575  16.792   5.664  1.00  0.00     0.007 A 
HETATM   43  C24 UNL     1       9.106  15.477   6.205  1.00  0.00     0.007 A 
ENDBRANCH  33  41
ENDBRANCH   1  33
TORSDOF 12
ENDMDL
