MODEL 1
REMARK VINA RESULT: -7.615440124      0.000      0.000
REMARK  12 active torsions:
REMARK  status: ('A' for Active; 'I' for Inactive)
REMARK    1  A    between atoms: C2_2  and  C3_3 
REMARK    2  A    between atoms: C3_3  and  C4_4 
REMARK    3  A    between atoms: C4_4  and  C5_5 
REMARK    4  A    between atoms: C5_5  and  C6_6 
REMARK    5  A    between atoms: N2_12  and  C9_13 
REMARK    6  A    between atoms: C9_13  and  C10_14 
REMARK       I    between atoms: C10_14  and  N3_16 
REMARK    7  A    between atoms: N3_16  and  C11_18 
REMARK    8  A    between atoms: C13_20  and  C14_21 
REMARK       I    between atoms: C14_21  and  N4_23 
REMARK    9  A    between atoms: N4_23  and  C15_25 
REMARK   10  A    between atoms: C15_25  and  C16_26 
REMARK   11  A    between atoms: C16_26  and  N5_27 
REMARK   12  A    between atoms: C21_33  and  S1_34 
ROOT
HETATM    1  C11 UNL     1       9.770  15.299   5.107  1.00  0.00     0.152 A 
HETATM    2  C12 UNL     1       9.693  15.453   3.747  1.00  0.00     0.077 A 
HETATM    3  C13 UNL     1      10.984  15.305   3.213  1.00  0.00     0.076 A 
HETATM    4  C21 UNL     1      11.768  15.067   4.301  1.00  0.00     0.130 A 
HETATM    5  O5  UNL     1      11.029  15.067   5.412  1.00  0.00    -0.286 OA
ENDROOT
BRANCH   1   6
HETATM    6  N3  UNL     1       8.710  15.368   6.047  1.00  0.00    -0.306 N 
HETATM    7  C10 UNL     1       8.448  16.588   6.744  1.00  0.00     0.242 C 
HETATM    8  O2  UNL     1       9.173  17.575   6.507  1.00  0.00    -0.271 OA
ATOM      9  H3  UNL     1       8.135  14.546   6.225  1.00  0.00     0.171 HD
BRANCH   7  10
HETATM   10  C9  UNL     1       7.355  16.711   7.726  1.00  0.00     0.240 C 
BRANCH  10  11
HETATM   11  N2  UNL     1       7.892  16.401   9.048  1.00  0.00    -0.259 N 
HETATM   12  C8  UNL     1       8.139  15.089   9.550  1.00  0.00     0.326 C 
HETATM   13  N1  UNL     1       8.680  15.205  10.886  1.00  0.00    -0.324 N 
HETATM   14  O1  UNL     1       7.902  14.046   8.890  1.00  0.00    -0.247 OA
HETATM   15  C4  UNL     1       8.519  16.536  11.366  1.00  0.00     0.116 C 
ATOM     16  H1  UNL     1       9.114  14.445  11.408  1.00  0.00     0.165 HD
HETATM   17  C23 UNL     1       8.282  17.281  10.074  1.00  0.00     0.256 C 
HETATM   18  O6  UNL     1       8.421  18.514   9.966  1.00  0.00    -0.270 OA
BRANCH  15  19
HETATM   19  C3  UNL     1       9.671  17.175  12.019  1.00  0.00     0.041 C 
BRANCH  19  20
HETATM   20  C2  UNL     1      10.556  16.279  12.824  1.00  0.00    -0.002 C 
HETATM   21  C1  UNL     1      10.294  16.299  14.306  1.00  0.00     0.005 C 
ENDBRANCH  19  20
ENDBRANCH  15  19
BRANCH  15  22
HETATM   22  C5  UNL     1       7.222  16.699  12.133  1.00  0.00     0.041 C 
BRANCH  22  23
HETATM   23  C6  UNL     1       7.183  17.921  12.999  1.00  0.00    -0.002 C 
HETATM   24  C7  UNL     1       6.777  17.612  14.421  1.00  0.00     0.005 C 
ENDBRANCH  22  23
ENDBRANCH  15  22
ENDBRANCH  10  11
ENDBRANCH   7  10
ENDBRANCH   1   6
BRANCH   3  25
HETATM   25  C14 UNL     1      11.317  15.387   1.816  1.00  0.00     0.255 C 
HETATM   26  O3  UNL     1      11.450  16.563   1.322  1.00  0.00    -0.268 OA
HETATM   27  N4  UNL     1      11.515  14.329   0.917  1.00  0.00    -0.355 N 
ATOM     28  H4  UNL     1      11.411  13.383   1.285  1.00  0.00     0.162 HD
BRANCH  27  29
HETATM   29  C15 UNL     1      11.852  14.456  -0.481  1.00  0.00     0.153 C 
BRANCH  29  30
HETATM   30  C16 UNL     1      13.257  14.070  -0.738  1.00  0.00     0.292 C 
BRANCH  30  31
HETATM   31  N5  UNL     1      13.358  12.884  -1.590  1.00  0.00     0.094 N 
HETATM   32  C17 UNL     1      12.146  12.594  -2.296  1.00  0.00     0.298 C 
HETATM   33  C18 UNL     1      11.705  11.164  -2.079  1.00  0.00     0.198 C 
HETATM   34  O4  UNL     1      12.706  10.255  -2.385  1.00  0.00    -0.388 OA
HETATM   35  C19 UNL     1      13.931  10.577  -1.838  1.00  0.00     0.198 C 
HETATM   36  C20 UNL     1      13.740  11.709  -0.844  1.00  0.00     0.298 C 
ENDBRANCH  30  31
ENDBRANCH  29  30
ENDBRANCH  27  29
ENDBRANCH   3  25
BRANCH   4  37
HETATM   37  S1  UNL     1      13.521  14.786   4.379  1.00  0.00    -0.108 SA
HETATM   38  C22 UNL     1      13.948  14.378   6.102  1.00  0.00     0.097 C 
ENDBRANCH   4  37
TORSDOF 12
ENDMDL
MODEL 2
REMARK VINA RESULT: -7.599198438      2.728      4.276
REMARK  12 active torsions:
REMARK  status: ('A' for Active; 'I' for Inactive)
REMARK    1  A    between atoms: C2_2  and  C3_3 
REMARK    2  A    between atoms: C3_3  and  C4_4 
REMARK    3  A    between atoms: C4_4  and  C5_5 
REMARK    4  A    between atoms: C5_5  and  C6_6 
REMARK    5  A    between atoms: N2_12  and  C9_13 
REMARK    6  A    between atoms: C9_13  and  C10_14 
REMARK       I    between atoms: C10_14  and  N3_16 
REMARK    7  A    between atoms: N3_16  and  C11_18 
REMARK    8  A    between atoms: C13_20  and  C14_21 
REMARK       I    between atoms: C14_21  and  N4_23 
REMARK    9  A    between atoms: N4_23  and  C15_25 
REMARK   10  A    between atoms: C15_25  and  C16_26 
REMARK   11  A    between atoms: C16_26  and  N5_27 
REMARK   12  A    between atoms: C21_33  and  S1_34 
ROOT
HETATM    1  C11 UNL     1      11.646  14.011   7.248  1.00  0.00     0.152 A 
HETATM    2  C12 UNL     1      12.449  12.923   7.023  1.00  0.00     0.077 A 
HETATM    3  C13 UNL     1      12.951  13.008   5.714  1.00  0.00     0.076 A 
HETATM    4  C21 UNL     1      12.410  14.159   5.226  1.00  0.00     0.130 A 
HETATM    5  O5  UNL     1      11.641  14.737   6.151  1.00  0.00    -0.286 OA
ENDROOT
BRANCH   1   6
HETATM    6  N3  UNL     1      10.934  14.331   8.431  1.00  0.00    -0.306 N 
HETATM    7  C10 UNL     1      11.239  15.527   9.151  1.00  0.00     0.242 C 
HETATM    8  O2  UNL     1      12.142  16.269   8.715  1.00  0.00    -0.271 OA
ATOM      9  H3  UNL     1      10.202  13.706   8.769  1.00  0.00     0.171 HD
BRANCH   7  10
HETATM   10  C9  UNL     1      10.522  15.907  10.383  1.00  0.00     0.240 C 
BRANCH  10  11
HETATM   11  N2  UNL     1       9.308  16.623  10.001  1.00  0.00    -0.259 N 
HETATM   12  C8  UNL     1       9.213  18.030   9.793  1.00  0.00     0.326 C 
HETATM   13  N1  UNL     1       7.853  18.346   9.416  1.00  0.00    -0.324 N 
HETATM   14  O1  UNL     1      10.187  18.812   9.931  1.00  0.00    -0.247 OA
HETATM   15  C4  UNL     1       7.006  17.227   9.656  1.00  0.00     0.116 C 
ATOM     16  H1  UNL     1       7.545  19.240   9.034  1.00  0.00     0.165 HD
HETATM   17  C23 UNL     1       8.021  16.113   9.751  1.00  0.00     0.256 C 
HETATM   18  O6  UNL     1       7.724  14.910   9.621  1.00  0.00    -0.270 OA
BRANCH  15  19
HETATM   19  C3  UNL     1       6.055  16.846   8.602  1.00  0.00     0.041 C 
BRANCH  19  20
HETATM   20  C2  UNL     1       5.862  17.833   7.497  1.00  0.00    -0.002 C 
HETATM   21  C1  UNL     1       4.567  18.598   7.553  1.00  0.00     0.005 C 
ENDBRANCH  19  20
ENDBRANCH  15  19
BRANCH  15  22
HETATM   22  C5  UNL     1       6.385  17.284  11.039  1.00  0.00     0.041 C 
BRANCH  22  23
HETATM   23  C6  UNL     1       4.994  17.841  11.052  1.00  0.00    -0.002 C 
HETATM   24  C7  UNL     1       4.969  19.333  11.291  1.00  0.00     0.005 C 
ENDBRANCH  22  23
ENDBRANCH  15  22
ENDBRANCH  10  11
ENDBRANCH   7  10
ENDBRANCH   1   6
BRANCH   3  25
HETATM   25  C14 UNL     1      13.842  12.058   5.105  1.00  0.00     0.255 C 
HETATM   26  O3  UNL     1      15.093  12.344   5.124  1.00  0.00    -0.268 OA
HETATM   27  N4  UNL     1      13.512  10.843   4.487  1.00  0.00    -0.355 N 
ATOM     28  H4  UNL     1      12.523  10.594   4.456  1.00  0.00     0.162 HD
BRANCH  27  29
HETATM   29  C15 UNL     1      14.442   9.914   3.890  1.00  0.00     0.153 C 
BRANCH  29  30
HETATM   30  C16 UNL     1      14.502  10.074   2.420  1.00  0.00     0.292 C 
BRANCH  30  31
HETATM   31  N5  UNL     1      13.202  10.431   1.849  1.00  0.00     0.094 N 
HETATM   32  C17 UNL     1      12.624   9.380   1.067  1.00  0.00     0.298 C 
HETATM   33  C18 UNL     1      12.234   9.863  -0.312  1.00  0.00     0.198 C 
HETATM   34  O4  UNL     1      11.410  10.977  -0.263  1.00  0.00    -0.388 OA
HETATM   35  C19 UNL     1      11.861  11.961   0.593  1.00  0.00     0.198 C 
HETATM   36  C20 UNL     1      13.274  11.617   1.030  1.00  0.00     0.298 C 
ENDBRANCH  30  31
ENDBRANCH  29  30
ENDBRANCH  27  29
ENDBRANCH   3  25
BRANCH   4  37
HETATM   37  S1  UNL     1      12.609  14.897   3.622  1.00  0.00    -0.108 SA
HETATM   38  C22 UNL     1      11.112  15.869   3.262  1.00  0.00     0.097 C 
ENDBRANCH   4  37
TORSDOF 12
ENDMDL
MODEL 3
REMARK VINA RESULT: -7.535048826      3.876     12.686
REMARK  12 active torsions:
REMARK  status: ('A' for Active; 'I' for Inactive)
REMARK    1  A    between atoms: C2_2  and  C3_3 
REMARK    2  A    between atoms: C3_3  and  C4_4 
REMARK    3  A    between atoms: C4_4  and  C5_5 
REMARK    4  A    between atoms: C5_5  and  C6_6 
REMARK    5  A    between atoms: N2_12  and  C9_13 
REMARK    6  A    between atoms: C9_13  and  C10_14 
REMARK       I    between atoms: C10_14  and  N3_16 
REMARK    7  A    between atoms: N3_16  and  C11_18 
REMARK    8  A    between atoms: C13_20  and  C14_21 
REMARK       I    between atoms: C14_21  and  N4_23 
REMARK    9  A    between atoms: N4_23  and  C15_25 
REMARK   10  A    between atoms: C15_25  and  C16_26 
REMARK   11  A    between atoms: C16_26  and  N5_27 
REMARK   12  A    between atoms: C21_33  and  S1_34 
ROOT
HETATM    1  C11 UNL     1       9.594  17.366  10.473  1.00  0.00     0.152 A 
HETATM    2  C12 UNL     1       9.665  17.584  11.824  1.00  0.00     0.077 A 
HETATM    3  C13 UNL     1       8.358  17.725  12.319  1.00  0.00     0.076 A 
HETATM    4  C21 UNL     1       7.570  17.581  11.217  1.00  0.00     0.130 A 
HETATM    5  O5  UNL     1       8.322  17.368  10.135  1.00  0.00    -0.286 OA
ENDROOT
BRANCH   1   6
HETATM    6  N3  UNL     1      10.669  17.169   9.570  1.00  0.00    -0.306 N 
HETATM    7  C10 UNL     1      11.157  15.850   9.312  1.00  0.00     0.242 C 
HETATM    8  O2  UNL     1      10.618  14.892   9.900  1.00  0.00    -0.271 OA
ATOM      9  H3  UNL     1      11.095  17.970   9.105  1.00  0.00     0.171 HD
BRANCH   7  10
HETATM   10  C9  UNL     1      12.268  15.594   8.377  1.00  0.00     0.240 C 
BRANCH  10  11
HETATM   11  N2  UNL     1      11.699  15.258   7.074  1.00  0.00    -0.259 N 
HETATM   12  C8  UNL     1      11.647  13.949   6.511  1.00  0.00     0.326 C 
HETATM   13  N1  UNL     1      10.999  14.032   5.221  1.00  0.00    -0.324 N 
HETATM   14  O1  UNL     1      12.107  12.933   7.090  1.00  0.00    -0.247 OA
HETATM   15  C4  UNL     1      10.893  15.392   4.812  1.00  0.00     0.116 C 
ATOM     16  H1  UNL     1      10.667  13.233   4.681  1.00  0.00     0.165 HD
HETATM   17  C23 UNL     1      11.090  16.104   6.130  1.00  0.00     0.256 C 
HETATM   18  O6  UNL     1      10.748  17.286   6.320  1.00  0.00    -0.270 OA
BRANCH  15  19
HETATM   19  C3  UNL     1       9.605  15.849   4.272  1.00  0.00     0.041 C 
BRANCH  19  20
HETATM   20  C2  UNL     1       9.670  16.791   3.114  1.00  0.00    -0.002 C 
HETATM   21  C1  UNL     1       9.327  16.179   1.782  1.00  0.00     0.005 C 
ENDBRANCH  19  20
ENDBRANCH  15  19
BRANCH  15  22
HETATM   22  C5  UNL     1      12.085  15.818   3.977  1.00  0.00     0.041 C 
BRANCH  22  23
HETATM   23  C6  UNL     1      12.828  14.673   3.358  1.00  0.00    -0.002 C 
HETATM   24  C7  UNL     1      12.552  14.535   1.879  1.00  0.00     0.005 C 
ENDBRANCH  22  23
ENDBRANCH  15  22
ENDBRANCH  10  11
ENDBRANCH   7  10
ENDBRANCH   1   6
BRANCH   3  25
HETATM   25  C14 UNL     1       8.013  17.955  13.696  1.00  0.00     0.255 C 
HETATM   26  O3  UNL     1       7.405  19.052  13.965  1.00  0.00    -0.268 OA
HETATM   27  N4  UNL     1       8.263  17.120  14.794  1.00  0.00    -0.355 N 
ATOM     28  H4  UNL     1       8.749  16.242  14.608  1.00  0.00     0.162 HD
BRANCH  27  29
HETATM   29  C15 UNL     1       7.896  17.388  16.165  1.00  0.00     0.153 C 
BRANCH  29  30
HETATM   30  C16 UNL     1       6.727  16.582  16.582  1.00  0.00     0.292 C 
BRANCH  30  31
HETATM   31  N5  UNL     1       5.585  17.417  16.956  1.00  0.00     0.094 N 
HETATM   32  C17 UNL     1       4.960  17.001  18.175  1.00  0.00     0.298 C 
HETATM   33  C18 UNL     1       3.472  16.800  17.998  1.00  0.00     0.198 C 
HETATM   34  O4  UNL     1       2.853  17.918  17.460  1.00  0.00    -0.388 OA
HETATM   35  C19 UNL     1       3.506  18.437  16.362  1.00  0.00     0.198 C 
HETATM   36  C20 UNL     1       4.578  17.455  15.922  1.00  0.00     0.298 C 
ENDBRANCH  30  31
ENDBRANCH  29  30
ENDBRANCH  27  29
ENDBRANCH   3  25
BRANCH   4  37
HETATM   37  S1  UNL     1       5.799  17.645  11.091  1.00  0.00    -0.108 SA
HETATM   38  C22 UNL     1       5.301  19.396  11.074  1.00  0.00     0.097 C 
ENDBRANCH   4  37
TORSDOF 12
ENDMDL
MODEL 4
REMARK VINA RESULT: -7.529371525      2.449      3.759
REMARK  12 active torsions:
REMARK  status: ('A' for Active; 'I' for Inactive)
REMARK    1  A    between atoms: C2_2  and  C3_3 
REMARK    2  A    between atoms: C3_3  and  C4_4 
REMARK    3  A    between atoms: C4_4  and  C5_5 
REMARK    4  A    between atoms: C5_5  and  C6_6 
REMARK    5  A    between atoms: N2_12  and  C9_13 
REMARK    6  A    between atoms: C9_13  and  C10_14 
REMARK       I    between atoms: C10_14  and  N3_16 
REMARK    7  A    between atoms: N3_16  and  C11_18 
REMARK    8  A    between atoms: C13_20  and  C14_21 
REMARK       I    between atoms: C14_21  and  N4_23 
REMARK    9  A    between atoms: N4_23  and  C15_25 
REMARK   10  A    between atoms: C15_25  and  C16_26 
REMARK   11  A    between atoms: C16_26  and  N5_27 
REMARK   12  A    between atoms: C21_33  and  S1_34 
ROOT
HETATM    1  C11 UNL     1      10.700  16.537   5.881  1.00  0.00     0.152 A 
HETATM    2  C12 UNL     1      11.670  15.700   6.367  1.00  0.00     0.077 A 
HETATM    3  C13 UNL     1      12.177  14.944   5.296  1.00  0.00     0.076 A 
HETATM    4  C21 UNL     1      11.469  15.381   4.218  1.00  0.00     0.130 A 
HETATM    5  O5  UNL     1      10.601  16.325   4.587  1.00  0.00    -0.286 OA
ENDROOT
BRANCH   1   6
HETATM    6  N3  UNL     1       9.923  17.475   6.608  1.00  0.00    -0.306 N 
HETATM    7  C10 UNL     1       8.651  17.096   7.137  1.00  0.00     0.242 C 
HETATM    8  O2  UNL     1       8.248  15.933   6.939  1.00  0.00    -0.271 OA
ATOM      9  H3  UNL     1      10.274  18.422   6.753  1.00  0.00     0.171 HD
BRANCH   7  10
HETATM   10  C9  UNL     1       7.810  18.034   7.904  1.00  0.00     0.240 C 
BRANCH  10  11
HETATM   11  N2  UNL     1       8.102  17.851   9.324  1.00  0.00    -0.259 N 
HETATM   12  C8  UNL     1       9.300  18.266   9.978  1.00  0.00     0.326 C 
HETATM   13  N1  UNL     1       9.199  17.918  11.378  1.00  0.00    -0.324 N 
HETATM   14  O1  UNL     1      10.248  18.834   9.379  1.00  0.00    -0.247 OA
HETATM   15  C4  UNL     1       8.101  17.037  11.586  1.00  0.00     0.116 C 
ATOM     16  H1  UNL     1       9.825  18.255  12.109  1.00  0.00     0.165 HD
HETATM   17  C23 UNL     1       7.304  17.266  10.324  1.00  0.00     0.256 C 
HETATM   18  O6  UNL     1       6.101  16.963  10.215  1.00  0.00    -0.270 OA
BRANCH  15  19
HETATM   19  C3  UNL     1       7.199  17.318  12.713  1.00  0.00     0.041 C 
BRANCH  19  20
HETATM   20  C2  UNL     1       7.738  18.208  13.786  1.00  0.00    -0.002 C 
HETATM   21  C1  UNL     1       8.498  17.498  14.873  1.00  0.00     0.005 C 
ENDBRANCH  19  20
ENDBRANCH  15  19
BRANCH  15  22
HETATM   22  C5  UNL     1       8.527  15.584  11.500  1.00  0.00     0.041 C 
BRANCH  22  23
HETATM   23  C6  UNL     1      10.008  15.397  11.371  1.00  0.00    -0.002 C 
HETATM   24  C7  UNL     1      10.410  14.870  10.014  1.00  0.00     0.005 C 
ENDBRANCH  22  23
ENDBRANCH  15  22
ENDBRANCH  10  11
ENDBRANCH   7  10
ENDBRANCH   1   6
BRANCH   3  25
HETATM   25  C14 UNL     1      13.220  13.959   5.399  1.00  0.00     0.255 C 
HETATM   26  O3  UNL     1      14.419  14.398   5.525  1.00  0.00    -0.268 OA
HETATM   27  N4  UNL     1      13.089  12.564   5.376  1.00  0.00    -0.355 N 
ATOM     28  H4  UNL     1      12.146  12.188   5.274  1.00  0.00     0.162 HD
BRANCH  27  29
HETATM   29  C15 UNL     1      14.166  11.608   5.486  1.00  0.00     0.153 C 
BRANCH  29  30
HETATM   30  C16 UNL     1      14.639  11.167   4.155  1.00  0.00     0.292 C 
BRANCH  30  31
HETATM   31  N5  UNL     1      13.533  10.925   3.228  1.00  0.00     0.094 N 
HETATM   32  C17 UNL     1      13.263   9.533   3.026  1.00  0.00     0.298 C 
HETATM   33  C18 UNL     1      13.248   9.176   1.557  1.00  0.00     0.198 C 
HETATM   34  O4  UNL     1      12.377   9.977   0.833  1.00  0.00    -0.388 OA
HETATM   35  C19 UNL     1      12.509  11.323   1.105  1.00  0.00     0.198 C 
HETATM   36  C20 UNL     1      13.760  11.533   1.938  1.00  0.00     0.298 C 
ENDBRANCH  30  31
ENDBRANCH  29  30
ENDBRANCH  27  29
ENDBRANCH   3  25
BRANCH   4  37
HETATM   37  S1  UNL     1      11.578  14.862   2.522  1.00  0.00    -0.108 SA
HETATM   38  C22 UNL     1      10.729  16.106   1.499  1.00  0.00     0.097 C 
ENDBRANCH   4  37
TORSDOF 12
ENDMDL
MODEL 5
REMARK VINA RESULT: -7.487608732      1.965      2.415
REMARK  12 active torsions:
REMARK  status: ('A' for Active; 'I' for Inactive)
REMARK    1  A    between atoms: C2_2  and  C3_3 
REMARK    2  A    between atoms: C3_3  and  C4_4 
REMARK    3  A    between atoms: C4_4  and  C5_5 
REMARK    4  A    between atoms: C5_5  and  C6_6 
REMARK    5  A    between atoms: N2_12  and  C9_13 
REMARK    6  A    between atoms: C9_13  and  C10_14 
REMARK       I    between atoms: C10_14  and  N3_16 
REMARK    7  A    between atoms: N3_16  and  C11_18 
REMARK    8  A    between atoms: C13_20  and  C14_21 
REMARK       I    between atoms: C14_21  and  N4_23 
REMARK    9  A    between atoms: N4_23  and  C15_25 
REMARK   10  A    between atoms: C15_25  and  C16_26 
REMARK   11  A    between atoms: C16_26  and  N5_27 
REMARK   12  A    between atoms: C21_33  and  S1_34 
ROOT
HETATM    1  C11 UNL     1      10.729  16.474   7.311  1.00  0.00     0.152 A 
HETATM    2  C12 UNL     1      10.902  16.618   5.959  1.00  0.00     0.077 A 
HETATM    3  C13 UNL     1      11.531  15.461   5.469  1.00  0.00     0.076 A 
HETATM    4  C21 UNL     1      11.699  14.683   6.574  1.00  0.00     0.130 A 
HETATM    5  O5  UNL     1      11.217  15.302   7.653  1.00  0.00    -0.286 OA
ENDROOT
BRANCH   1   6
HETATM    6  N3  UNL     1      10.137  17.397   8.211  1.00  0.00    -0.306 N 
HETATM    7  C10 UNL     1       8.721  17.402   8.406  1.00  0.00     0.242 C 
HETATM    8  O2  UNL     1       8.031  16.584   7.765  1.00  0.00    -0.271 OA
ATOM      9  H3  UNL     1      10.723  18.058   8.720  1.00  0.00     0.171 HD
BRANCH   7  10
HETATM   10  C9  UNL     1       8.060  18.337   9.335  1.00  0.00     0.240 C 
BRANCH  10  11
HETATM   11  N2  UNL     1       7.912  17.669  10.625  1.00  0.00    -0.259 N 
HETATM   12  C8  UNL     1       6.704  17.099  11.124  1.00  0.00     0.326 C 
HETATM   13  N1  UNL     1       6.973  16.525  12.424  1.00  0.00    -0.324 N 
HETATM   14  O1  UNL     1       5.619  17.127  10.490  1.00  0.00    -0.247 OA
HETATM   15  C4  UNL     1       8.242  16.960  12.899  1.00  0.00     0.116 C 
ATOM     16  H1  UNL     1       6.344  15.898  12.927  1.00  0.00     0.165 HD
HETATM   17  C23 UNL     1       8.882  17.435  11.617  1.00  0.00     0.256 C 
HETATM   18  O6  UNL     1      10.111  17.589  11.488  1.00  0.00    -0.270 OA
BRANCH  15  19
HETATM   19  C3  UNL     1       9.142  15.951  13.475  1.00  0.00     0.041 C 
BRANCH  19  20
HETATM   20  C2  UNL     1      10.140  16.447  14.471  1.00  0.00    -0.002 C 
HETATM   21  C1  UNL     1       9.963  15.908  15.865  1.00  0.00     0.005 C 
ENDBRANCH  19  20
ENDBRANCH  15  19
BRANCH  15  22
HETATM   22  C5  UNL     1       8.121  18.215  13.742  1.00  0.00     0.041 C 
BRANCH  22  23
HETATM   23  C6  UNL     1       6.837  18.304  14.510  1.00  0.00    -0.002 C 
HETATM   24  C7  UNL     1       7.000  17.909  15.959  1.00  0.00     0.005 C 
ENDBRANCH  22  23
ENDBRANCH  15  22
ENDBRANCH  10  11
ENDBRANCH   7  10
ENDBRANCH   1   6
BRANCH   3  25
HETATM   25  C14 UNL     1      11.873  15.225   4.093  1.00  0.00     0.255 C 
HETATM   26  O3  UNL     1      12.757  15.998   3.576  1.00  0.00    -0.268 OA
HETATM   27  N4  UNL     1      11.355  14.245   3.235  1.00  0.00    -0.355 N 
ATOM     28  H4  UNL     1      10.647  13.619   3.621  1.00  0.00     0.162 HD
BRANCH  27  29
HETATM   29  C15 UNL     1      11.730  14.039   1.856  1.00  0.00     0.153 C 
BRANCH  29  30
HETATM   30  C16 UNL     1      12.846  13.075   1.735  1.00  0.00     0.292 C 
BRANCH  30  31
HETATM   31  N5  UNL     1      12.860  12.406   0.433  1.00  0.00     0.094 N 
HETATM   32  C17 UNL     1      13.354  13.238  -0.622  1.00  0.00     0.298 C 
HETATM   33  C18 UNL     1      12.390  13.292  -1.786  1.00  0.00     0.198 C 
HETATM   34  O4  UNL     1      12.054  12.027  -2.246  1.00  0.00    -0.388 OA
HETATM   35  C19 UNL     1      11.707  11.148  -1.241  1.00  0.00     0.198 C 
HETATM   36  C20 UNL     1      11.553  11.924   0.055  1.00  0.00     0.298 C 
ENDBRANCH  30  31
ENDBRANCH  29  30
ENDBRANCH  27  29
ENDBRANCH   3  25
BRANCH   4  37
HETATM   37  S1  UNL     1      12.434  13.071   6.706  1.00  0.00    -0.108 SA
HETATM   38  C22 UNL     1      12.390  12.575   8.458  1.00  0.00     0.097 C 
ENDBRANCH   4  37
TORSDOF 12
ENDMDL
