MODEL 1
REMARK VINA RESULT: -7.900138791      0.000      0.000
REMARK  17 active torsions:
REMARK  status: ('A' for Active; 'I' for Inactive)
REMARK    1  A    between atoms: C2_2  and  C3_4 
REMARK    2  A    between atoms: C3_4  and  N1_5 
REMARK    3  A    between atoms: C3_4  and  C4_9 
REMARK    4  A    between atoms: C4_9  and  C5_11 
REMARK    5  A    between atoms: C5_11  and  C6_12 
REMARK    6  A    between atoms: C6_12  and  C7_13 
REMARK    7  A    between atoms: C7_13  and  C8_14 
REMARK    8  A    between atoms: C8_14  and  C9_15 
REMARK    9  A    between atoms: C9_15  and  C10_16 
REMARK   10  A    between atoms: C12_21  and  C13_22 
REMARK   11  A    between atoms: C13_22  and  C14_23 
REMARK   12  A    between atoms: C18_28  and  O5_29 
REMARK   13  A    between atoms: N3_31  and  C19_32 
REMARK   14  A    between atoms: C19_32  and  C20_33 
REMARK   15  A    between atoms: C26_39  and  O6_40 
REMARK   16  A    between atoms: C27_44  and  C28_45 
REMARK   17  A    between atoms: C28_45  and  C29_46 
ROOT
HETATM    1  C10 UNL     1       4.939   1.341  11.483  1.00  0.00     0.089 C 
HETATM    2  N2  UNL     1       4.309   2.462  12.155  1.00  0.00    -0.355 N 
ATOM      3  H2  UNL     1       4.230   2.424  13.171  1.00  0.00     0.162 HD
HETATM    4  C11 UNL     1       3.798   3.602  11.495  1.00  0.00     0.229 C 
HETATM    5  O3  UNL     1       3.948   4.724  12.031  1.00  0.00    -0.273 OA
HETATM    6  C12 UNL     1       3.075   3.594  10.182  1.00  0.00     0.152 C 
HETATM    7  C17 UNL     1       3.705   4.554   9.260  1.00  0.00     0.187 C 
HETATM    8  O4  UNL     1       3.994   5.644   9.654  1.00  0.00    -0.292 OA
HETATM    9  C18 UNL     1       3.975   4.164   7.850  1.00  0.00     0.288 C 
HETATM   10  N3  UNL     1       4.597   5.162   7.102  1.00  0.00    -0.367 N 
HETATM   11  C24 UNL     1       5.560   4.969   6.141  1.00  0.00     0.153 C 
HETATM   12  C25 UNL     1       6.402   6.254   6.019  1.00  0.00     0.041 C 
HETATM   13  C26 UNL     1       6.398   3.766   6.063  1.00  0.00     0.138 C 
HETATM   14  N4  UNL     1       7.682   3.426   6.504  1.00  0.00    -0.338 N 
ATOM     15  H4  UNL     1       8.331   3.328   5.723  1.00  0.00     0.167 HD
HETATM   16  C27 UNL     1       8.320   3.183   7.737  1.00  0.00     0.080 C 
HETATM   17  C32 UNL     1       8.022   1.836   8.352  1.00  0.00     0.265 C 
HETATM   18  O7  UNL     1       7.871   0.887   7.505  1.00  0.00    -0.266 OA
HETATM   19  N5  UNL     1       7.901   1.538   9.718  1.00  0.00    -0.351 N 
HETATM   20  C33 UNL     1       8.580   0.345  10.234  1.00  0.00     0.152 C 
HETATM   21  C34 UNL     1       7.151   2.278  10.710  1.00  0.00     0.132 C 
HETATM   22  C35 UNL     1       6.435   1.327  11.683  1.00  0.00     0.022 C 
HETATM   23  C36 UNL     1       6.850   1.675  13.093  1.00  0.00     0.014 C 
ENDROOT
BRANCH   1  24
HETATM   24  C9  UNL     1       4.262   0.036  11.772  1.00  0.00     0.026 C 
BRANCH  24  25
HETATM   25  C8  UNL     1       2.797   0.098  11.952  1.00  0.00     0.002 C 
BRANCH  25  26
HETATM   26  C7  UNL     1       2.401  -0.666  13.196  1.00  0.00     0.000 C 
BRANCH  26  27
HETATM   27  C6  UNL     1       3.475  -0.800  14.215  1.00  0.00     0.007 C 
BRANCH  27  28
HETATM   28  C5  UNL     1       3.357  -2.037  15.068  1.00  0.00     0.081 C 
BRANCH  28  29
HETATM   29  C4  UNL     1       3.803  -3.282  14.426  1.00  0.00     0.164 C 
HETATM   30  O2  UNL     1       3.012  -4.075  13.910  1.00  0.00    -0.295 OA
BRANCH  29  31
HETATM   31  C3  UNL     1       5.277  -3.581  14.406  1.00  0.00     0.320 C 
BRANCH  31  32
HETATM   32  C2  UNL     1       5.959  -2.925  13.276  1.00  0.00     0.160 C 
HETATM   33  C1  UNL     1       7.049  -1.924  13.504  1.00  0.00     0.093 C 
HETATM   34  O1  UNL     1       5.645  -3.190  12.139  1.00  0.00    -0.296 OA
ENDBRANCH  31  32
BRANCH  31  35
HETATM   35  N1  UNL     1       5.826  -3.079  15.680  1.00  0.00    -0.061 N 
ATOM     36  H13 UNL     1       6.346  -3.798  16.184  1.00  0.00     0.275 HD
ATOM     37  H12 UNL     1       6.591  -2.419  15.535  1.00  0.00     0.275 HD
ATOM     38  H11 UNL     1       5.077  -2.679  16.245  1.00  0.00     0.275 HD
ENDBRANCH  31  35
ENDBRANCH  29  31
ENDBRANCH  28  29
ENDBRANCH  27  28
ENDBRANCH  26  27
ENDBRANCH  25  26
ENDBRANCH  24  25
ENDBRANCH   1  24
BRANCH   6  39
HETATM   39  C13 UNL     1       1.670   4.041  10.532  1.00  0.00     0.026 C 
BRANCH  39  40
HETATM   40  C14 UNL     1       0.600   3.055  10.271  1.00  0.00    -0.021 C 
HETATM   41  C15 UNL     1       0.126   2.547  11.640  1.00  0.00     0.009 C 
HETATM   42  C16 UNL     1       1.047   1.835   9.512  1.00  0.00     0.009 C 
ENDBRANCH  39  40
ENDBRANCH   6  39
BRANCH   9  43
HETATM   43  O5  UNL     1       4.721   3.021   7.952  1.00  0.00    -0.370 OA
ATOM     44  H5  UNL     1       5.614   3.331   8.049  1.00  0.00     0.212 HD
ENDBRANCH   9  43
BRANCH  16  45
HETATM   45  C28 UNL     1       8.565   4.243   8.730  1.00  0.00     0.067 C 
BRANCH  45  46
HETATM   46  C29 UNL     1       9.280   5.468   8.271  1.00  0.00    -0.017 C 
HETATM   47  C30 UNL     1      10.616   5.168   7.619  1.00  0.00     0.010 C 
HETATM   48  C31 UNL     1       9.558   6.443   9.386  1.00  0.00     0.010 C 
ENDBRANCH  45  46
ENDBRANCH  16  45
BRANCH  10  49
HETATM   49  C19 UNL     1       3.705   6.260   6.730  1.00  0.00     0.148 C 
BRANCH  49  50
HETATM   50  C20 UNL     1       2.509   5.836   5.992  1.00  0.00    -0.006 C 
HETATM   51  C21 UNL     1       1.258   5.919   6.386  1.00  0.00    -0.090 C 
HETATM   52  C22 UNL     1       0.923   6.491   7.709  1.00  0.00     0.042 C 
HETATM   53  C23 UNL     1       0.158   5.438   5.499  1.00  0.00     0.042 C 
ENDBRANCH  49  50
ENDBRANCH  10  49
BRANCH  13  54
HETATM   54  O6  UNL     1       5.771   2.805   5.420  1.00  0.00    -0.348 OA
ATOM     55  H6  UNL     1       5.005   2.522   5.904  1.00  0.00     0.219 HD
ENDBRANCH  13  54
TORSDOF 17
ENDMDL
MODEL 2
REMARK VINA RESULT: -7.829500569      1.190      1.257
REMARK  17 active torsions:
REMARK  status: ('A' for Active; 'I' for Inactive)
REMARK    1  A    between atoms: C2_2  and  C3_4 
REMARK    2  A    between atoms: C3_4  and  N1_5 
REMARK    3  A    between atoms: C3_4  and  C4_9 
REMARK    4  A    between atoms: C4_9  and  C5_11 
REMARK    5  A    between atoms: C5_11  and  C6_12 
REMARK    6  A    between atoms: C6_12  and  C7_13 
REMARK    7  A    between atoms: C7_13  and  C8_14 
REMARK    8  A    between atoms: C8_14  and  C9_15 
REMARK    9  A    between atoms: C9_15  and  C10_16 
REMARK   10  A    between atoms: C12_21  and  C13_22 
REMARK   11  A    between atoms: C13_22  and  C14_23 
REMARK   12  A    between atoms: C18_28  and  O5_29 
REMARK   13  A    between atoms: N3_31  and  C19_32 
REMARK   14  A    between atoms: C19_32  and  C20_33 
REMARK   15  A    between atoms: C26_39  and  O6_40 
REMARK   16  A    between atoms: C27_44  and  C28_45 
REMARK   17  A    between atoms: C28_45  and  C29_46 
ROOT
HETATM    1  C10 UNL     1       4.689   1.124  11.540  1.00  0.00     0.089 C 
HETATM    2  N2  UNL     1       3.976   2.207  12.189  1.00  0.00    -0.355 N 
ATOM      3  H2  UNL     1       3.819   2.138  13.195  1.00  0.00     0.162 HD
HETATM    4  C11 UNL     1       3.483   3.351  11.522  1.00  0.00     0.229 C 
HETATM    5  O3  UNL     1       3.558   4.461  12.097  1.00  0.00    -0.273 OA
HETATM    6  C12 UNL     1       2.865   3.361  10.157  1.00  0.00     0.152 C 
HETATM    7  C17 UNL     1       3.534   4.364   9.312  1.00  0.00     0.187 C 
HETATM    8  O4  UNL     1       3.760   5.450   9.755  1.00  0.00    -0.292 OA
HETATM    9  C18 UNL     1       3.925   4.022   7.918  1.00  0.00     0.288 C 
HETATM   10  N3  UNL     1       4.572   5.057   7.247  1.00  0.00    -0.367 N 
HETATM   11  C24 UNL     1       5.612   4.918   6.359  1.00  0.00     0.153 C 
HETATM   12  C25 UNL     1       6.422   6.229   6.337  1.00  0.00     0.041 C 
HETATM   13  C26 UNL     1       6.489   3.742   6.316  1.00  0.00     0.138 C 
HETATM   14  N4  UNL     1       7.745   3.426   6.846  1.00  0.00    -0.338 N 
ATOM     15  H4  UNL     1       8.455   3.368   6.116  1.00  0.00     0.167 HD
HETATM   16  C27 UNL     1       8.292   3.165   8.119  1.00  0.00     0.080 C 
HETATM   17  C32 UNL     1       7.989   1.793   8.674  1.00  0.00     0.265 C 
HETATM   18  O7  UNL     1       7.932   0.865   7.792  1.00  0.00    -0.266 OA
HETATM   19  N5  UNL     1       7.771   1.453  10.017  1.00  0.00    -0.351 N 
HETATM   20  C33 UNL     1       8.444   0.266  10.553  1.00  0.00     0.152 C 
HETATM   21  C34 UNL     1       6.924   2.144  10.966  1.00  0.00     0.132 C 
HETATM   22  C35 UNL     1       6.165   1.146  11.856  1.00  0.00     0.022 C 
HETATM   23  C36 UNL     1       6.459   1.466  13.303  1.00  0.00     0.014 C 
ENDROOT
BRANCH   1  24
HETATM   24  C9  UNL     1       4.031  -0.207  11.741  1.00  0.00     0.026 C 
BRANCH  24  25
HETATM   25  C8  UNL     1       2.765  -0.190  12.503  1.00  0.00     0.002 C 
BRANCH  25  26
HETATM   26  C7  UNL     1       2.998  -0.736  13.894  1.00  0.00     0.000 C 
BRANCH  26  27
HETATM   27  C6  UNL     1       3.066  -2.218  13.980  1.00  0.00     0.007 C 
BRANCH  27  28
HETATM   28  C5  UNL     1       4.289  -2.733  14.694  1.00  0.00     0.081 C 
BRANCH  28  29
HETATM   29  C4  UNL     1       4.258  -2.602  16.158  1.00  0.00     0.164 C 
HETATM   30  O2  UNL     1       3.310  -3.011  16.834  1.00  0.00    -0.295 OA
BRANCH  29  31
HETATM   31  C3  UNL     1       5.429  -1.948  16.837  1.00  0.00     0.320 C 
BRANCH  31  32
HETATM   32  C2  UNL     1       6.717  -2.427  16.303  1.00  0.00     0.160 C 
HETATM   33  C1  UNL     1       7.485  -1.626  15.297  1.00  0.00     0.093 C 
HETATM   34  O1  UNL     1       7.175  -3.483  16.674  1.00  0.00    -0.296 OA
ENDBRANCH  31  32
BRANCH  31  35
HETATM   35  N1  UNL     1       5.298  -0.498  16.599  1.00  0.00    -0.061 N 
ATOM     36  H13 UNL     1       6.178  -0.003  16.750  1.00  0.00     0.275 HD
ATOM     37  H12 UNL     1       5.175  -0.281  15.609  1.00  0.00     0.275 HD
ATOM     38  H11 UNL     1       4.542  -0.121  17.171  1.00  0.00     0.275 HD
ENDBRANCH  31  35
ENDBRANCH  29  31
ENDBRANCH  28  29
ENDBRANCH  27  28
ENDBRANCH  26  27
ENDBRANCH  25  26
ENDBRANCH  24  25
ENDBRANCH   1  24
BRANCH   6  39
HETATM   39  C13 UNL     1       1.423   3.757  10.407  1.00  0.00     0.026 C 
BRANCH  39  40
HETATM   40  C14 UNL     1       0.430   2.670  10.296  1.00  0.00    -0.021 C 
HETATM   41  C15 UNL     1      -0.070   2.383  11.719  1.00  0.00     0.009 C 
HETATM   42  C16 UNL     1       0.984   1.368   9.784  1.00  0.00     0.009 C 
ENDBRANCH  39  40
ENDBRANCH   6  39
BRANCH   9  43
HETATM   43  O5  UNL     1       4.694   2.897   8.048  1.00  0.00    -0.370 OA
ATOM     44  H5  UNL     1       5.031   2.741   7.173  1.00  0.00     0.212 HD
ENDBRANCH   9  43
BRANCH  16  45
HETATM   45  C28 UNL     1       8.428   4.203   9.155  1.00  0.00     0.067 C 
BRANCH  45  46
HETATM   46  C29 UNL     1       9.058   5.495   8.761  1.00  0.00    -0.017 C 
HETATM   47  C30 UNL     1      10.395   5.320   8.068  1.00  0.00     0.010 C 
HETATM   48  C31 UNL     1       9.299   6.417   9.929  1.00  0.00     0.010 C 
ENDBRANCH  45  46
ENDBRANCH  16  45
BRANCH  10  49
HETATM   49  C19 UNL     1       3.679   6.140   6.836  1.00  0.00     0.148 C 
BRANCH  49  50
HETATM   50  C20 UNL     1       2.494   5.690   6.095  1.00  0.00    -0.006 C 
HETATM   51  C21 UNL     1       1.235   5.820   6.449  1.00  0.00    -0.090 C 
HETATM   52  C22 UNL     1       0.878   6.481   7.724  1.00  0.00     0.042 C 
HETATM   53  C23 UNL     1       0.149   5.301   5.566  1.00  0.00     0.042 C 
ENDBRANCH  49  50
ENDBRANCH  10  49
BRANCH  13  54
HETATM   54  O6  UNL     1       5.943   2.782   5.600  1.00  0.00    -0.348 OA
ATOM     55  H6  UNL     1       5.986   1.954   6.063  1.00  0.00     0.219 HD
ENDBRANCH  13  54
TORSDOF 17
ENDMDL
MODEL 3
REMARK VINA RESULT: -7.712155428      1.220      1.609
REMARK  17 active torsions:
REMARK  status: ('A' for Active; 'I' for Inactive)
REMARK    1  A    between atoms: C2_2  and  C3_4 
REMARK    2  A    between atoms: C3_4  and  N1_5 
REMARK    3  A    between atoms: C3_4  and  C4_9 
REMARK    4  A    between atoms: C4_9  and  C5_11 
REMARK    5  A    between atoms: C5_11  and  C6_12 
REMARK    6  A    between atoms: C6_12  and  C7_13 
REMARK    7  A    between atoms: C7_13  and  C8_14 
REMARK    8  A    between atoms: C8_14  and  C9_15 
REMARK    9  A    between atoms: C9_15  and  C10_16 
REMARK   10  A    between atoms: C12_21  and  C13_22 
REMARK   11  A    between atoms: C13_22  and  C14_23 
REMARK   12  A    between atoms: C18_28  and  O5_29 
REMARK   13  A    between atoms: N3_31  and  C19_32 
REMARK   14  A    between atoms: C19_32  and  C20_33 
REMARK   15  A    between atoms: C26_39  and  O6_40 
REMARK   16  A    between atoms: C27_44  and  C28_45 
REMARK   17  A    between atoms: C28_45  and  C29_46 
ROOT
HETATM    1  C10 UNL     1       4.764   1.231  11.454  1.00  0.00     0.089 C 
HETATM    2  N2  UNL     1       4.089   2.328  12.120  1.00  0.00    -0.355 N 
ATOM      3  H2  UNL     1       3.956   2.262  13.130  1.00  0.00     0.162 HD
HETATM    4  C11 UNL     1       3.604   3.482  11.466  1.00  0.00     0.229 C 
HETATM    5  O3  UNL     1       3.715   4.590  12.039  1.00  0.00    -0.273 OA
HETATM    6  C12 UNL     1       2.952   3.505  10.116  1.00  0.00     0.152 C 
HETATM    7  C17 UNL     1       3.621   4.495   9.255  1.00  0.00     0.187 C 
HETATM    8  O4  UNL     1       3.879   5.575   9.692  1.00  0.00    -0.292 OA
HETATM    9  C18 UNL     1       3.969   4.145   7.852  1.00  0.00     0.288 C 
HETATM   10  N3  UNL     1       4.621   5.167   7.165  1.00  0.00    -0.367 N 
HETATM   11  C24 UNL     1       5.635   5.008   6.251  1.00  0.00     0.153 C 
HETATM   12  C25 UNL     1       6.471   6.302   6.210  1.00  0.00     0.041 C 
HETATM   13  C26 UNL     1       6.487   3.814   6.187  1.00  0.00     0.138 C 
HETATM   14  N4  UNL     1       7.749   3.472   6.686  1.00  0.00    -0.338 N 
ATOM     15  H4  UNL     1       8.440   3.400   5.938  1.00  0.00     0.167 HD
HETATM   16  C27 UNL     1       8.322   3.200   7.944  1.00  0.00     0.080 C 
HETATM   17  C32 UNL     1       8.005   1.834   8.506  1.00  0.00     0.265 C 
HETATM   18  O7  UNL     1       7.907   0.907   7.627  1.00  0.00    -0.266 OA
HETATM   19  N5  UNL     1       7.813   1.498   9.855  1.00  0.00    -0.351 N 
HETATM   20  C33 UNL     1       8.475   0.297  10.374  1.00  0.00     0.152 C 
HETATM   21  C34 UNL     1       7.005   2.206  10.825  1.00  0.00     0.132 C 
HETATM   22  C35 UNL     1       6.247   1.223  11.733  1.00  0.00     0.022 C 
HETATM   23  C36 UNL     1       6.584   1.536  13.172  1.00  0.00     0.014 C 
ENDROOT
BRANCH   1  24
HETATM   24  C9  UNL     1       4.084  -0.086  11.671  1.00  0.00     0.026 C 
BRANCH  24  25
HETATM   25  C8  UNL     1       2.854  -0.048  12.489  1.00  0.00     0.002 C 
BRANCH  25  26
HETATM   26  C7  UNL     1       2.952  -1.060  13.608  1.00  0.00     0.000 C 
BRANCH  26  27
HETATM   27  C6  UNL     1       4.336  -1.483  13.949  1.00  0.00     0.007 C 
BRANCH  27  28
HETATM   28  C5  UNL     1       4.722  -1.214  15.381  1.00  0.00     0.081 C 
BRANCH  28  29
HETATM   29  C4  UNL     1       4.666  -2.381  16.273  1.00  0.00     0.164 C 
HETATM   30  O2  UNL     1       5.676  -2.856  16.797  1.00  0.00    -0.295 OA
BRANCH  29  31
HETATM   31  C3  UNL     1       3.324  -3.002  16.545  1.00  0.00     0.320 C 
BRANCH  31  32
HETATM   32  C2  UNL     1       3.243  -4.387  16.043  1.00  0.00     0.160 C 
HETATM   33  C1  UNL     1       2.790  -4.680  14.646  1.00  0.00     0.093 C 
HETATM   34  O1  UNL     1       3.545  -5.312  16.761  1.00  0.00    -0.296 OA
ENDBRANCH  31  32
BRANCH  31  35
HETATM   35  N1  UNL     1       3.143  -2.991  18.009  1.00  0.00    -0.061 N 
ATOM     36  H13 UNL     1       2.495  -3.714  18.322  1.00  0.00     0.275 HD
ATOM     37  H12 UNL     1       3.976  -3.316  18.501  1.00  0.00     0.275 HD
ATOM     38  H11 UNL     1       2.856  -2.061  18.314  1.00  0.00     0.275 HD
ENDBRANCH  31  35
ENDBRANCH  29  31
ENDBRANCH  28  29
ENDBRANCH  27  28
ENDBRANCH  26  27
ENDBRANCH  25  26
ENDBRANCH  24  25
ENDBRANCH   1  24
BRANCH   6  39
HETATM   39  C13 UNL     1       1.526   3.931  10.402  1.00  0.00     0.026 C 
BRANCH  39  40
HETATM   40  C14 UNL     1       0.517   2.852  10.381  1.00  0.00    -0.021 C 
HETATM   41  C15 UNL     1       0.162   2.552  11.844  1.00  0.00     0.009 C 
HETATM   42  C16 UNL     1       1.006   1.551   9.802  1.00  0.00     0.009 C 
ENDBRANCH  39  40
ENDBRANCH   6  39
BRANCH   9  43
HETATM   43  O5  UNL     1       4.718   3.005   7.962  1.00  0.00    -0.370 OA
ATOM     44  H5  UNL     1       4.370   2.429   7.292  1.00  0.00     0.212 HD
ENDBRANCH   9  43
BRANCH  16  45
HETATM   45  C28 UNL     1       8.505   4.234   8.976  1.00  0.00     0.067 C 
BRANCH  45  46
HETATM   46  C29 UNL     1       9.187   5.498   8.577  1.00  0.00    -0.017 C 
HETATM   47  C30 UNL     1      10.532   5.266   7.916  1.00  0.00     0.010 C 
HETATM   48  C31 UNL     1       9.434   6.430   9.735  1.00  0.00     0.010 C 
ENDBRANCH  45  46
ENDBRANCH  16  45
BRANCH  10  49
HETATM   49  C19 UNL     1       3.740   6.269   6.776  1.00  0.00     0.148 C 
BRANCH  49  50
HETATM   50  C20 UNL     1       2.556   5.848   6.017  1.00  0.00    -0.006 C 
HETATM   51  C21 UNL     1       1.296   5.969   6.372  1.00  0.00    -0.090 C 
HETATM   52  C22 UNL     1       0.938   6.586   7.668  1.00  0.00     0.042 C 
HETATM   53  C23 UNL     1       0.212   5.485   5.468  1.00  0.00     0.042 C 
ENDBRANCH  49  50
ENDBRANCH  10  49
BRANCH  13  54
HETATM   54  O6  UNL     1       5.904   2.866   5.485  1.00  0.00    -0.348 OA
ATOM     55  H6  UNL     1       6.318   2.776   4.635  1.00  0.00     0.219 HD
ENDBRANCH  13  54
TORSDOF 17
ENDMDL
MODEL 4
REMARK VINA RESULT: -7.668373179      1.116      1.361
REMARK  17 active torsions:
REMARK  status: ('A' for Active; 'I' for Inactive)
REMARK    1  A    between atoms: C2_2  and  C3_4 
REMARK    2  A    between atoms: C3_4  and  N1_5 
REMARK    3  A    between atoms: C3_4  and  C4_9 
REMARK    4  A    between atoms: C4_9  and  C5_11 
REMARK    5  A    between atoms: C5_11  and  C6_12 
REMARK    6  A    between atoms: C6_12  and  C7_13 
REMARK    7  A    between atoms: C7_13  and  C8_14 
REMARK    8  A    between atoms: C8_14  and  C9_15 
REMARK    9  A    between atoms: C9_15  and  C10_16 
REMARK   10  A    between atoms: C12_21  and  C13_22 
REMARK   11  A    between atoms: C13_22  and  C14_23 
REMARK   12  A    between atoms: C18_28  and  O5_29 
REMARK   13  A    between atoms: N3_31  and  C19_32 
REMARK   14  A    between atoms: C19_32  and  C20_33 
REMARK   15  A    between atoms: C26_39  and  O6_40 
REMARK   16  A    between atoms: C27_44  and  C28_45 
REMARK   17  A    between atoms: C28_45  and  C29_46 
ROOT
HETATM    1  C10 UNL     1       4.726   1.137  11.524  1.00  0.00     0.089 C 
HETATM    2  N2  UNL     1       4.011   2.217  12.176  1.00  0.00    -0.355 N 
ATOM      3  H2  UNL     1       3.863   2.149  13.184  1.00  0.00     0.162 HD
HETATM    4  C11 UNL     1       3.504   3.355  11.510  1.00  0.00     0.229 C 
HETATM    5  O3  UNL     1       3.576   4.467  12.082  1.00  0.00    -0.273 OA
HETATM    6  C12 UNL     1       2.874   3.356  10.151  1.00  0.00     0.152 C 
HETATM    7  C17 UNL     1       3.529   4.362   9.297  1.00  0.00     0.187 C 
HETATM    8  O4  UNL     1       3.751   5.450   9.736  1.00  0.00    -0.292 OA
HETATM    9  C18 UNL     1       3.910   4.018   7.901  1.00  0.00     0.288 C 
HETATM   10  N3  UNL     1       4.544   5.056   7.222  1.00  0.00    -0.367 N 
HETATM   11  C24 UNL     1       5.577   4.923   6.325  1.00  0.00     0.153 C 
HETATM   12  C25 UNL     1       6.377   6.239   6.293  1.00  0.00     0.041 C 
HETATM   13  C26 UNL     1       6.463   3.753   6.278  1.00  0.00     0.138 C 
HETATM   14  N4  UNL     1       7.725   3.447   6.798  1.00  0.00    -0.338 N 
ATOM     15  H4  UNL     1       8.429   3.392   6.062  1.00  0.00     0.167 HD
HETATM   16  C27 UNL     1       8.285   3.194   8.066  1.00  0.00     0.080 C 
HETATM   17  C32 UNL     1       7.996   1.822   8.628  1.00  0.00     0.265 C 
HETATM   18  O7  UNL     1       7.939   0.890   7.750  1.00  0.00    -0.266 OA
HETATM   19  N5  UNL     1       7.793   1.484   9.974  1.00  0.00    -0.351 N 
HETATM   20  C33 UNL     1       8.479   0.303  10.507  1.00  0.00     0.152 C 
HETATM   21  C34 UNL     1       6.949   2.171  10.929  1.00  0.00     0.132 C 
HETATM   22  C35 UNL     1       6.204   1.170  11.827  1.00  0.00     0.022 C 
HETATM   23  C36 UNL     1       6.509   1.496  13.270  1.00  0.00     0.014 C 
ENDROOT
BRANCH   1  24
HETATM   24  C9  UNL     1       4.079  -0.199  11.735  1.00  0.00     0.026 C 
BRANCH  24  25
HETATM   25  C8  UNL     1       2.942  -0.221  12.678  1.00  0.00     0.002 C 
BRANCH  25  26
HETATM   26  C7  UNL     1       3.119  -1.352  13.666  1.00  0.00     0.000 C 
BRANCH  26  27
HETATM   27  C6  UNL     1       4.070  -2.412  13.239  1.00  0.00     0.007 C 
BRANCH  27  28
HETATM   28  C5  UNL     1       4.950  -2.926  14.349  1.00  0.00     0.081 C 
BRANCH  28  29
HETATM   29  C4  UNL     1       6.374  -2.583  14.225  1.00  0.00     0.164 C 
HETATM   30  O2  UNL     1       6.831  -2.028  13.223  1.00  0.00    -0.295 OA
BRANCH  29  31
HETATM   31  C3  UNL     1       7.289  -2.926  15.368  1.00  0.00     0.320 C 
BRANCH  31  32
HETATM   32  C2  UNL     1       8.284  -3.948  14.994  1.00  0.00     0.160 C 
HETATM   33  C1  UNL     1       9.741  -3.753  15.281  1.00  0.00     0.093 C 
HETATM   34  O1  UNL     1       7.932  -4.967  14.445  1.00  0.00    -0.296 OA
ENDBRANCH  31  32
BRANCH  31  35
HETATM   35  N1  UNL     1       7.976  -1.677  15.748  1.00  0.00    -0.061 N 
ATOM     36  H13 UNL     1       8.907  -1.610  15.335  1.00  0.00     0.275 HD
ATOM     37  H12 UNL     1       7.558  -0.859  15.304  1.00  0.00     0.275 HD
ATOM     38  H11 UNL     1       8.000  -1.592  16.764  1.00  0.00     0.275 HD
ENDBRANCH  31  35
ENDBRANCH  29  31
ENDBRANCH  28  29
ENDBRANCH  27  28
ENDBRANCH  26  27
ENDBRANCH  25  26
ENDBRANCH  24  25
ENDBRANCH   1  24
BRANCH   6  39
HETATM   39  C13 UNL     1       1.432   3.743  10.412  1.00  0.00     0.026 C 
BRANCH  39  40
HETATM   40  C14 UNL     1       0.450   2.641  10.350  1.00  0.00    -0.021 C 
HETATM   41  C15 UNL     1      -0.069   2.431  11.779  1.00  0.00     0.009 C 
HETATM   42  C16 UNL     1       1.024   1.317   9.922  1.00  0.00     0.009 C 
ENDBRANCH  39  40
ENDBRANCH   6  39
BRANCH   9  43
HETATM   43  O5  UNL     1       4.688   2.900   8.027  1.00  0.00    -0.370 OA
ATOM     44  H5  UNL     1       4.072   2.178   7.980  1.00  0.00     0.212 HD
ENDBRANCH   9  43
BRANCH  16  45
HETATM   45  C28 UNL     1       8.422   4.236   9.098  1.00  0.00     0.067 C 
BRANCH  45  46
HETATM   46  C29 UNL     1       9.097   5.507   8.712  1.00  0.00    -0.017 C 
HETATM   47  C30 UNL     1      10.439   5.290   8.040  1.00  0.00     0.010 C 
HETATM   48  C31 UNL     1       9.349   6.423   9.883  1.00  0.00     0.010 C 
ENDBRANCH  45  46
ENDBRANCH  16  45
BRANCH  10  49
HETATM   49  C19 UNL     1       3.640   6.132   6.815  1.00  0.00     0.148 C 
BRANCH  49  50
HETATM   50  C20 UNL     1       2.443   5.670   6.100  1.00  0.00    -0.006 C 
HETATM   51  C21 UNL     1       1.190   5.811   6.468  1.00  0.00    -0.090 C 
HETATM   52  C22 UNL     1       0.852   6.500   7.732  1.00  0.00     0.042 C 
HETATM   53  C23 UNL     1       0.091   5.277   5.610  1.00  0.00     0.042 C 
ENDBRANCH  49  50
ENDBRANCH  10  49
BRANCH  13  54
HETATM   54  O6  UNL     1       5.917   2.787   5.569  1.00  0.00    -0.348 OA
ATOM     55  H6  UNL     1       6.289   1.946   5.808  1.00  0.00     0.219 HD
ENDBRANCH  13  54
TORSDOF 17
ENDMDL
MODEL 5
REMARK VINA RESULT: -6.880139347      1.744      2.158
REMARK  17 active torsions:
REMARK  status: ('A' for Active; 'I' for Inactive)
REMARK    1  A    between atoms: C2_2  and  C3_4 
REMARK    2  A    between atoms: C3_4  and  N1_5 
REMARK    3  A    between atoms: C3_4  and  C4_9 
REMARK    4  A    between atoms: C4_9  and  C5_11 
REMARK    5  A    between atoms: C5_11  and  C6_12 
REMARK    6  A    between atoms: C6_12  and  C7_13 
REMARK    7  A    between atoms: C7_13  and  C8_14 
REMARK    8  A    between atoms: C8_14  and  C9_15 
REMARK    9  A    between atoms: C9_15  and  C10_16 
REMARK   10  A    between atoms: C12_21  and  C13_22 
REMARK   11  A    between atoms: C13_22  and  C14_23 
REMARK   12  A    between atoms: C18_28  and  O5_29 
REMARK   13  A    between atoms: N3_31  and  C19_32 
REMARK   14  A    between atoms: C19_32  and  C20_33 
REMARK   15  A    between atoms: C26_39  and  O6_40 
REMARK   16  A    between atoms: C27_44  and  C28_45 
REMARK   17  A    between atoms: C28_45  and  C29_46 
ROOT
HETATM    1  C10 UNL     1       4.768   1.257  11.234  1.00  0.00     0.089 C 
HETATM    2  N2  UNL     1       3.958   2.090  12.102  1.00  0.00    -0.355 N 
ATOM      3  H2  UNL     1       4.121   2.030  13.107  1.00  0.00     0.162 HD
HETATM    4  C11 UNL     1       2.957   2.978  11.649  1.00  0.00     0.229 C 
HETATM    5  O3  UNL     1       2.830   4.084  12.222  1.00  0.00    -0.273 OA
HETATM    6  C12 UNL     1       2.011   2.714  10.517  1.00  0.00     0.152 C 
HETATM    7  C17 UNL     1       2.056   3.831   9.557  1.00  0.00     0.187 C 
HETATM    8  O4  UNL     1       2.036   4.954   9.961  1.00  0.00    -0.292 OA
HETATM    9  C18 UNL     1       2.126   3.554   8.097  1.00  0.00     0.288 C 
HETATM   10  N3  UNL     1       2.190   4.703   7.312  1.00  0.00    -0.367 N 
HETATM   11  C24 UNL     1       2.925   4.855   6.160  1.00  0.00     0.153 C 
HETATM   12  C25 UNL     1       3.230   6.352   5.962  1.00  0.00     0.041 C 
HETATM   13  C26 UNL     1       4.084   4.020   5.823  1.00  0.00     0.138 C 
HETATM   14  N4  UNL     1       5.471   4.150   5.962  1.00  0.00    -0.338 N 
ATOM     15  H4  UNL     1       5.926   4.281   5.058  1.00  0.00     0.167 HD
HETATM   16  C27 UNL     1       6.407   4.148   7.015  1.00  0.00     0.080 C 
HETATM   17  C32 UNL     1       6.730   2.784   7.578  1.00  0.00     0.265 C 
HETATM   18  O7  UNL     1       6.729   1.839   6.713  1.00  0.00    -0.266 OA
HETATM   19  N5  UNL     1       7.020   2.467   8.913  1.00  0.00    -0.351 N 
HETATM   20  C33 UNL     1       8.161   1.588   9.188  1.00  0.00     0.152 C 
HETATM   21  C34 UNL     1       6.300   2.903  10.090  1.00  0.00     0.132 C 
HETATM   22  C35 UNL     1       6.184   1.765  11.118  1.00  0.00     0.022 C 
HETATM   23  C36 UNL     1       6.755   2.241  12.433  1.00  0.00     0.014 C 
ENDROOT
BRANCH   1  24
HETATM   24  C9  UNL     1       4.657  -0.202  11.561  1.00  0.00     0.026 C 
BRANCH  24  25
HETATM   25  C8  UNL     1       3.793  -0.539  12.711  1.00  0.00     0.002 C 
BRANCH  25  26
HETATM   26  C7  UNL     1       4.012  -1.981  13.110  1.00  0.00     0.000 C 
BRANCH  26  27
HETATM   27  C6  UNL     1       3.081  -2.491  14.149  1.00  0.00     0.007 C 
BRANCH  27  28
HETATM   28  C5  UNL     1       3.520  -2.197  15.561  1.00  0.00     0.081 C 
BRANCH  28  29
HETATM   29  C4  UNL     1       4.712  -2.932  16.009  1.00  0.00     0.164 C 
HETATM   30  O2  UNL     1       4.839  -4.146  15.835  1.00  0.00    -0.295 OA
BRANCH  29  31
HETATM   31  C3  UNL     1       5.804  -2.160  16.697  1.00  0.00     0.320 C 
BRANCH  31  32
HETATM   32  C2  UNL     1       7.026  -2.078  15.876  1.00  0.00     0.160 C 
HETATM   33  C1  UNL     1       7.119  -1.133  14.718  1.00  0.00     0.093 C 
HETATM   34  O1  UNL     1       7.978  -2.779  16.131  1.00  0.00    -0.296 OA
ENDBRANCH  31  32
BRANCH  31  35
HETATM   35  N1  UNL     1       5.274  -0.804  16.939  1.00  0.00    -0.061 N 
ATOM     36  H13 UNL     1       5.999  -0.090  16.868  1.00  0.00     0.275 HD
ATOM     37  H12 UNL     1       4.676  -0.484  16.177  1.00  0.00     0.275 HD
ATOM     38  H11 UNL     1       4.795  -0.777  17.840  1.00  0.00     0.275 HD
ENDBRANCH  31  35
ENDBRANCH  29  31
ENDBRANCH  28  29
ENDBRANCH  27  28
ENDBRANCH  26  27
ENDBRANCH  25  26
ENDBRANCH  24  25
ENDBRANCH   1  24
BRANCH   6  39
HETATM   39  C13 UNL     1       0.650   2.644  11.182  1.00  0.00     0.026 C 
BRANCH  39  40
HETATM   40  C14 UNL     1       0.084   1.289  11.342  1.00  0.00    -0.021 C 
HETATM   41  C15 UNL     1       0.276   0.902  12.815  1.00  0.00     0.009 C 
HETATM   42  C16 UNL     1       0.782   0.222  10.542  1.00  0.00     0.009 C 
ENDBRANCH  39  40
ENDBRANCH   6  39
BRANCH   9  43
HETATM   43  O5  UNL     1       3.220   2.743   7.958  1.00  0.00    -0.370 OA
ATOM     44  H5  UNL     1       3.516   2.898   7.069  1.00  0.00     0.212 HD
ENDBRANCH   9  43
BRANCH  16  45
HETATM   45  C28 UNL     1       6.488   5.230   8.010  1.00  0.00     0.067 C 
BRANCH  45  46
HETATM   46  C29 UNL     1       7.739   6.040   8.051  1.00  0.00    -0.017 C 
HETATM   47  C30 UNL     1       8.639   5.809   6.853  1.00  0.00     0.010 C 
HETATM   48  C31 UNL     1       8.578   5.771   9.274  1.00  0.00     0.010 C 
ENDBRANCH  45  46
ENDBRANCH  16  45
BRANCH  10  49
HETATM   49  C19 UNL     1       0.919   5.421   7.215  1.00  0.00     0.148 C 
BRANCH  49  50
HETATM   50  C20 UNL     1       0.916   6.726   7.888  1.00  0.00    -0.006 C 
HETATM   51  C21 UNL     1       0.210   7.787   7.568  1.00  0.00    -0.090 C 
HETATM   52  C22 UNL     1      -0.712   7.754   6.411  1.00  0.00     0.042 C 
HETATM   53  C23 UNL     1       0.331   9.039   8.371  1.00  0.00     0.042 C 
ENDBRANCH  49  50
ENDBRANCH  10  49
BRANCH  13  54
HETATM   54  O6  UNL     1       3.697   2.897   5.254  1.00  0.00    -0.348 OA
ATOM     55  H6  UNL     1       3.945   2.884   4.337  1.00  0.00     0.219 HD
ENDBRANCH  13  54
TORSDOF 17
ENDMDL
