MODEL 1
REMARK VINA RESULT: -8.174610688      0.000      0.000
REMARK  14 active torsions:
REMARK  status: ('A' for Active; 'I' for Inactive)
REMARK    1  A    between atoms: C3_3  and  O1_4 
REMARK    2  A    between atoms: C11_14  and  C12_15 
REMARK       I    between atoms: C12_15  and  N1_17 
REMARK    3  A    between atoms: N1_17  and  C13_19 
REMARK    4  A    between atoms: C13_19  and  C14_20 
REMARK    5  A    between atoms: C14_20  and  C15_21 
REMARK    6  A    between atoms: C15_21  and  C16_22 
REMARK    7  A    between atoms: C16_22  and  N2_23 
REMARK    8  A    between atoms: C19_26  and  N3_27 
REMARK    9  A    between atoms: C21_31  and  N4_32 
REMARK       I    between atoms: N5_41  and  C29_42 
REMARK   10  A    between atoms: N7_44  and  C30_46 
REMARK   11  A    between atoms: C30_46  and  C31_47 
REMARK   12  A    between atoms: C31_47  and  C32_48 
REMARK   13  A    between atoms: C32_48  and  C33_49 
REMARK   14  A    between atoms: C33_49  and  N8_50 
ROOT
HETATM    1  C1  UNL     1       9.264   3.759   5.343  1.00  0.00     0.013 C 
HETATM    2  C2  UNL     1       8.664   4.599   6.479  1.00  0.00     0.016 C 
HETATM    3  C3  UNL     1       9.256   5.996   6.310  1.00  0.00     0.131 C 
HETATM    4  C4  UNL     1      10.338   6.302   7.285  1.00  0.00     0.078 C 
HETATM    5  C5  UNL     1       9.843   6.144   8.716  1.00  0.00     0.136 C 
HETATM    6  O2  UNL     1       9.196   7.348   8.557  1.00  0.00    -0.374 OA
HETATM    7  C6  UNL     1      10.299   7.751   7.771  1.00  0.00     0.062 C 
HETATM    8  C7  UNL     1      10.010   8.779   6.735  1.00  0.00     0.046 C 
HETATM    9  C8  UNL     1      11.519   8.151   8.585  1.00  0.00     0.046 C 
HETATM   10  C9  UNL     1       9.086   4.920   8.945  1.00  0.00     0.023 C 
HETATM   11  C10 UNL     1       7.649   5.074   9.350  1.00  0.00     0.049 C 
HETATM   12  C11 UNL     1       7.084   3.685   9.140  1.00  0.00     0.120 C 
HETATM   13  C26 UNL     1       8.105   2.938   8.314  1.00  0.00     0.030 C 
HETATM   14  C27 UNL     1       7.370   2.061   7.397  1.00  0.00     0.028 C 
HETATM   15  C28 UNL     1       6.037   2.707   7.213  1.00  0.00     0.127 C 
HETATM   16  N5  UNL     1       5.893   3.682   8.303  1.00  0.00    -0.337 N 
HETATM   17  C29 UNL     1       4.709   4.453   8.439  1.00  0.00     0.187 C 
HETATM   18  N6  UNL     1       4.673   5.476   9.418  1.00  0.00    -0.064 NA
HETATM   19  N7  UNL     1       3.666   4.272   7.724  1.00  0.00    -0.364 N 
ATOM     20  H7  UNL     1       3.702   3.532   7.023  1.00  0.00     0.162 HD
HETATM   21  C34 UNL     1       9.000   3.960   7.755  1.00  0.00     0.005 C 
ENDROOT
BRANCH  12  22
HETATM   22  C12 UNL     1       6.755   2.995  10.412  1.00  0.00     0.251 C 
HETATM   23  O3  UNL     1       6.465   3.740  11.406  1.00  0.00    -0.270 OA
HETATM   24  N1  UNL     1       6.740   1.619  10.596  1.00  0.00    -0.327 N 
ATOM     25  H1  UNL     1       6.968   1.005   9.814  1.00  0.00     0.168 HD
BRANCH  24  26
HETATM   26  C13 UNL     1       6.390   1.019  11.940  1.00  0.00     0.028 C 
HETATM   27  C21 UNL     1       5.070   0.503  11.772  1.00  0.00     0.118 C 
BRANCH  26  28
HETATM   28  C14 UNL     1       7.619   0.460  12.494  1.00  0.00     0.060 C 
BRANCH  28  29
HETATM   29  C15 UNL     1       7.618  -0.899  13.067  1.00  0.00     0.026 C 
BRANCH  29  30
HETATM   30  C16 UNL     1       7.475  -1.121  14.514  1.00  0.00     0.128 C 
BRANCH  30  31
HETATM   31  N2  UNL     1       7.837  -2.492  14.894  1.00  0.00    -0.364 N 
HETATM   32  C17 UNL     1       7.221  -3.603  14.397  1.00  0.00     0.093 A 
HETATM   33  C18 UNL     1       7.810  -4.713  14.904  1.00  0.00     0.054 A 
HETATM   34  C19 UNL     1       8.820  -4.299  15.740  1.00  0.00     0.119 A 
HETATM   35  C20 UNL     1       8.785  -2.905  15.689  1.00  0.00     0.126 A 
BRANCH  34  36
HETATM   36  N3  UNL     1       9.705  -5.100  16.489  1.00  0.00    -0.114 N 
HETATM   37  O4  UNL     1      10.353  -4.623  17.438  1.00  0.00    -0.532 OA
HETATM   38  O5  UNL     1       9.877  -6.422  16.193  1.00  0.00    -0.532 OA
ENDBRANCH  34  36
ENDBRANCH  30  31
ENDBRANCH  29  30
ENDBRANCH  28  29
ENDBRANCH  26  28
BRANCH  27  39
HETATM   39  N4  UNL     1       4.272  -0.115  12.765  1.00  0.00    -0.326 N 
HETATM   40  C22 UNL     1       3.429   0.691  13.676  1.00  0.00     0.132 C 
HETATM   41  C23 UNL     1       2.604  -0.317  14.383  1.00  0.00     0.029 C 
HETATM   42  C24 UNL     1       3.533  -1.515  14.465  1.00  0.00     0.105 C 
HETATM   43  C25 UNL     1       4.119  -1.471  13.091  1.00  0.00     0.223 C 
HETATM   44  O6  UNL     1       4.379  -2.510  12.449  1.00  0.00    -0.273 OA
ENDBRANCH  27  39
ENDBRANCH  24  26
ENDBRANCH  12  22
BRANCH  19  45
HETATM   45  C30 UNL     1       2.455   5.020   7.825  1.00  0.00     0.122 C 
BRANCH  45  46
HETATM   46  C31 UNL     1       1.404   4.089   8.433  1.00  0.00     0.021 C 
BRANCH  46  47
HETATM   47  C32 UNL     1       1.313   4.284   9.915  1.00  0.00     0.029 C 
BRANCH  47  48
HETATM   48  C33 UNL     1       1.923   3.117  10.673  1.00  0.00     0.229 C 
BRANCH  48  49
HETATM   49  N8  UNL     1       3.119   3.563  11.350  1.00  0.00    -0.079 N 
ATOM     50  H83 UNL     1       3.525   2.835  11.938  1.00  0.00     0.274 HD
ATOM     51  H82 UNL     1       3.903   3.686  10.709  1.00  0.00     0.274 HD
ATOM     52  H81 UNL     1       2.910   4.412  11.874  1.00  0.00     0.274 HD
ENDBRANCH  48  49
ENDBRANCH  47  48
ENDBRANCH  46  47
ENDBRANCH  45  46
ENDBRANCH  19  45
BRANCH   3  53
HETATM   53  O1  UNL     1       8.240   6.978   6.351  1.00  0.00    -0.395 OA
ATOM     54  H1  UNL     1       8.578   7.797   6.695  1.00  0.00     0.210 HD
ENDBRANCH   3  53
TORSDOF 14
ENDMDL
MODEL 2
REMARK VINA RESULT: -8.146211886      0.994      1.043
REMARK  14 active torsions:
REMARK  status: ('A' for Active; 'I' for Inactive)
REMARK    1  A    between atoms: C3_3  and  O1_4 
REMARK    2  A    between atoms: C11_14  and  C12_15 
REMARK       I    between atoms: C12_15  and  N1_17 
REMARK    3  A    between atoms: N1_17  and  C13_19 
REMARK    4  A    between atoms: C13_19  and  C14_20 
REMARK    5  A    between atoms: C14_20  and  C15_21 
REMARK    6  A    between atoms: C15_21  and  C16_22 
REMARK    7  A    between atoms: C16_22  and  N2_23 
REMARK    8  A    between atoms: C19_26  and  N3_27 
REMARK    9  A    between atoms: C21_31  and  N4_32 
REMARK       I    between atoms: N5_41  and  C29_42 
REMARK   10  A    between atoms: N7_44  and  C30_46 
REMARK   11  A    between atoms: C30_46  and  C31_47 
REMARK   12  A    between atoms: C31_47  and  C32_48 
REMARK   13  A    between atoms: C32_48  and  C33_49 
REMARK   14  A    between atoms: C33_49  and  N8_50 
ROOT
HETATM    1  C1  UNL     1       9.171   3.659   5.387  1.00  0.00     0.013 C 
HETATM    2  C2  UNL     1       8.580   4.479   6.541  1.00  0.00     0.016 C 
HETATM    3  C3  UNL     1       9.141   5.889   6.371  1.00  0.00     0.131 C 
HETATM    4  C4  UNL     1      10.238   6.208   7.325  1.00  0.00     0.078 C 
HETATM    5  C5  UNL     1       9.776   6.031   8.765  1.00  0.00     0.136 C 
HETATM    6  O2  UNL     1       9.103   7.224   8.628  1.00  0.00    -0.374 OA
HETATM    7  C6  UNL     1      10.181   7.653   7.823  1.00  0.00     0.062 C 
HETATM    8  C7  UNL     1       9.852   8.682   6.801  1.00  0.00     0.046 C 
HETATM    9  C8  UNL     1      11.410   8.070   8.614  1.00  0.00     0.046 C 
HETATM   10  C9  UNL     1       9.047   4.791   9.001  1.00  0.00     0.023 C 
HETATM   11  C10 UNL     1       7.616   4.915   9.437  1.00  0.00     0.049 C 
HETATM   12  C11 UNL     1       7.073   3.517   9.228  1.00  0.00     0.120 C 
HETATM   13  C26 UNL     1       8.090   2.796   8.375  1.00  0.00     0.030 C 
HETATM   14  C27 UNL     1       7.352   1.911   7.467  1.00  0.00     0.028 C 
HETATM   15  C28 UNL     1       6.004   2.533   7.316  1.00  0.00     0.127 C 
HETATM   16  N5  UNL     1       5.864   3.498   8.416  1.00  0.00    -0.337 N 
HETATM   17  C29 UNL     1       4.670   4.244   8.582  1.00  0.00     0.187 C 
HETATM   18  N6  UNL     1       4.635   5.260   9.570  1.00  0.00    -0.064 NA
HETATM   19  N7  UNL     1       3.615   4.049   7.888  1.00  0.00    -0.364 N 
ATOM     20  H7  UNL     1       3.650   3.315   7.181  1.00  0.00     0.162 HD
HETATM   21  C34 UNL     1       8.954   3.838   7.805  1.00  0.00     0.005 C 
ENDROOT
BRANCH  12  22
HETATM   22  C12 UNL     1       6.783   2.811  10.501  1.00  0.00     0.251 C 
HETATM   23  O3  UNL     1       6.538   3.545  11.516  1.00  0.00    -0.270 OA
HETATM   24  N1  UNL     1       6.761   1.434  10.666  1.00  0.00    -0.327 N 
ATOM     25  H1  UNL     1       6.954   0.829   9.868  1.00  0.00     0.168 HD
BRANCH  24  26
HETATM   26  C13 UNL     1       6.454   0.818  12.014  1.00  0.00     0.028 C 
HETATM   27  C21 UNL     1       5.099   0.380  11.910  1.00  0.00     0.118 C 
BRANCH  26  28
HETATM   28  C14 UNL     1       7.679   0.177  12.482  1.00  0.00     0.060 C 
BRANCH  28  29
HETATM   29  C15 UNL     1       7.604  -1.051  13.296  1.00  0.00     0.026 C 
BRANCH  29  30
HETATM   30  C16 UNL     1       7.342  -0.997  14.743  1.00  0.00     0.128 C 
BRANCH  30  31
HETATM   31  N2  UNL     1       7.580  -2.293  15.389  1.00  0.00    -0.364 N 
HETATM   32  C17 UNL     1       8.691  -3.054  15.172  1.00  0.00     0.093 A 
HETATM   33  C18 UNL     1       8.638  -4.165  15.946  1.00  0.00     0.054 A 
HETATM   34  C19 UNL     1       7.470  -4.109  16.669  1.00  0.00     0.119 A 
HETATM   35  C20 UNL     1       6.857  -2.918  16.277  1.00  0.00     0.126 A 
BRANCH  34  36
HETATM   36  N3  UNL     1       6.987  -5.044  17.606  1.00  0.00    -0.114 N 
HETATM   37  O4  UNL     1       7.734  -5.522  18.478  1.00  0.00    -0.532 OA
HETATM   38  O5  UNL     1       5.684  -5.453  17.581  1.00  0.00    -0.532 OA
ENDBRANCH  34  36
ENDBRANCH  30  31
ENDBRANCH  29  30
ENDBRANCH  28  29
ENDBRANCH  26  28
BRANCH  27  39
HETATM   39  N4  UNL     1       4.325  -0.220  12.933  1.00  0.00    -0.326 N 
HETATM   40  C22 UNL     1       3.551   0.606  13.886  1.00  0.00     0.132 C 
HETATM   41  C23 UNL     1       2.724  -0.380  14.622  1.00  0.00     0.029 C 
HETATM   42  C24 UNL     1       3.615  -1.609  14.654  1.00  0.00     0.105 C 
HETATM   43  C25 UNL     1       4.141  -1.573  13.255  1.00  0.00     0.223 C 
HETATM   44  O6  UNL     1       4.338  -2.614  12.595  1.00  0.00    -0.273 OA
ENDBRANCH  27  39
ENDBRANCH  24  26
ENDBRANCH  12  22
BRANCH  19  45
HETATM   45  C30 UNL     1       2.392   4.774   8.020  1.00  0.00     0.122 C 
BRANCH  45  46
HETATM   46  C31 UNL     1       1.386   3.833   8.685  1.00  0.00     0.021 C 
BRANCH  46  47
HETATM   47  C32 UNL     1       1.357   4.046  10.167  1.00  0.00     0.029 C 
BRANCH  47  48
HETATM   48  C33 UNL     1       2.058   2.919  10.909  1.00  0.00     0.229 C 
BRANCH  48  49
HETATM   49  N8  UNL     1       3.199   3.454  11.616  1.00  0.00    -0.079 N 
ATOM     50  H83 UNL     1       4.083   3.182  11.186  1.00  0.00     0.274 HD
ATOM     51  H82 UNL     1       3.287   4.464  11.501  1.00  0.00     0.274 HD
ATOM     52  H81 UNL     1       3.144   3.179  12.596  1.00  0.00     0.274 HD
ENDBRANCH  48  49
ENDBRANCH  47  48
ENDBRANCH  46  47
ENDBRANCH  45  46
ENDBRANCH  19  45
BRANCH   3  53
HETATM   53  O1  UNL     1       8.108   6.850   6.440  1.00  0.00    -0.395 OA
ATOM     54  H1  UNL     1       8.077   7.249   7.303  1.00  0.00     0.210 HD
ENDBRANCH   3  53
TORSDOF 14
ENDMDL
MODEL 3
REMARK VINA RESULT: -8.139562477      1.890      2.170
REMARK  14 active torsions:
REMARK  status: ('A' for Active; 'I' for Inactive)
REMARK    1  A    between atoms: C3_3  and  O1_4 
REMARK    2  A    between atoms: C11_14  and  C12_15 
REMARK       I    between atoms: C12_15  and  N1_17 
REMARK    3  A    between atoms: N1_17  and  C13_19 
REMARK    4  A    between atoms: C13_19  and  C14_20 
REMARK    5  A    between atoms: C14_20  and  C15_21 
REMARK    6  A    between atoms: C15_21  and  C16_22 
REMARK    7  A    between atoms: C16_22  and  N2_23 
REMARK    8  A    between atoms: C19_26  and  N3_27 
REMARK    9  A    between atoms: C21_31  and  N4_32 
REMARK       I    between atoms: N5_41  and  C29_42 
REMARK   10  A    between atoms: N7_44  and  C30_46 
REMARK   11  A    between atoms: C30_46  and  C31_47 
REMARK   12  A    between atoms: C31_47  and  C32_48 
REMARK   13  A    between atoms: C32_48  and  C33_49 
REMARK   14  A    between atoms: C33_49  and  N8_50 
ROOT
HETATM    1  C1  UNL     1       9.454   3.889   5.141  1.00  0.00     0.013 C 
HETATM    2  C2  UNL     1       8.797   4.719   6.252  1.00  0.00     0.016 C 
HETATM    3  C3  UNL     1       9.345   6.134   6.085  1.00  0.00     0.131 C 
HETATM    4  C4  UNL     1      10.391   6.486   7.084  1.00  0.00     0.078 C 
HETATM    5  C5  UNL     1       9.864   6.325   8.504  1.00  0.00     0.136 C 
HETATM    6  O2  UNL     1       9.181   7.504   8.315  1.00  0.00    -0.374 OA
HETATM    7  C6  UNL     1      10.289   7.937   7.554  1.00  0.00     0.062 C 
HETATM    8  C7  UNL     1       9.993   8.945   6.501  1.00  0.00     0.046 C 
HETATM    9  C8  UNL     1      11.473   8.387   8.395  1.00  0.00     0.046 C 
HETATM   10  C9  UNL     1       9.143   5.077   8.726  1.00  0.00     0.023 C 
HETATM   11  C10 UNL     1       7.691   5.187   9.092  1.00  0.00     0.049 C 
HETATM   12  C11 UNL     1       7.179   3.776   8.881  1.00  0.00     0.120 C 
HETATM   13  C26 UNL     1       8.247   3.058   8.090  1.00  0.00     0.030 C 
HETATM   14  C27 UNL     1       7.566   2.147   7.162  1.00  0.00     0.028 C 
HETATM   15  C28 UNL     1       6.217   2.745   6.938  1.00  0.00     0.127 C 
HETATM   16  N5  UNL     1       6.011   3.725   8.013  1.00  0.00    -0.337 N 
HETATM   17  C29 UNL     1       4.799   4.456   8.111  1.00  0.00     0.187 C 
HETATM   18  N6  UNL     1       4.703   5.487   9.079  1.00  0.00    -0.064 NA
HETATM   19  N7  UNL     1       3.782   4.233   7.371  1.00  0.00    -0.364 N 
ATOM     20  H7  UNL     1       3.861   3.488   6.679  1.00  0.00     0.162 HD
HETATM   21  C34 UNL     1       9.121   4.104   7.543  1.00  0.00     0.005 C 
ENDROOT
BRANCH  12  22
HETATM   22  C12 UNL     1       6.840   3.087  10.151  1.00  0.00     0.251 C 
HETATM   23  O3  UNL     1       6.843   3.804  11.207  1.00  0.00    -0.270 OA
HETATM   24  N1  UNL     1       6.527   1.741  10.273  1.00  0.00    -0.327 N 
ATOM     25  H1  UNL     1       6.519   1.150   9.442  1.00  0.00     0.168 HD
BRANCH  24  26
HETATM   26  C13 UNL     1       6.197   1.139  11.621  1.00  0.00     0.028 C 
HETATM   27  C21 UNL     1       4.784   0.939  11.590  1.00  0.00     0.118 C 
BRANCH  26  28
HETATM   28  C14 UNL     1       7.320   0.286  11.997  1.00  0.00     0.060 C 
BRANCH  28  29
HETATM   29  C15 UNL     1       7.071  -1.054  12.561  1.00  0.00     0.026 C 
BRANCH  29  30
HETATM   30  C16 UNL     1       7.464  -1.390  13.939  1.00  0.00     0.128 C 
BRANCH  30  31
HETATM   31  N2  UNL     1       6.441  -2.195  14.617  1.00  0.00    -0.364 N 
HETATM   32  C17 UNL     1       6.143  -2.079  15.943  1.00  0.00     0.093 A 
HETATM   33  C18 UNL     1       5.128  -2.921  16.255  1.00  0.00     0.054 A 
HETATM   34  C19 UNL     1       4.774  -3.586  15.104  1.00  0.00     0.119 A 
HETATM   35  C20 UNL     1       5.629  -3.087  14.120  1.00  0.00     0.126 A 
BRANCH  34  36
HETATM   36  N3  UNL     1       3.768  -4.559  14.942  1.00  0.00    -0.114 N 
HETATM   37  O4  UNL     1       2.918  -4.458  14.040  1.00  0.00    -0.532 OA
HETATM   38  O5  UNL     1       3.698  -5.641  15.773  1.00  0.00    -0.532 OA
ENDBRANCH  34  36
ENDBRANCH  30  31
ENDBRANCH  29  30
ENDBRANCH  28  29
ENDBRANCH  26  28
BRANCH  27  39
HETATM   39  N4  UNL     1       3.978   0.442  12.644  1.00  0.00    -0.326 N 
HETATM   40  C22 UNL     1       4.370   0.634  14.057  1.00  0.00     0.132 C 
HETATM   41  C23 UNL     1       3.180   0.187  14.821  1.00  0.00     0.029 C 
HETATM   42  C24 UNL     1       2.613  -0.915  13.943  1.00  0.00     0.105 C 
HETATM   43  C25 UNL     1       2.772  -0.274  12.602  1.00  0.00     0.223 C 
HETATM   44  O6  UNL     1       1.927  -0.418  11.696  1.00  0.00    -0.273 OA
ENDBRANCH  27  39
ENDBRANCH  24  26
ENDBRANCH  12  22
BRANCH  19  45
HETATM   45  C30 UNL     1       2.543   4.940   7.433  1.00  0.00     0.122 C 
BRANCH  45  46
HETATM   46  C31 UNL     1       1.498   3.964   7.974  1.00  0.00     0.021 C 
BRANCH  46  47
HETATM   47  C32 UNL     1       1.307   4.151   9.448  1.00  0.00     0.029 C 
BRANCH  47  48
HETATM   48  C33 UNL     1       1.849   2.971  10.239  1.00  0.00     0.229 C 
BRANCH  48  49
HETATM   49  N8  UNL     1       1.400   1.742   9.625  1.00  0.00    -0.079 N 
ATOM     50  H83 UNL     1       0.804   1.195  10.246  1.00  0.00     0.274 HD
ATOM     51  H82 UNL     1       0.721   1.907   8.881  1.00  0.00     0.274 HD
ATOM     52  H81 UNL     1       2.210   1.215   9.301  1.00  0.00     0.274 HD
ENDBRANCH  48  49
ENDBRANCH  47  48
ENDBRANCH  46  47
ENDBRANCH  45  46
ENDBRANCH  19  45
BRANCH   3  53
HETATM   53  O1  UNL     1       8.296   7.081   6.089  1.00  0.00    -0.395 OA
ATOM     54  H1  UNL     1       8.421   7.718   6.783  1.00  0.00     0.210 HD
ENDBRANCH   3  53
TORSDOF 14
ENDMDL
MODEL 4
REMARK VINA RESULT: -7.988157810      2.157      2.689
REMARK  14 active torsions:
REMARK  status: ('A' for Active; 'I' for Inactive)
REMARK    1  A    between atoms: C3_3  and  O1_4 
REMARK    2  A    between atoms: C11_14  and  C12_15 
REMARK       I    between atoms: C12_15  and  N1_17 
REMARK    3  A    between atoms: N1_17  and  C13_19 
REMARK    4  A    between atoms: C13_19  and  C14_20 
REMARK    5  A    between atoms: C14_20  and  C15_21 
REMARK    6  A    between atoms: C15_21  and  C16_22 
REMARK    7  A    between atoms: C16_22  and  N2_23 
REMARK    8  A    between atoms: C19_26  and  N3_27 
REMARK    9  A    between atoms: C21_31  and  N4_32 
REMARK       I    between atoms: N5_41  and  C29_42 
REMARK   10  A    between atoms: N7_44  and  C30_46 
REMARK   11  A    between atoms: C30_46  and  C31_47 
REMARK   12  A    between atoms: C31_47  and  C32_48 
REMARK   13  A    between atoms: C32_48  and  C33_49 
REMARK   14  A    between atoms: C33_49  and  N8_50 
ROOT
HETATM    1  C1  UNL     1       9.439   3.386   5.194  1.00  0.00     0.013 C 
HETATM    2  C2  UNL     1       8.640   4.420   6.000  1.00  0.00     0.016 C 
HETATM    3  C3  UNL     1       9.315   5.762   5.727  1.00  0.00     0.131 C 
HETATM    4  C4  UNL     1      10.167   6.235   6.851  1.00  0.00     0.078 C 
HETATM    5  C5  UNL     1       9.361   6.341   8.139  1.00  0.00     0.136 C 
HETATM    6  O2  UNL     1       8.818   7.498   7.628  1.00  0.00    -0.374 OA
HETATM    7  C6  UNL     1      10.084   7.749   7.054  1.00  0.00     0.062 C 
HETATM    8  C7  UNL     1      10.077   8.573   5.816  1.00  0.00     0.046 C 
HETATM    9  C8  UNL     1      11.110   8.286   8.038  1.00  0.00     0.046 C 
HETATM   10  C9  UNL     1       8.518   5.181   8.402  1.00  0.00     0.023 C 
HETATM   11  C10 UNL     1       7.036   5.411   8.439  1.00  0.00     0.049 C 
HETATM   12  C11 UNL     1       6.471   4.007   8.354  1.00  0.00     0.120 C 
HETATM   13  C26 UNL     1       7.616   3.121   7.924  1.00  0.00     0.030 C 
HETATM   14  C27 UNL     1       7.065   2.094   7.033  1.00  0.00     0.028 C 
HETATM   15  C28 UNL     1       5.835   2.700   6.443  1.00  0.00     0.127 C 
HETATM   16  N5  UNL     1       5.496   3.857   7.283  1.00  0.00    -0.337 N 
HETATM   17  C29 UNL     1       4.347   4.643   7.011  1.00  0.00     0.187 C 
HETATM   18  N6  UNL     1       4.139   5.827   7.762  1.00  0.00    -0.064 NA
HETATM   19  N7  UNL     1       3.481   4.339   6.122  1.00  0.00    -0.364 N 
ATOM     20  H7  UNL     1       3.638   3.484   5.588  1.00  0.00     0.162 HD
HETATM   21  C34 UNL     1       8.657   4.022   7.411  1.00  0.00     0.005 C 
ENDROOT
BRANCH  12  22
HETATM   22  C12 UNL     1       5.838   3.560   9.619  1.00  0.00     0.251 C 
HETATM   23  O3  UNL     1       5.330   4.470  10.356  1.00  0.00    -0.270 OA
HETATM   24  N1  UNL     1       5.760   2.244  10.054  1.00  0.00    -0.327 N 
ATOM     25  H1  UNL     1       6.159   1.501   9.481  1.00  0.00     0.168 HD
BRANCH  24  26
HETATM   26  C13 UNL     1       5.091   1.898  11.366  1.00  0.00     0.028 C 
HETATM   27  C21 UNL     1       3.794   1.432  10.998  1.00  0.00     0.118 C 
BRANCH  26  28
HETATM   28  C14 UNL     1       6.127   1.377  12.252  1.00  0.00     0.060 C 
BRANCH  28  29
HETATM   29  C15 UNL     1       6.634   0.004  12.065  1.00  0.00     0.026 C 
BRANCH  29  30
HETATM   30  C16 UNL     1       7.236  -0.748  13.177  1.00  0.00     0.128 C 
BRANCH  30  31
HETATM   31  N2  UNL     1       6.227  -1.489  13.943  1.00  0.00    -0.364 N 
HETATM   32  C17 UNL     1       5.636  -1.012  15.077  1.00  0.00     0.093 A 
HETATM   33  C18 UNL     1       4.720  -1.906  15.521  1.00  0.00     0.054 A 
HETATM   34  C19 UNL     1       4.729  -2.973  14.654  1.00  0.00     0.119 A 
HETATM   35  C20 UNL     1       5.689  -2.651  13.693  1.00  0.00     0.126 A 
BRANCH  34  36
HETATM   36  N3  UNL     1       3.944  -4.142  14.712  1.00  0.00    -0.114 N 
HETATM   37  O4  UNL     1       2.960  -4.291  13.965  1.00  0.00    -0.532 OA
HETATM   38  O5  UNL     1       4.242  -5.144  15.591  1.00  0.00    -0.532 OA
ENDBRANCH  34  36
ENDBRANCH  30  31
ENDBRANCH  29  30
ENDBRANCH  28  29
ENDBRANCH  26  28
BRANCH  27  39
HETATM   39  N4  UNL     1       2.758   1.032  11.878  1.00  0.00    -0.326 N 
HETATM   40  C22 UNL     1       2.822  -0.264  12.589  1.00  0.00     0.132 C 
HETATM   41  C23 UNL     1       1.699  -0.196  13.554  1.00  0.00     0.029 C 
HETATM   42  C24 UNL     1       0.669   0.640  12.814  1.00  0.00     0.105 C 
HETATM   43  C25 UNL     1       1.567   1.683  12.231  1.00  0.00     0.223 C 
HETATM   44  O6  UNL     1       1.216   2.876  12.129  1.00  0.00    -0.273 OA
ENDBRANCH  27  39
ENDBRANCH  24  26
ENDBRANCH  12  22
BRANCH  19  45
HETATM   45  C30 UNL     1       2.311   5.097   5.814  1.00  0.00     0.122 C 
BRANCH  45  46
HETATM   46  C31 UNL     1       1.111   4.288   6.310  1.00  0.00     0.021 C 
BRANCH  46  47
HETATM   47  C32 UNL     1       0.685   4.746   7.670  1.00  0.00     0.029 C 
BRANCH  47  48
HETATM   48  C33 UNL     1       1.185   3.811   8.760  1.00  0.00     0.229 C 
BRANCH  48  49
HETATM   49  N8  UNL     1       2.057   4.542   9.650  1.00  0.00    -0.079 N 
ATOM     50  H83 UNL     1       1.555   5.247  10.189  1.00  0.00     0.274 HD
ATOM     51  H82 UNL     1       2.382   3.969  10.429  1.00  0.00     0.274 HD
ATOM     52  H81 UNL     1       2.827   4.939   9.113  1.00  0.00     0.274 HD
ENDBRANCH  48  49
ENDBRANCH  47  48
ENDBRANCH  46  47
ENDBRANCH  45  46
ENDBRANCH  19  45
BRANCH   3  53
HETATM   53  O1  UNL     1       8.359   6.738   5.364  1.00  0.00    -0.395 OA
ATOM     54  H1  UNL     1       7.503   6.515   5.711  1.00  0.00     0.210 HD
ENDBRANCH   3  53
TORSDOF 14
ENDMDL
MODEL 5
REMARK VINA RESULT: -7.847591832      2.382      3.002
REMARK  14 active torsions:
REMARK  status: ('A' for Active; 'I' for Inactive)
REMARK    1  A    between atoms: C3_3  and  O1_4 
REMARK    2  A    between atoms: C11_14  and  C12_15 
REMARK       I    between atoms: C12_15  and  N1_17 
REMARK    3  A    between atoms: N1_17  and  C13_19 
REMARK    4  A    between atoms: C13_19  and  C14_20 
REMARK    5  A    between atoms: C14_20  and  C15_21 
REMARK    6  A    between atoms: C15_21  and  C16_22 
REMARK    7  A    between atoms: C16_22  and  N2_23 
REMARK    8  A    between atoms: C19_26  and  N3_27 
REMARK    9  A    between atoms: C21_31  and  N4_32 
REMARK       I    between atoms: N5_41  and  C29_42 
REMARK   10  A    between atoms: N7_44  and  C30_46 
REMARK   11  A    between atoms: C30_46  and  C31_47 
REMARK   12  A    between atoms: C31_47  and  C32_48 
REMARK   13  A    between atoms: C32_48  and  C33_49 
REMARK   14  A    between atoms: C33_49  and  N8_50 
ROOT
HETATM    1  C1  UNL     1       9.853   4.027   4.974  1.00  0.00     0.013 C 
HETATM    2  C2  UNL     1       9.028   4.827   5.992  1.00  0.00     0.016 C 
HETATM    3  C3  UNL     1       9.676   6.208   6.048  1.00  0.00     0.131 C 
HETATM    4  C4  UNL     1      10.512   6.420   7.262  1.00  0.00     0.078 C 
HETATM    5  C5  UNL     1       9.696   6.205   8.529  1.00  0.00     0.136 C 
HETATM    6  O2  UNL     1       9.132   7.439   8.299  1.00  0.00    -0.374 OA
HETATM    7  C6  UNL     1      10.396   7.842   7.813  1.00  0.00     0.062 C 
HETATM    8  C7  UNL     1      10.380   8.934   6.803  1.00  0.00     0.046 C 
HETATM    9  C8  UNL     1      11.405   8.151   8.908  1.00  0.00     0.046 C 
HETATM   10  C9  UNL     1       8.876   5.000   8.504  1.00  0.00     0.023 C 
HETATM   11  C10 UNL     1       7.388   5.186   8.578  1.00  0.00     0.049 C 
HETATM   12  C11 UNL     1       6.853   3.832   8.159  1.00  0.00     0.120 C 
HETATM   13  C26 UNL     1       8.019   3.093   7.545  1.00  0.00     0.030 C 
HETATM   14  C27 UNL     1       7.495   2.295   6.432  1.00  0.00     0.028 C 
HETATM   15  C28 UNL     1       6.256   2.999   5.988  1.00  0.00     0.127 C 
HETATM   16  N5  UNL     1       5.888   3.920   7.073  1.00  0.00    -0.337 N 
HETATM   17  C29 UNL     1       4.725   4.726   6.981  1.00  0.00     0.187 C 
HETATM   18  N6  UNL     1       4.488   5.696   7.986  1.00  0.00    -0.064 NA
HETATM   19  N7  UNL     1       3.870   4.623   6.036  1.00  0.00    -0.364 N 
ATOM     20  H7  UNL     1       4.049   3.921   5.318  1.00  0.00     0.162 HD
HETATM   21  C34 UNL     1       9.044   4.109   7.269  1.00  0.00     0.005 C 
ENDROOT
BRANCH  12  22
HETATM   22  C12 UNL     1       6.222   3.088   9.277  1.00  0.00     0.251 C 
HETATM   23  O3  UNL     1       6.400   1.824   9.293  1.00  0.00    -0.270 OA
HETATM   24  N1  UNL     1       5.465   3.657  10.291  1.00  0.00    -0.327 N 
ATOM     25  H1  UNL     1       5.310   4.665  10.298  1.00  0.00     0.168 HD
BRANCH  24  26
HETATM   26  C13 UNL     1       4.864   2.802  11.385  1.00  0.00     0.028 C 
HETATM   27  C21 UNL     1       3.508   2.606  10.987  1.00  0.00     0.118 C 
BRANCH  26  28
HETATM   28  C14 UNL     1       5.912   1.897  11.847  1.00  0.00     0.060 C 
BRANCH  28  29
HETATM   29  C15 UNL     1       6.921   2.369  12.814  1.00  0.00     0.026 C 
BRANCH  29  30
HETATM   30  C16 UNL     1       7.285   1.567  13.993  1.00  0.00     0.128 C 
BRANCH  30  31
HETATM   31  N2  UNL     1       6.442   0.373  14.122  1.00  0.00    -0.364 N 
HETATM   32  C17 UNL     1       5.457   0.239  15.057  1.00  0.00     0.093 A 
HETATM   33  C18 UNL     1       4.831  -0.951  14.890  1.00  0.00     0.054 A 
HETATM   34  C19 UNL     1       5.431  -1.587  13.828  1.00  0.00     0.119 A 
HETATM   35  C20 UNL     1       6.425  -0.709  13.394  1.00  0.00     0.126 A 
BRANCH  34  36
HETATM   36  N3  UNL     1       5.117  -2.850  13.287  1.00  0.00    -0.114 N 
HETATM   37  O4  UNL     1       4.473  -3.687  13.945  1.00  0.00    -0.532 OA
HETATM   38  O5  UNL     1       5.511  -3.190  12.024  1.00  0.00    -0.532 OA
ENDBRANCH  34  36
ENDBRANCH  30  31
ENDBRANCH  29  30
ENDBRANCH  28  29
ENDBRANCH  26  28
BRANCH  27  39
HETATM   39  N4  UNL     1       2.507   1.910  11.709  1.00  0.00    -0.326 N 
HETATM   40  C22 UNL     1       2.762   0.557  12.250  1.00  0.00     0.132 C 
HETATM   41  C23 UNL     1       1.583   0.289  13.108  1.00  0.00     0.029 C 
HETATM   42  C24 UNL     1       0.469   1.030  12.390  1.00  0.00     0.105 C 
HETATM   43  C25 UNL     1       1.195   2.286  12.031  1.00  0.00     0.223 C 
HETATM   44  O6  UNL     1       0.636   3.402  12.052  1.00  0.00    -0.273 OA
ENDBRANCH  27  39
ENDBRANCH  24  26
ENDBRANCH  12  22
BRANCH  19  45
HETATM   45  C30 UNL     1       2.687   5.410   5.902  1.00  0.00     0.122 C 
BRANCH  45  46
HETATM   46  C31 UNL     1       1.505   4.441   5.889  1.00  0.00     0.021 C 
BRANCH  46  47
HETATM   47  C32 UNL     1       0.616   4.667   7.073  1.00  0.00     0.029 C 
BRANCH  47  48
HETATM   48  C33 UNL     1       1.138   3.954   8.311  1.00  0.00     0.229 C 
BRANCH  48  49
HETATM   49  N8  UNL     1       1.524   4.937   9.297  1.00  0.00    -0.079 N 
ATOM     50  H83 UNL     1       2.033   5.719   8.885  1.00  0.00     0.274 HD
ATOM     51  H82 UNL     1       0.724   5.459   9.656  1.00  0.00     0.274 HD
ATOM     52  H81 UNL     1       2.051   4.478  10.039  1.00  0.00     0.274 HD
ENDBRANCH  48  49
ENDBRANCH  47  48
ENDBRANCH  46  47
ENDBRANCH  45  46
ENDBRANCH  19  45
BRANCH   3  53
HETATM   53  O1  UNL     1       8.703   7.224   5.915  1.00  0.00    -0.395 OA
ATOM     54  H1  UNL     1       8.986   7.881   5.289  1.00  0.00     0.210 HD
ENDBRANCH   3  53
TORSDOF 14
ENDMDL
