MODEL 1
REMARK VINA RESULT: -10.434468714      0.000      0.000
REMARK  15 active torsions:
REMARK  status: ('A' for Active; 'I' for Inactive)
REMARK    1  A    between atoms: C2_2  and  C3_3 
REMARK    2  A    between atoms: C2_2  and  C13_18 
REMARK    3  A    between atoms: C3_3  and  C4_4 
REMARK    4  A    between atoms: C4_4  and  C5_5 
REMARK       I    between atoms: C5_5  and  N1_7 
REMARK    5  A    between atoms: N1_7  and  C6_9 
REMARK    6  A    between atoms: C6_9  and  C7_10 
REMARK    7  A    between atoms: C13_18  and  C14_20 
REMARK    8  A    between atoms: C14_20  and  C15_21 
REMARK    9  A    between atoms: C15_21  and  C16_22 
REMARK   10  A    between atoms: C16_22  and  C17_23 
REMARK   11  A    between atoms: C16_22  and  N3_38 
REMARK   12  A    between atoms: C17_23  and  C18_24 
REMARK   13  A    between atoms: C21_27  and  C22_28 
REMARK       I    between atoms: C22_28  and  N2_30 
REMARK       I    between atoms: N3_38  and  C29_40 
REMARK   14  A    between atoms: C29_40  and  O8_42 
REMARK   15  A    between atoms: O8_42  and  C30_43 
ROOT
HETATM    1  C16 UNL     1       4.547  -1.649  14.945  1.00  0.00     0.087 C 
ENDROOT
BRANCH   1   2
HETATM    2  C15 UNL     1       4.452  -2.572  16.092  1.00  0.00     0.032 C 
BRANCH   2   3
HETATM    3  C14 UNL     1       3.239  -3.392  16.265  1.00  0.00     0.080 C 
BRANCH   3   4
HETATM    4  C13 UNL     1       3.228  -4.751  15.733  1.00  0.00     0.130 C 
HETATM    5  O4  UNL     1       3.224  -4.897  14.519  1.00  0.00    -0.298 OA
BRANCH   4   6
HETATM    6  C2  UNL     1       3.226  -5.995  16.541  1.00  0.00     0.052 C 
HETATM    7  C1  UNL     1       3.743  -7.202  15.773  1.00  0.00     0.018 C 
BRANCH   6   8
HETATM    8  C3  UNL     1       3.979  -5.835  17.852  1.00  0.00     0.021 C 
BRANCH   8   9
HETATM    9  C4  UNL     1       5.130  -6.793  17.948  1.00  0.00     0.103 C 
BRANCH   9  10
HETATM   10  C5  UNL     1       6.451  -6.090  17.850  1.00  0.00     0.218 C 
HETATM   11  O1  UNL     1       6.959  -5.532  18.848  1.00  0.00    -0.274 OA
HETATM   12  N1  UNL     1       7.108  -6.080  16.591  1.00  0.00    -0.341 N 
ATOM     13  H1  UNL     1       6.679  -6.552  15.794  1.00  0.00     0.163 HD
BRANCH  12  14
HETATM   14  C6  UNL     1       8.405  -5.394  16.421  1.00  0.00     0.128 C 
HETATM   15  C8  UNL     1       8.169  -3.923  16.262  1.00  0.00     0.025 C 
HETATM   16  C9  UNL     1       9.475  -3.349  15.882  1.00  0.00     0.008 C 
HETATM   17  C12 UNL     1       7.619  -4.322  14.868  1.00  0.00     0.015 C 
HETATM   18  C10 UNL     1       9.944  -4.409  14.897  1.00  0.00     0.008 C 
HETATM   19  C11 UNL     1       8.791  -5.329  14.942  1.00  0.00     0.025 C 
BRANCH  14  20
HETATM   20  C7  UNL     1       9.421  -5.875  17.332  1.00  0.00     0.203 C 
HETATM   21  O2  UNL     1       9.967  -7.015  17.119  1.00  0.00    -0.646 OA
HETATM   22  O3  UNL     1       9.857  -5.196  18.428  1.00  0.00    -0.646 OA
ENDBRANCH  14  20
ENDBRANCH  12  14
ENDBRANCH   9  10
ENDBRANCH   8   9
ENDBRANCH   6   8
ENDBRANCH   4   6
ENDBRANCH   3   4
ENDBRANCH   2   3
ENDBRANCH   1   2
BRANCH   1  23
HETATM   23  C17 UNL     1       5.910  -1.015  14.788  1.00  0.00     0.029 C 
BRANCH  23  24
HETATM   24  C18 UNL     1       6.268  -0.475  13.461  1.00  0.00    -0.013 C 
HETATM   25  C19 UNL     1       7.615  -0.928  12.984  1.00  0.00     0.005 C 
HETATM   26  C20 UNL     1       8.259  -0.056  11.951  1.00  0.00     0.014 C 
HETATM   27  C21 UNL     1       8.264   1.400  12.242  1.00  0.00     0.078 C 
HETATM   28  C27 UNL     1       7.522   1.706  13.502  1.00  0.00     0.014 C 
HETATM   29  C28 UNL     1       6.169   1.056  13.569  1.00  0.00     0.005 C 
BRANCH  27  30
HETATM   30  C22 UNL     1       7.704   2.119  11.063  1.00  0.00     0.224 C 
HETATM   31  O5  UNL     1       7.433   1.465  10.026  1.00  0.00    -0.273 OA
HETATM   32  N2  UNL     1       7.465   3.503  11.062  1.00  0.00    -0.348 N 
HETATM   33  C23 UNL     1       6.916   4.109   9.855  1.00  0.00     0.152 C 
HETATM   34  C26 UNL     1       7.704   4.413  12.156  1.00  0.00     0.152 C 
HETATM   35  C24 UNL     1       5.486   4.504  10.251  1.00  0.00     0.187 C 
HETATM   36  O6  UNL     1       5.423   4.820  11.594  1.00  0.00    -0.388 OA
HETATM   37  C25 UNL     1       6.573   5.450  12.075  1.00  0.00     0.187 C 
ENDBRANCH  27  30
ENDBRANCH  23  24
ENDBRANCH   1  23
BRANCH   1  38
HETATM   38  N3  UNL     1       3.460  -0.714  14.768  1.00  0.00    -0.332 N 
HETATM   39  C29 UNL     1       2.709  -0.651  13.545  1.00  0.00     0.361 C 
HETATM   40  O7  UNL     1       3.022  -1.432  12.624  1.00  0.00    -0.238 OA
ATOM     41  H3  UNL     1       3.221  -0.082  15.532  1.00  0.00     0.165 HD
BRANCH  39  42
HETATM   42  O8  UNL     1       1.680   0.229  13.370  1.00  0.00    -0.296 OA
BRANCH  42  43
HETATM   43  C30 UNL     1       1.669   1.027  12.210  1.00  0.00     0.166 C 
HETATM   44  C31 UNL     1       2.847   1.951  12.244  1.00  0.00     0.204 C 
HETATM   45  O9  UNL     1       2.456   2.996  11.419  1.00  0.00    -0.358 OA
HETATM   46  C32 UNL     1       1.166   3.284  11.840  1.00  0.00     0.266 C 
HETATM   47  O10 UNL     1       0.425   3.832  10.791  1.00  0.00    -0.361 OA
HETATM   48  C35 UNL     1       0.511   2.005  12.250  1.00  0.00     0.075 C 
HETATM   49  C33 UNL     1      -0.188   2.798  10.131  1.00  0.00     0.171 C 
HETATM   50  C34 UNL     1      -0.468   1.724  11.159  1.00  0.00     0.038 C 
ENDBRANCH  42  43
ENDBRANCH  39  42
ENDBRANCH   1  38
TORSDOF 15
ENDMDL
MODEL 2
REMARK VINA RESULT: -10.093436841      1.205      1.853
REMARK  15 active torsions:
REMARK  status: ('A' for Active; 'I' for Inactive)
REMARK    1  A    between atoms: C2_2  and  C3_3 
REMARK    2  A    between atoms: C2_2  and  C13_18 
REMARK    3  A    between atoms: C3_3  and  C4_4 
REMARK    4  A    between atoms: C4_4  and  C5_5 
REMARK       I    between atoms: C5_5  and  N1_7 
REMARK    5  A    between atoms: N1_7  and  C6_9 
REMARK    6  A    between atoms: C6_9  and  C7_10 
REMARK    7  A    between atoms: C13_18  and  C14_20 
REMARK    8  A    between atoms: C14_20  and  C15_21 
REMARK    9  A    between atoms: C15_21  and  C16_22 
REMARK   10  A    between atoms: C16_22  and  C17_23 
REMARK   11  A    between atoms: C16_22  and  N3_38 
REMARK   12  A    between atoms: C17_23  and  C18_24 
REMARK   13  A    between atoms: C21_27  and  C22_28 
REMARK       I    between atoms: C22_28  and  N2_30 
REMARK       I    between atoms: N3_38  and  C29_40 
REMARK   14  A    between atoms: C29_40  and  O8_42 
REMARK   15  A    between atoms: O8_42  and  C30_43 
ROOT
HETATM    1  C16 UNL     1       5.024  -2.125  15.332  1.00  0.00     0.087 C 
ENDROOT
BRANCH   1   2
HETATM    2  C15 UNL     1       4.951  -2.837  16.622  1.00  0.00     0.032 C 
BRANCH   2   3
HETATM    3  C14 UNL     1       3.751  -3.631  16.945  1.00  0.00     0.080 C 
BRANCH   3   4
HETATM    4  C13 UNL     1       3.610  -4.961  16.362  1.00  0.00     0.130 C 
HETATM    5  O4  UNL     1       3.609  -5.061  15.144  1.00  0.00    -0.298 OA
BRANCH   4   6
HETATM    6  C2  UNL     1       3.470  -6.227  17.122  1.00  0.00     0.052 C 
HETATM    7  C1  UNL     1       3.713  -7.461  16.267  1.00  0.00     0.018 C 
BRANCH   6   8
HETATM    8  C3  UNL     1       4.347  -6.257  18.363  1.00  0.00     0.021 C 
BRANCH   8   9
HETATM    9  C4  UNL     1       5.586  -7.074  18.144  1.00  0.00     0.103 C 
BRANCH   9  10
HETATM   10  C5  UNL     1       6.792  -6.212  17.922  1.00  0.00     0.218 C 
HETATM   11  O1  UNL     1       7.148  -5.370  18.776  1.00  0.00    -0.274 OA
HETATM   12  N1  UNL     1       7.519  -6.381  16.714  1.00  0.00    -0.341 N 
ATOM     13  H1  UNL     1       7.216  -7.082  16.037  1.00  0.00     0.163 HD
BRANCH  12  14
HETATM   14  C6  UNL     1       8.709  -5.555  16.425  1.00  0.00     0.128 C 
HETATM   15  C8  UNL     1       8.277  -4.147  16.148  1.00  0.00     0.025 C 
HETATM   16  C9  UNL     1       9.484  -3.450  15.660  1.00  0.00     0.008 C 
HETATM   17  C12 UNL     1       7.737  -4.741  14.821  1.00  0.00     0.015 C 
HETATM   18  C10 UNL     1      10.053  -4.529  14.752  1.00  0.00     0.008 C 
HETATM   19  C11 UNL     1       9.032  -5.580  14.930  1.00  0.00     0.025 C 
BRANCH  14  20
HETATM   20  C7  UNL     1       9.809  -5.816  17.327  1.00  0.00     0.203 C 
HETATM   21  O2  UNL     1      10.660  -6.728  17.034  1.00  0.00    -0.646 OA
HETATM   22  O3  UNL     1      10.021  -5.152  18.496  1.00  0.00    -0.646 OA
ENDBRANCH  14  20
ENDBRANCH  12  14
ENDBRANCH   9  10
ENDBRANCH   8   9
ENDBRANCH   6   8
ENDBRANCH   4   6
ENDBRANCH   3   4
ENDBRANCH   2   3
ENDBRANCH   1   2
BRANCH   1  23
HETATM   23  C17 UNL     1       6.242  -1.239  15.197  1.00  0.00     0.029 C 
BRANCH  23  24
HETATM   24  C18 UNL     1       6.331  -0.373  14.004  1.00  0.00    -0.013 C 
HETATM   25  C19 UNL     1       7.325  -0.865  12.994  1.00  0.00     0.005 C 
HETATM   26  C20 UNL     1       7.849   0.174  12.049  1.00  0.00     0.014 C 
HETATM   27  C21 UNL     1       8.307   1.443  12.667  1.00  0.00     0.078 C 
HETATM   28  C27 UNL     1       8.058   1.452  14.140  1.00  0.00     0.014 C 
HETATM   29  C28 UNL     1       6.662   1.040  14.511  1.00  0.00     0.005 C 
BRANCH  27  30
HETATM   30  C22 UNL     1       7.637   2.577  11.971  1.00  0.00     0.224 C 
HETATM   31  O5  UNL     1       7.292   3.581  12.641  1.00  0.00    -0.273 OA
HETATM   32  N2  UNL     1       7.374   2.571  10.592  1.00  0.00    -0.348 N 
HETATM   33  C23 UNL     1       6.711   3.732  10.009  1.00  0.00     0.152 C 
HETATM   34  C26 UNL     1       7.703   1.517   9.662  1.00  0.00     0.152 C 
HETATM   35  C24 UNL     1       7.801   4.396   9.155  1.00  0.00     0.187 C 
HETATM   36  O6  UNL     1       8.678   3.450   8.665  1.00  0.00    -0.388 OA
HETATM   37  C25 UNL     1       8.071   2.231   8.353  1.00  0.00     0.187 C 
ENDBRANCH  27  30
ENDBRANCH  23  24
ENDBRANCH   1  23
BRANCH   1  38
HETATM   38  N3  UNL     1       3.810  -1.499  14.862  1.00  0.00    -0.332 N 
HETATM   39  C29 UNL     1       3.247  -1.811  13.577  1.00  0.00     0.361 C 
HETATM   40  O7  UNL     1       3.840  -2.646  12.865  1.00  0.00    -0.238 OA
ATOM     41  H3  UNL     1       3.340  -0.818  15.458  1.00  0.00     0.165 HD
BRANCH  39  42
HETATM   42  O8  UNL     1       2.099  -1.225  13.127  1.00  0.00    -0.296 OA
BRANCH  42  43
HETATM   43  C30 UNL     1       2.068   0.177  12.995  1.00  0.00     0.166 C 
HETATM   44  C31 UNL     1       0.653   0.611  12.764  1.00  0.00     0.204 C 
HETATM   45  O9  UNL     1       0.797   1.836  12.127  1.00  0.00    -0.358 OA
HETATM   46  C32 UNL     1       1.757   1.591  11.156  1.00  0.00     0.266 C 
HETATM   47  O10 UNL     1       2.452   2.766  10.855  1.00  0.00    -0.361 OA
HETATM   48  C35 UNL     1       2.735   0.603  11.702  1.00  0.00     0.075 C 
HETATM   49  C33 UNL     1       3.538   2.831  11.690  1.00  0.00     0.171 C 
HETATM   50  C34 UNL     1       3.964   1.407  11.970  1.00  0.00     0.038 C 
ENDBRANCH  42  43
ENDBRANCH  39  42
ENDBRANCH   1  38
TORSDOF 15
ENDMDL
MODEL 3
REMARK VINA RESULT: -10.051503206      1.893      4.439
REMARK  15 active torsions:
REMARK  status: ('A' for Active; 'I' for Inactive)
REMARK    1  A    between atoms: C2_2  and  C3_3 
REMARK    2  A    between atoms: C2_2  and  C13_18 
REMARK    3  A    between atoms: C3_3  and  C4_4 
REMARK    4  A    between atoms: C4_4  and  C5_5 
REMARK       I    between atoms: C5_5  and  N1_7 
REMARK    5  A    between atoms: N1_7  and  C6_9 
REMARK    6  A    between atoms: C6_9  and  C7_10 
REMARK    7  A    between atoms: C13_18  and  C14_20 
REMARK    8  A    between atoms: C14_20  and  C15_21 
REMARK    9  A    between atoms: C15_21  and  C16_22 
REMARK   10  A    between atoms: C16_22  and  C17_23 
REMARK   11  A    between atoms: C16_22  and  N3_38 
REMARK   12  A    between atoms: C17_23  and  C18_24 
REMARK   13  A    between atoms: C21_27  and  C22_28 
REMARK       I    between atoms: C22_28  and  N2_30 
REMARK       I    between atoms: N3_38  and  C29_40 
REMARK   14  A    between atoms: C29_40  and  O8_42 
REMARK   15  A    between atoms: O8_42  and  C30_43 
ROOT
HETATM    1  C16 UNL     1       3.694  -2.199  14.214  1.00  0.00     0.087 C 
ENDROOT
BRANCH   1   2
HETATM    2  C15 UNL     1       3.607  -3.639  14.523  1.00  0.00     0.032 C 
BRANCH   2   3
HETATM    3  C14 UNL     1       4.376  -4.185  15.656  1.00  0.00     0.080 C 
BRANCH   3   4
HETATM    4  C13 UNL     1       3.657  -4.616  16.850  1.00  0.00     0.130 C 
HETATM    5  O4  UNL     1       3.149  -3.760  17.560  1.00  0.00    -0.298 OA
BRANCH   4   6
HETATM    6  C2  UNL     1       3.477  -6.021  17.291  1.00  0.00     0.052 C 
HETATM    7  C1  UNL     1       3.688  -7.025  16.168  1.00  0.00     0.018 C 
BRANCH   6   8
HETATM    8  C3  UNL     1       4.347  -6.369  18.488  1.00  0.00     0.021 C 
BRANCH   8   9
HETATM    9  C4  UNL     1       5.533  -7.196  18.086  1.00  0.00     0.103 C 
BRANCH   9  10
HETATM   10  C5  UNL     1       6.769  -6.363  17.927  1.00  0.00     0.218 C 
HETATM   11  O1  UNL     1       7.208  -5.675  18.875  1.00  0.00    -0.274 OA
HETATM   12  N1  UNL     1       7.425  -6.379  16.668  1.00  0.00    -0.341 N 
ATOM     13  H1  UNL     1       7.054  -6.957  15.913  1.00  0.00     0.163 HD
BRANCH  12  14
HETATM   14  C6  UNL     1       8.640  -5.570  16.438  1.00  0.00     0.128 C 
HETATM   15  C8  UNL     1       8.243  -4.152  16.160  1.00  0.00     0.025 C 
HETATM   16  C9  UNL     1       9.481  -3.470  15.731  1.00  0.00     0.008 C 
HETATM   17  C12 UNL     1       7.750  -4.722  14.806  1.00  0.00     0.015 C 
HETATM   18  C10 UNL     1      10.070  -4.549  14.835  1.00  0.00     0.008 C 
HETATM   19  C11 UNL     1       9.025  -5.584  14.959  1.00  0.00     0.025 C 
BRANCH  14  20
HETATM   20  C7  UNL     1       9.697  -5.860  17.383  1.00  0.00     0.203 C 
HETATM   21  O2  UNL     1      10.381  -6.935  17.250  1.00  0.00    -0.646 OA
HETATM   22  O3  UNL     1      10.035  -5.060  18.431  1.00  0.00    -0.646 OA
ENDBRANCH  14  20
ENDBRANCH  12  14
ENDBRANCH   9  10
ENDBRANCH   8   9
ENDBRANCH   6   8
ENDBRANCH   4   6
ENDBRANCH   3   4
ENDBRANCH   2   3
ENDBRANCH   1   2
BRANCH   1  23
HETATM   23  C17 UNL     1       2.682  -1.737  13.190  1.00  0.00     0.029 C 
BRANCH  23  24
HETATM   24  C18 UNL     1       2.623  -0.293  12.887  1.00  0.00    -0.013 C 
HETATM   25  C19 UNL     1       1.303   0.328  13.237  1.00  0.00     0.005 C 
HETATM   26  C20 UNL     1       0.977   1.599  12.513  1.00  0.00     0.014 C 
HETATM   27  C21 UNL     1       1.178   1.577  11.042  1.00  0.00     0.078 C 
HETATM   28  C27 UNL     1       1.767   0.280  10.592  1.00  0.00     0.014 C 
HETATM   29  C28 UNL     1       2.964  -0.142  11.395  1.00  0.00     0.005 C 
BRANCH  27  30
HETATM   30  C22 UNL     1       2.021   2.746  10.663  1.00  0.00     0.224 C 
HETATM   31  O5  UNL     1       3.011   3.037  11.379  1.00  0.00    -0.273 OA
HETATM   32  N2  UNL     1       1.755   3.539   9.536  1.00  0.00    -0.348 N 
HETATM   33  C23 UNL     1       2.641   4.662   9.255  1.00  0.00     0.152 C 
HETATM   34  C26 UNL     1       0.675   3.356   8.596  1.00  0.00     0.152 C 
HETATM   35  C24 UNL     1       3.399   4.235   7.989  1.00  0.00     0.187 C 
HETATM   36  O6  UNL     1       2.609   3.421   7.202  1.00  0.00    -0.388 OA
HETATM   37  C25 UNL     1       1.253   3.758   7.231  1.00  0.00     0.187 C 
ENDBRANCH  27  30
ENDBRANCH  23  24
ENDBRANCH   1  23
BRANCH   1  38
HETATM   38  N3  UNL     1       5.015  -1.657  13.994  1.00  0.00    -0.332 N 
HETATM   39  C29 UNL     1       5.821  -2.061  12.877  1.00  0.00     0.361 C 
HETATM   40  O7  UNL     1       5.350  -2.904  12.087  1.00  0.00    -0.238 OA
ATOM     41  H3  UNL     1       5.384  -0.970  14.651  1.00  0.00     0.165 HD
BRANCH  39  42
HETATM   42  O8  UNL     1       7.070  -1.553  12.662  1.00  0.00    -0.296 OA
BRANCH  42  43
HETATM   43  C30 UNL     1       7.189  -0.335  11.965  1.00  0.00     0.166 C 
HETATM   44  C31 UNL     1       8.578  -0.225  11.414  1.00  0.00     0.204 C 
HETATM   45  O9  UNL     1       8.750   1.143  11.257  1.00  0.00    -0.358 OA
HETATM   46  C32 UNL     1       8.290   1.672  12.454  1.00  0.00     0.266 C 
HETATM   47  O10 UNL     1       7.819   2.974  12.259  1.00  0.00    -0.361 OA
HETATM   48  C35 UNL     1       7.148   0.834  12.929  1.00  0.00     0.075 C 
HETATM   49  C33 UNL     1       6.482   2.891  11.962  1.00  0.00     0.171 C 
HETATM   50  C34 UNL     1       5.943   1.682  12.694  1.00  0.00     0.038 C 
ENDBRANCH  42  43
ENDBRANCH  39  42
ENDBRANCH   1  38
TORSDOF 15
ENDMDL
MODEL 4
REMARK VINA RESULT: -10.031582928      2.040     10.218
REMARK  15 active torsions:
REMARK  status: ('A' for Active; 'I' for Inactive)
REMARK    1  A    between atoms: C2_2  and  C3_3 
REMARK    2  A    between atoms: C2_2  and  C13_18 
REMARK    3  A    between atoms: C3_3  and  C4_4 
REMARK    4  A    between atoms: C4_4  and  C5_5 
REMARK       I    between atoms: C5_5  and  N1_7 
REMARK    5  A    between atoms: N1_7  and  C6_9 
REMARK    6  A    between atoms: C6_9  and  C7_10 
REMARK    7  A    between atoms: C13_18  and  C14_20 
REMARK    8  A    between atoms: C14_20  and  C15_21 
REMARK    9  A    between atoms: C15_21  and  C16_22 
REMARK   10  A    between atoms: C16_22  and  C17_23 
REMARK   11  A    between atoms: C16_22  and  N3_38 
REMARK   12  A    between atoms: C17_23  and  C18_24 
REMARK   13  A    between atoms: C21_27  and  C22_28 
REMARK       I    between atoms: C22_28  and  N2_30 
REMARK       I    between atoms: N3_38  and  C29_40 
REMARK   14  A    between atoms: C29_40  and  O8_42 
REMARK   15  A    between atoms: O8_42  and  C30_43 
ROOT
HETATM    1  C16 UNL     1       6.879  -1.948  14.098  1.00  0.00     0.087 C 
ENDROOT
BRANCH   1   2
HETATM    2  C15 UNL     1       7.220  -0.966  13.051  1.00  0.00     0.032 C 
BRANCH   2   3
HETATM    3  C14 UNL     1       6.819   0.442  13.219  1.00  0.00     0.080 C 
BRANCH   3   4
HETATM    4  C13 UNL     1       7.634   1.483  12.600  1.00  0.00     0.130 C 
HETATM    5  O4  UNL     1       8.398   2.119  13.312  1.00  0.00    -0.298 OA
BRANCH   4   6
HETATM    6  C2  UNL     1       7.626   1.846  11.162  1.00  0.00     0.052 C 
HETATM    7  C1  UNL     1       8.403   0.864  10.299  1.00  0.00     0.018 C 
BRANCH   6   8
HETATM    8  C3  UNL     1       6.218   2.035  10.621  1.00  0.00     0.021 C 
BRANCH   8   9
HETATM    9  C4  UNL     1       5.596   3.302  11.130  1.00  0.00     0.103 C 
BRANCH   9  10
HETATM   10  C5  UNL     1       4.138   3.129  11.428  1.00  0.00     0.218 C 
HETATM   11  O1  UNL     1       3.494   4.015  12.032  1.00  0.00    -0.274 OA
HETATM   12  N1  UNL     1       3.510   1.928  11.003  1.00  0.00    -0.341 N 
ATOM     13  H1  UNL     1       4.053   1.223  10.503  1.00  0.00     0.163 HD
BRANCH  12  14
HETATM   14  C6  UNL     1       2.078   1.685  11.277  1.00  0.00     0.128 C 
HETATM   15  C8  UNL     1       1.929   1.105  12.651  1.00  0.00     0.025 C 
HETATM   16  C9  UNL     1       0.515   0.694  12.757  1.00  0.00     0.008 C 
HETATM   17  C12 UNL     1       2.545  -0.165  12.008  1.00  0.00     0.015 C 
HETATM   18  C10 UNL     1       0.320   0.086  11.377  1.00  0.00     0.008 C 
HETATM   19  C11 UNL     1       1.670   0.286  10.815  1.00  0.00     0.025 C 
BRANCH  14  20
HETATM   20  C7  UNL     1       1.230   2.778  10.852  1.00  0.00     0.203 C 
HETATM   21  O2  UNL     1       1.064   2.994   9.600  1.00  0.00    -0.646 OA
HETATM   22  O3  UNL     1       0.575   3.619  11.698  1.00  0.00    -0.646 OA
ENDBRANCH  14  20
ENDBRANCH  12  14
ENDBRANCH   9  10
ENDBRANCH   8   9
ENDBRANCH   6   8
ENDBRANCH   4   6
ENDBRANCH   3   4
ENDBRANCH   2   3
ENDBRANCH   1   2
BRANCH   1  23
HETATM   23  C17 UNL     1       7.804  -3.143  14.133  1.00  0.00     0.029 C 
BRANCH  23  24
HETATM   24  C18 UNL     1       8.139  -3.714  15.453  1.00  0.00    -0.013 C 
HETATM   25  C19 UNL     1       9.592  -3.583  15.799  1.00  0.00     0.005 C 
HETATM   26  C20 UNL     1      10.100  -4.553  16.821  1.00  0.00     0.014 C 
HETATM   27  C21 UNL     1       9.735  -5.976  16.604  1.00  0.00     0.078 C 
HETATM   28  C27 UNL     1       8.833  -6.132  15.423  1.00  0.00     0.014 C 
HETATM   29  C28 UNL     1       7.672  -5.179  15.430  1.00  0.00     0.005 C 
BRANCH  27  30
HETATM   30  C22 UNL     1       9.127  -6.504  17.857  1.00  0.00     0.224 C 
HETATM   31  O5  UNL     1       8.949  -5.721  18.822  1.00  0.00    -0.273 OA
HETATM   32  N2  UNL     1       8.744  -7.847  18.007  1.00  0.00    -0.348 N 
HETATM   33  C23 UNL     1       8.160  -8.262  19.276  1.00  0.00     0.152 C 
HETATM   34  C26 UNL     1       8.862  -8.886  17.012  1.00  0.00     0.152 C 
HETATM   35  C24 UNL     1       6.687  -8.540  18.938  1.00  0.00     0.187 C 
HETATM   36  O6  UNL     1       6.563  -8.985  17.637  1.00  0.00    -0.388 OA
HETATM   37  C25 UNL     1       7.630  -9.782  17.214  1.00  0.00     0.187 C 
ENDBRANCH  27  30
ENDBRANCH  23  24
ENDBRANCH   1  23
BRANCH   1  38
HETATM   38  N3  UNL     1       5.485  -2.302  14.232  1.00  0.00    -0.332 N 
HETATM   39  C29 UNL     1       4.720  -1.936  15.392  1.00  0.00     0.361 C 
HETATM   40  O7  UNL     1       5.296  -1.297  16.296  1.00  0.00    -0.238 OA
ATOM     41  H3  UNL     1       5.032  -2.826  13.483  1.00  0.00     0.165 HD
BRANCH  39  42
HETATM   42  O8  UNL     1       3.403  -2.266  15.526  1.00  0.00    -0.296 OA
BRANCH  42  43
HETATM   43  C30 UNL     1       3.074  -3.470  16.180  1.00  0.00     0.166 C 
HETATM   44  C31 UNL     1       2.988  -3.213  17.653  1.00  0.00     0.204 C 
HETATM   45  O9  UNL     1       3.211  -4.466  18.207  1.00  0.00    -0.358 OA
HETATM   46  C32 UNL     1       4.315  -4.941  17.513  1.00  0.00     0.266 C 
HETATM   47  O10 UNL     1       4.303  -6.338  17.481  1.00  0.00    -0.361 OA
HETATM   48  C35 UNL     1       4.232  -4.446  16.105  1.00  0.00     0.075 C 
HETATM   49  C33 UNL     1       3.623  -6.722  16.354  1.00  0.00     0.171 C 
HETATM   50  C34 UNL     1       3.865  -5.654  15.309  1.00  0.00     0.038 C 
ENDBRANCH  42  43
ENDBRANCH  39  42
ENDBRANCH   1  38
TORSDOF 15
ENDMDL
MODEL 5
REMARK VINA RESULT: -10.006643391      2.043      4.577
REMARK  15 active torsions:
REMARK  status: ('A' for Active; 'I' for Inactive)
REMARK    1  A    between atoms: C2_2  and  C3_3 
REMARK    2  A    between atoms: C2_2  and  C13_18 
REMARK    3  A    between atoms: C3_3  and  C4_4 
REMARK    4  A    between atoms: C4_4  and  C5_5 
REMARK       I    between atoms: C5_5  and  N1_7 
REMARK    5  A    between atoms: N1_7  and  C6_9 
REMARK    6  A    between atoms: C6_9  and  C7_10 
REMARK    7  A    between atoms: C13_18  and  C14_20 
REMARK    8  A    between atoms: C14_20  and  C15_21 
REMARK    9  A    between atoms: C15_21  and  C16_22 
REMARK   10  A    between atoms: C16_22  and  C17_23 
REMARK   11  A    between atoms: C16_22  and  N3_38 
REMARK   12  A    between atoms: C17_23  and  C18_24 
REMARK   13  A    between atoms: C21_27  and  C22_28 
REMARK       I    between atoms: C22_28  and  N2_30 
REMARK       I    between atoms: N3_38  and  C29_40 
REMARK   14  A    between atoms: C29_40  and  O8_42 
REMARK   15  A    between atoms: O8_42  and  C30_43 
ROOT
HETATM    1  C16 UNL     1       3.072  -1.387  13.765  1.00  0.00     0.087 C 
ENDROOT
BRANCH   1   2
HETATM    2  C15 UNL     1       3.058  -2.843  14.006  1.00  0.00     0.032 C 
BRANCH   2   3
HETATM    3  C14 UNL     1       4.250  -3.495  14.576  1.00  0.00     0.080 C 
BRANCH   3   4
HETATM    4  C13 UNL     1       4.573  -3.265  15.980  1.00  0.00     0.130 C 
HETATM    5  O4  UNL     1       5.316  -2.335  16.258  1.00  0.00    -0.298 OA
BRANCH   4   6
HETATM    6  C2  UNL     1       4.073  -4.066  17.125  1.00  0.00     0.052 C 
HETATM    7  C1  UNL     1       2.742  -3.565  17.662  1.00  0.00     0.018 C 
BRANCH   6   8
HETATM    8  C3  UNL     1       3.994  -5.550  16.802  1.00  0.00     0.021 C 
BRANCH   8   9
HETATM    9  C4  UNL     1       4.849  -6.363  17.728  1.00  0.00     0.103 C 
BRANCH   9  10
HETATM   10  C5  UNL     1       6.276  -5.902  17.720  1.00  0.00     0.218 C 
HETATM   11  O1  UNL     1       6.834  -5.516  18.771  1.00  0.00    -0.274 OA
HETATM   12  N1  UNL     1       6.974  -5.918  16.483  1.00  0.00    -0.341 N 
ATOM     13  H1  UNL     1       6.500  -6.247  15.641  1.00  0.00     0.163 HD
BRANCH  12  14
HETATM   14  C6  UNL     1       8.377  -5.463  16.401  1.00  0.00     0.128 C 
HETATM   15  C8  UNL     1       8.405  -3.976  16.222  1.00  0.00     0.025 C 
HETATM   16  C9  UNL     1       9.812  -3.637  15.931  1.00  0.00     0.008 C 
HETATM   17  C12 UNL     1       7.891  -4.297  14.795  1.00  0.00     0.015 C 
HETATM   18  C10 UNL     1      10.160  -4.775  14.984  1.00  0.00     0.008 C 
HETATM   19  C11 UNL     1       8.867  -5.486  14.953  1.00  0.00     0.025 C 
BRANCH  14  20
HETATM   20  C7  UNL     1       9.233  -6.095  17.382  1.00  0.00     0.203 C 
HETATM   21  O2  UNL     1       9.578  -7.319  17.219  1.00  0.00    -0.646 OA
HETATM   22  O3  UNL     1       9.715  -5.479  18.495  1.00  0.00    -0.646 OA
ENDBRANCH  14  20
ENDBRANCH  12  14
ENDBRANCH   9  10
ENDBRANCH   8   9
ENDBRANCH   6   8
ENDBRANCH   4   6
ENDBRANCH   3   4
ENDBRANCH   2   3
ENDBRANCH   1   2
BRANCH   1  23
HETATM   23  C17 UNL     1       1.928  -0.905  12.902  1.00  0.00     0.029 C 
BRANCH  23  24
HETATM   24  C18 UNL     1       1.880   0.533  12.568  1.00  0.00    -0.013 C 
HETATM   25  C19 UNL     1       0.550   1.160  12.861  1.00  0.00     0.005 C 
HETATM   26  C20 UNL     1       0.249   2.416  12.101  1.00  0.00     0.014 C 
HETATM   27  C21 UNL     1       0.498   2.364  10.638  1.00  0.00     0.078 C 
HETATM   28  C27 UNL     1       1.101   1.058  10.234  1.00  0.00     0.014 C 
HETATM   29  C28 UNL     1       2.270   0.653  11.085  1.00  0.00     0.005 C 
BRANCH  27  30
HETATM   30  C22 UNL     1       1.353   3.525  10.263  1.00  0.00     0.224 C 
HETATM   31  O5  UNL     1       2.104   4.031  11.134  1.00  0.00    -0.273 OA
HETATM   32  N2  UNL     1       1.357   4.080   8.974  1.00  0.00    -0.348 N 
HETATM   33  C23 UNL     1       2.230   5.218   8.712  1.00  0.00     0.152 C 
HETATM   34  C26 UNL     1       0.574   3.631   7.847  1.00  0.00     0.152 C 
HETATM   35  C24 UNL     1       3.315   4.652   7.784  1.00  0.00     0.187 C 
HETATM   36  O6  UNL     1       2.801   3.639   6.997  1.00  0.00    -0.388 OA
HETATM   37  C25 UNL     1       1.472   3.844   6.619  1.00  0.00     0.187 C 
ENDBRANCH  27  30
ENDBRANCH  23  24
ENDBRANCH   1  23
BRANCH   1  38
HETATM   38  N3  UNL     1       4.342  -0.797  13.410  1.00  0.00    -0.332 N 
HETATM   39  C29 UNL     1       4.941   0.240  14.203  1.00  0.00     0.361 C 
HETATM   40  O7  UNL     1       4.331   0.627  15.220  1.00  0.00    -0.238 OA
ATOM     41  H3  UNL     1       4.825  -1.126  12.574  1.00  0.00     0.165 HD
BRANCH  39  42
HETATM   42  O8  UNL     1       6.141   0.802  13.875  1.00  0.00    -0.296 OA
BRANCH  42  43
HETATM   43  C30 UNL     1       6.479   0.917  12.512  1.00  0.00     0.166 C 
HETATM   44  C31 UNL     1       7.938   0.622  12.348  1.00  0.00     0.204 C 
HETATM   45  O9  UNL     1       8.262   1.271  11.164  1.00  0.00    -0.358 OA
HETATM   46  C32 UNL     1       7.681   2.523  11.305  1.00  0.00     0.266 C 
HETATM   47  O10 UNL     1       7.371   3.057  10.052  1.00  0.00    -0.361 OA
HETATM   48  C35 UNL     1       6.406   2.365  12.068  1.00  0.00     0.075 C 
HETATM   49  C33 UNL     1       6.092   2.670   9.741  1.00  0.00     0.171 C 
HETATM   50  C34 UNL     1       5.336   2.560  11.046  1.00  0.00     0.038 C 
ENDBRANCH  42  43
ENDBRANCH  39  42
ENDBRANCH   1  38
TORSDOF 15
ENDMDL
