MODEL 1
REMARK VINA RESULT: -8.852753396      0.000      0.000
REMARK  17 active torsions:
REMARK  status: ('A' for Active; 'I' for Inactive)
REMARK    1  A    between atoms: C3_3  and  C4_4 
REMARK    2  A    between atoms: C3_3  and  C13_17 
REMARK    3  A    between atoms: C4_4  and  C5_5 
REMARK    4  A    between atoms: C5_5  and  C6_6 
REMARK    5  A    between atoms: C6_6  and  C7_7 
REMARK    6  A    between atoms: C7_7  and  C8_8 
REMARK    7  A    between atoms: C9_9  and  C10_10 
REMARK    8  A    between atoms: C11_11  and  C12_12 
REMARK    9  A    between atoms: C12_12  and  N1_13 
REMARK   10  A    between atoms: C13_17  and  C14_18 
REMARK   11  A    between atoms: C14_18  and  O1_19 
REMARK   12  A    between atoms: C14_18  and  C15_21 
REMARK   13  A    between atoms: C16_24  and  O2_25 
REMARK   14  A    between atoms: C22_34  and  C23_35 
REMARK   15  A    between atoms: C23_35  and  C24_36 
REMARK   16  A    between atoms: C24_36  and  C25_37 
REMARK   17  A    between atoms: C25_37  and  N4_38 
ROOT
HETATM    1  C15 UNL     1      11.747   1.564   6.519  1.00  0.00     0.108 C 
HETATM    2  N2  UNL     1      11.381   2.931   6.676  1.00  0.00    -0.336 N 
ATOM      3  H2  UNL     1      10.800   3.237   5.896  1.00  0.00     0.167 HD
HETATM    4  C16 UNL     1      11.575   3.961   7.564  1.00  0.00     0.139 C 
HETATM    5  C17 UNL     1      11.254   4.278   8.933  1.00  0.00     0.162 C 
HETATM    6  C18 UNL     1      10.891   3.273   9.930  1.00  0.00     0.035 C 
HETATM    7  C19 UNL     1      10.719   4.167  11.176  1.00  0.00     0.022 C 
HETATM    8  C20 UNL     1      11.501   5.447  10.834  1.00  0.00     0.127 C 
HETATM    9  N3  UNL     1      12.271   5.046   9.666  1.00  0.00    -0.338 N 
HETATM   10  C21 UNL     1      13.589   5.293   9.270  1.00  0.00     0.243 C 
HETATM   11  O3  UNL     1      13.948   6.527   9.142  1.00  0.00    -0.271 OA
HETATM   12  C22 UNL     1      14.670   4.328   8.965  1.00  0.00     0.176 C 
HETATM   13  N7  UNL     1      14.582   3.145   9.813  1.00  0.00    -0.346 N 
ATOM     14  H7  UNL     1      14.263   3.277  10.773  1.00  0.00     0.163 HD
HETATM   15  C27 UNL     1      14.904   1.837   9.410  1.00  0.00     0.241 C 
HETATM   16  O4  UNL     1      15.587   1.071  10.183  1.00  0.00    -0.271 OA
HETATM   17  C28 UNL     1      14.473   1.291   8.088  1.00  0.00     0.179 C 
HETATM   18  C29 UNL     1      15.582   0.320   7.682  1.00  0.00     0.037 C 
HETATM   19  C30 UNL     1      15.186  -0.905   8.479  1.00  0.00     0.022 C 
HETATM   20  C31 UNL     1      13.822  -0.678   9.043  1.00  0.00     0.127 C 
HETATM   21  N8  UNL     1      13.309   0.448   8.238  1.00  0.00    -0.334 N 
HETATM   22  C32 UNL     1      12.033   0.727   7.678  1.00  0.00     0.269 C 
HETATM   23  O5  UNL     1      11.088   0.163   8.286  1.00  0.00    -0.266 OA
ENDROOT
BRANCH   1  24
HETATM   24  C14 UNL     1      10.996   0.854   5.442  1.00  0.00     0.177 C 
BRANCH  24  25
HETATM   25  C13 UNL     1       9.562   0.993   5.247  1.00  0.00     0.072 C 
BRANCH  25  26
HETATM   26  C3  UNL     1       8.618   0.336   6.139  1.00  0.00    -0.081 C 
HETATM   27  C2  UNL     1       8.708  -0.954   6.408  1.00  0.00    -0.028 C 
HETATM   28  C1  UNL     1       9.715  -1.895   5.907  1.00  0.00     0.036 C 
BRANCH  26  29
HETATM   29  C4  UNL     1       7.495   1.096   6.768  1.00  0.00     0.034 C 
BRANCH  29  30
HETATM   30  C5  UNL     1       6.178   0.409   6.631  1.00  0.00     0.005 C 
BRANCH  30  31
HETATM   31  C6  UNL     1       5.300   1.036   5.568  1.00  0.00     0.012 C 
BRANCH  31  32
HETATM   32  C7  UNL     1       4.529  -0.022   4.806  1.00  0.00     0.095 C 
BRANCH  32  33
HETATM   33  C8  UNL     1       5.446  -1.094   4.419  1.00  0.00    -0.092 C 
HETATM   34  C9  UNL     1       6.223  -1.972   4.089  1.00  0.00    -0.015 C 
BRANCH  34  35
HETATM   35  C10 UNL     1       7.142  -2.977   3.716  1.00  0.00    -0.013 C 
HETATM   36  C11 UNL     1       7.953  -3.833   3.392  1.00  0.00    -0.065 C 
BRANCH  36  37
HETATM   37  C12 UNL     1       8.942  -4.837   3.010  1.00  0.00     0.324 C 
BRANCH  37  38
HETATM   38  N1  UNL     1       9.621  -4.418   1.818  1.00  0.00    -0.069 N 
ATOM     39  H13 UNL     1       9.294  -3.510   1.489  1.00  0.00     0.275 HD
ATOM     40  H12 UNL     1      10.594  -4.169   1.997  1.00  0.00     0.275 HD
ATOM     41  H11 UNL     1       9.534  -5.139   1.101  1.00  0.00     0.275 HD
ENDBRANCH  37  38
ENDBRANCH  36  37
ENDBRANCH  34  35
ENDBRANCH  32  33
ENDBRANCH  31  32
ENDBRANCH  30  31
ENDBRANCH  29  30
ENDBRANCH  26  29
ENDBRANCH  25  26
ENDBRANCH  24  25
BRANCH  24  42
HETATM   42  O1  UNL     1      11.669   1.009   4.235  1.00  0.00    -0.389 OA
ATOM     43  H1  UNL     1      12.297   1.721   4.292  1.00  0.00     0.210 HD
ENDBRANCH  24  42
ENDBRANCH   1  24
BRANCH   4  44
HETATM   44  O2  UNL     1      12.237   4.993   7.086  1.00  0.00    -0.348 OA
ATOM     45  H2  UNL     1      11.704   5.746   6.861  1.00  0.00     0.219 HD
ENDBRANCH   4  44
BRANCH  12  46
HETATM   46  C23 UNL     1      16.046   4.929   9.332  1.00  0.00     0.036 C 
BRANCH  46  47
HETATM   47  C24 UNL     1      16.507   4.395  10.659  1.00  0.00     0.022 C 
BRANCH  47  48
HETATM   48  C25 UNL     1      16.406   5.492  11.695  1.00  0.00     0.122 C 
BRANCH  48  49
HETATM   49  N4  UNL     1      15.320   5.252  12.621  1.00  0.00    -0.367 N 
HETATM   50  C26 UNL     1      14.477   6.158  12.911  1.00  0.00     0.196 C 
HETATM   51  N5  UNL     1      13.418   5.902  13.824  1.00  0.00    -0.067 NA
HETATM   52  N6  UNL     1      14.519   7.484  12.358  1.00  0.00    -0.067 NA
ATOM     53  H4  UNL     1      15.229   4.332  13.052  1.00  0.00     0.161 HD
ENDBRANCH  48  49
ENDBRANCH  47  48
ENDBRANCH  46  47
ENDBRANCH  12  46
TORSDOF 17
ENDMDL
MODEL 2
REMARK VINA RESULT: -8.820685780      1.132      1.287
REMARK  17 active torsions:
REMARK  status: ('A' for Active; 'I' for Inactive)
REMARK    1  A    between atoms: C3_3  and  C4_4 
REMARK    2  A    between atoms: C3_3  and  C13_17 
REMARK    3  A    between atoms: C4_4  and  C5_5 
REMARK    4  A    between atoms: C5_5  and  C6_6 
REMARK    5  A    between atoms: C6_6  and  C7_7 
REMARK    6  A    between atoms: C7_7  and  C8_8 
REMARK    7  A    between atoms: C9_9  and  C10_10 
REMARK    8  A    between atoms: C11_11  and  C12_12 
REMARK    9  A    between atoms: C12_12  and  N1_13 
REMARK   10  A    between atoms: C13_17  and  C14_18 
REMARK   11  A    between atoms: C14_18  and  O1_19 
REMARK   12  A    between atoms: C14_18  and  C15_21 
REMARK   13  A    between atoms: C16_24  and  O2_25 
REMARK   14  A    between atoms: C22_34  and  C23_35 
REMARK   15  A    between atoms: C23_35  and  C24_36 
REMARK   16  A    between atoms: C24_36  and  C25_37 
REMARK   17  A    between atoms: C25_37  and  N4_38 
ROOT
HETATM    1  C15 UNL     1      11.658   1.543   6.487  1.00  0.00     0.108 C 
HETATM    2  N2  UNL     1      11.231   2.894   6.617  1.00  0.00    -0.336 N 
ATOM      3  H2  UNL     1      10.648   3.162   5.825  1.00  0.00     0.167 HD
HETATM    4  C16 UNL     1      11.370   3.946   7.490  1.00  0.00     0.139 C 
HETATM    5  C17 UNL     1      11.018   4.271   8.849  1.00  0.00     0.162 C 
HETATM    6  C18 UNL     1      10.686   3.268   9.859  1.00  0.00     0.035 C 
HETATM    7  C19 UNL     1      10.460   4.174  11.087  1.00  0.00     0.022 C 
HETATM    8  C20 UNL     1      11.190   5.481  10.733  1.00  0.00     0.127 C 
HETATM    9  N3  UNL     1      11.992   5.095   9.582  1.00  0.00    -0.338 N 
HETATM   10  C21 UNL     1      13.303   5.392   9.196  1.00  0.00     0.243 C 
HETATM   11  O3  UNL     1      13.609   6.639   9.052  1.00  0.00    -0.271 OA
HETATM   12  C22 UNL     1      14.428   4.470   8.921  1.00  0.00     0.176 C 
HETATM   13  N7  UNL     1      14.381   3.299   9.788  1.00  0.00    -0.346 N 
ATOM     14  H7  UNL     1      14.044   3.432  10.742  1.00  0.00     0.163 HD
HETATM   15  C27 UNL     1      14.764   1.999   9.411  1.00  0.00     0.241 C 
HETATM   16  O4  UNL     1      15.469   1.276  10.206  1.00  0.00    -0.271 OA
HETATM   17  C28 UNL     1      14.373   1.414   8.094  1.00  0.00     0.179 C 
HETATM   18  C29 UNL     1      15.528   0.485   7.717  1.00  0.00     0.037 C 
HETATM   19  C30 UNL     1      15.175  -0.742   8.530  1.00  0.00     0.022 C 
HETATM   20  C31 UNL     1      13.795  -0.566   9.074  1.00  0.00     0.127 C 
HETATM   21  N8  UNL     1      13.245   0.523   8.244  1.00  0.00    -0.334 N 
HETATM   22  C32 UNL     1      11.965   0.738   7.664  1.00  0.00     0.269 C 
HETATM   23  O5  UNL     1      11.038   0.143   8.270  1.00  0.00    -0.266 OA
ENDROOT
BRANCH   1  24
HETATM   24  C14 UNL     1      10.952   0.783   5.414  1.00  0.00     0.177 C 
BRANCH  24  25
HETATM   25  C13 UNL     1       9.516   0.854   5.201  1.00  0.00     0.072 C 
BRANCH  25  26
HETATM   26  C3  UNL     1       8.587   0.263   6.154  1.00  0.00    -0.081 C 
HETATM   27  C2  UNL     1       8.668  -1.010   6.495  1.00  0.00    -0.028 C 
HETATM   28  C1  UNL     1       9.650  -1.993   6.025  1.00  0.00     0.036 C 
BRANCH  26  29
HETATM   29  C4  UNL     1       7.491   1.074   6.765  1.00  0.00     0.034 C 
BRANCH  29  30
HETATM   30  C5  UNL     1       6.152   0.426   6.648  1.00  0.00     0.005 C 
BRANCH  30  31
HETATM   31  C6  UNL     1       5.295   1.049   5.565  1.00  0.00     0.012 C 
BRANCH  31  32
HETATM   32  C7  UNL     1       4.521  -0.010   4.809  1.00  0.00     0.095 C 
BRANCH  32  33
HETATM   33  C8  UNL     1       5.435  -1.084   4.422  1.00  0.00    -0.092 C 
HETATM   34  C9  UNL     1       6.210  -1.964   4.091  1.00  0.00    -0.015 C 
BRANCH  34  35
HETATM   35  C10 UNL     1       7.128  -2.971   3.720  1.00  0.00    -0.013 C 
HETATM   36  C11 UNL     1       7.937  -3.830   3.401  1.00  0.00    -0.065 C 
BRANCH  36  37
HETATM   37  C12 UNL     1       8.925  -4.840   3.030  1.00  0.00     0.324 C 
BRANCH  37  38
HETATM   38  N1  UNL     1       9.640  -4.411   1.862  1.00  0.00    -0.069 N 
ATOM     39  H13 UNL     1       9.141  -3.682   1.352  1.00  0.00     0.275 HD
ATOM     40  H12 UNL     1      10.478  -3.879   2.099  1.00  0.00     0.275 HD
ATOM     41  H11 UNL     1       9.850  -5.216   1.272  1.00  0.00     0.275 HD
ENDBRANCH  37  38
ENDBRANCH  36  37
ENDBRANCH  34  35
ENDBRANCH  32  33
ENDBRANCH  31  32
ENDBRANCH  30  31
ENDBRANCH  29  30
ENDBRANCH  26  29
ENDBRANCH  25  26
ENDBRANCH  24  25
BRANCH  24  42
HETATM   42  O1  UNL     1      11.632   0.949   4.212  1.00  0.00    -0.389 OA
ATOM     43  H1  UNL     1      11.455   1.808   3.845  1.00  0.00     0.210 HD
ENDBRANCH  24  42
ENDBRANCH   1  24
BRANCH   4  44
HETATM   44  O2  UNL     1      11.993   4.998   7.002  1.00  0.00    -0.348 OA
ATOM     45  H2  UNL     1      11.505   5.492   6.354  1.00  0.00     0.219 HD
ENDBRANCH   4  44
BRANCH  12  46
HETATM   46  C23 UNL     1      15.772   5.136   9.294  1.00  0.00     0.036 C 
BRANCH  46  47
HETATM   47  C24 UNL     1      15.984   5.078  10.781  1.00  0.00     0.022 C 
BRANCH  47  48
HETATM   48  C25 UNL     1      17.250   4.304  11.070  1.00  0.00     0.122 C 
BRANCH  48  49
HETATM   49  N4  UNL     1      17.267   3.796  12.425  1.00  0.00    -0.367 N 
HETATM   50  C26 UNL     1      17.962   4.348  13.335  1.00  0.00     0.196 C 
HETATM   51  N5  UNL     1      17.966   3.833  14.661  1.00  0.00    -0.067 NA
HETATM   52  N6  UNL     1      18.782   5.506  13.112  1.00  0.00    -0.067 NA
ATOM     53  H4  UNL     1      16.707   2.975  12.655  1.00  0.00     0.161 HD
ENDBRANCH  48  49
ENDBRANCH  47  48
ENDBRANCH  46  47
ENDBRANCH  12  46
TORSDOF 17
ENDMDL
MODEL 3
REMARK VINA RESULT: -8.690603862      1.250      2.146
REMARK  17 active torsions:
REMARK  status: ('A' for Active; 'I' for Inactive)
REMARK    1  A    between atoms: C3_3  and  C4_4 
REMARK    2  A    between atoms: C3_3  and  C13_17 
REMARK    3  A    between atoms: C4_4  and  C5_5 
REMARK    4  A    between atoms: C5_5  and  C6_6 
REMARK    5  A    between atoms: C6_6  and  C7_7 
REMARK    6  A    between atoms: C7_7  and  C8_8 
REMARK    7  A    between atoms: C9_9  and  C10_10 
REMARK    8  A    between atoms: C11_11  and  C12_12 
REMARK    9  A    between atoms: C12_12  and  N1_13 
REMARK   10  A    between atoms: C13_17  and  C14_18 
REMARK   11  A    between atoms: C14_18  and  O1_19 
REMARK   12  A    between atoms: C14_18  and  C15_21 
REMARK   13  A    between atoms: C16_24  and  O2_25 
REMARK   14  A    between atoms: C22_34  and  C23_35 
REMARK   15  A    between atoms: C23_35  and  C24_36 
REMARK   16  A    between atoms: C24_36  and  C25_37 
REMARK   17  A    between atoms: C25_37  and  N4_38 
ROOT
HETATM    1  C15 UNL     1      11.678   1.576   6.551  1.00  0.00     0.108 C 
HETATM    2  N2  UNL     1      11.339   2.950   6.699  1.00  0.00    -0.336 N 
ATOM      3  H2  UNL     1      10.766   3.264   5.915  1.00  0.00     0.167 HD
HETATM    4  C16 UNL     1      11.551   3.982   7.581  1.00  0.00     0.139 C 
HETATM    5  C17 UNL     1      11.233   4.313   8.947  1.00  0.00     0.162 C 
HETATM    6  C18 UNL     1      10.847   3.322   9.949  1.00  0.00     0.035 C 
HETATM    7  C19 UNL     1      10.689   4.227  11.189  1.00  0.00     0.022 C 
HETATM    8  C20 UNL     1      11.498   5.489  10.842  1.00  0.00     0.127 C 
HETATM    9  N3  UNL     1      12.263   5.066   9.679  1.00  0.00    -0.338 N 
HETATM   10  C21 UNL     1      13.587   5.284   9.285  1.00  0.00     0.243 C 
HETATM   11  O3  UNL     1      13.971   6.510   9.150  1.00  0.00    -0.271 OA
HETATM   12  C22 UNL     1      14.649   4.296   8.989  1.00  0.00     0.176 C 
HETATM   13  N7  UNL     1      14.535   3.120   9.844  1.00  0.00    -0.346 N 
ATOM     14  H7  UNL     1      14.216   3.264  10.802  1.00  0.00     0.163 HD
HETATM   15  C27 UNL     1      14.832   1.803   9.450  1.00  0.00     0.241 C 
HETATM   16  O4  UNL     1      15.497   1.028  10.230  1.00  0.00    -0.271 OA
HETATM   17  C28 UNL     1      14.394   1.258   8.130  1.00  0.00     0.179 C 
HETATM   18  C29 UNL     1      15.484   0.262   7.733  1.00  0.00     0.037 C 
HETATM   19  C30 UNL     1      15.061  -0.949   8.536  1.00  0.00     0.022 C 
HETATM   20  C31 UNL     1      13.700  -0.692   9.095  1.00  0.00     0.127 C 
HETATM   21  N8  UNL     1      13.212   0.439   8.282  1.00  0.00    -0.334 N 
HETATM   22  C32 UNL     1      11.944   0.741   7.716  1.00  0.00     0.269 C 
HETATM   23  O5  UNL     1      10.986   0.199   8.325  1.00  0.00    -0.266 OA
ENDROOT
BRANCH   1  24
HETATM   24  C14 UNL     1      10.916   0.874   5.477  1.00  0.00     0.177 C 
BRANCH  24  25
HETATM   25  C13 UNL     1       9.486   1.041   5.276  1.00  0.00     0.072 C 
BRANCH  25  26
HETATM   26  C3  UNL     1       8.525   0.376   6.143  1.00  0.00    -0.081 C 
HETATM   27  C2  UNL     1       8.621  -0.914   6.415  1.00  0.00    -0.028 C 
HETATM   28  C1  UNL     1       9.651  -1.844   5.943  1.00  0.00     0.036 C 
BRANCH  26  29
HETATM   29  C4  UNL     1       7.378   1.125   6.741  1.00  0.00     0.034 C 
BRANCH  29  30
HETATM   30  C5  UNL     1       6.074   0.416   6.583  1.00  0.00     0.005 C 
BRANCH  30  31
HETATM   31  C6  UNL     1       5.202   1.032   5.509  1.00  0.00     0.012 C 
BRANCH  31  32
HETATM   32  C7  UNL     1       4.469  -0.036   4.725  1.00  0.00     0.095 C 
BRANCH  32  33
HETATM   33  C8  UNL     1       5.412  -1.095   4.365  1.00  0.00    -0.092 C 
HETATM   34  C9  UNL     1       6.202  -1.979   4.085  1.00  0.00    -0.015 C 
BRANCH  34  35
HETATM   35  C10 UNL     1       7.108  -3.018   3.780  1.00  0.00    -0.013 C 
HETATM   36  C11 UNL     1       7.904  -3.905   3.506  1.00  0.00    -0.065 C 
BRANCH  36  37
HETATM   37  C12 UNL     1       8.874  -4.944   3.174  1.00  0.00     0.324 C 
BRANCH  37  38
HETATM   38  N1  UNL     1       9.688  -4.512   2.074  1.00  0.00    -0.069 N 
ATOM     39  H13 UNL     1      10.195  -3.653   2.286  1.00  0.00     0.275 HD
ATOM     40  H12 UNL     1      10.492  -5.124   1.927  1.00  0.00     0.275 HD
ATOM     41  H11 UNL     1       9.115  -4.423   1.236  1.00  0.00     0.275 HD
ENDBRANCH  37  38
ENDBRANCH  36  37
ENDBRANCH  34  35
ENDBRANCH  32  33
ENDBRANCH  31  32
ENDBRANCH  30  31
ENDBRANCH  29  30
ENDBRANCH  26  29
ENDBRANCH  25  26
ENDBRANCH  24  25
BRANCH  24  42
HETATM   42  O1  UNL     1      11.596   1.008   4.270  1.00  0.00    -0.389 OA
ATOM     43  H1  UNL     1      12.308   1.632   4.357  1.00  0.00     0.210 HD
ENDBRANCH  24  42
ENDBRANCH   1  24
BRANCH   4  44
HETATM   44  O2  UNL     1      12.235   4.998   7.099  1.00  0.00    -0.348 OA
ATOM     45  H2  UNL     1      13.091   5.130   7.490  1.00  0.00     0.219 HD
ENDBRANCH   4  44
BRANCH  12  46
HETATM   46  C23 UNL     1      16.035   4.871   9.356  1.00  0.00     0.036 C 
BRANCH  46  47
HETATM   47  C24 UNL     1      16.578   4.178  10.575  1.00  0.00     0.022 C 
BRANCH  47  48
HETATM   48  C25 UNL     1      18.070   3.999  10.418  1.00  0.00     0.122 C 
BRANCH  48  49
HETATM   49  N4  UNL     1      18.451   2.605  10.499  1.00  0.00    -0.367 N 
HETATM   50  C26 UNL     1      18.413   1.844   9.481  1.00  0.00     0.196 C 
HETATM   51  N5  UNL     1      18.790   0.476   9.582  1.00  0.00    -0.067 NA
HETATM   52  N6  UNL     1      17.998   2.284   8.178  1.00  0.00    -0.067 NA
ATOM     53  H4  UNL     1      18.757   2.224  11.394  1.00  0.00     0.161 HD
ENDBRANCH  48  49
ENDBRANCH  47  48
ENDBRANCH  46  47
ENDBRANCH  12  46
TORSDOF 17
ENDMDL
MODEL 4
REMARK VINA RESULT: -8.496183422      1.864      2.047
REMARK  17 active torsions:
REMARK  status: ('A' for Active; 'I' for Inactive)
REMARK    1  A    between atoms: C3_3  and  C4_4 
REMARK    2  A    between atoms: C3_3  and  C13_17 
REMARK    3  A    between atoms: C4_4  and  C5_5 
REMARK    4  A    between atoms: C5_5  and  C6_6 
REMARK    5  A    between atoms: C6_6  and  C7_7 
REMARK    6  A    between atoms: C7_7  and  C8_8 
REMARK    7  A    between atoms: C9_9  and  C10_10 
REMARK    8  A    between atoms: C11_11  and  C12_12 
REMARK    9  A    between atoms: C12_12  and  N1_13 
REMARK   10  A    between atoms: C13_17  and  C14_18 
REMARK   11  A    between atoms: C14_18  and  O1_19 
REMARK   12  A    between atoms: C14_18  and  C15_21 
REMARK   13  A    between atoms: C16_24  and  O2_25 
REMARK   14  A    between atoms: C22_34  and  C23_35 
REMARK   15  A    between atoms: C23_35  and  C24_36 
REMARK   16  A    between atoms: C24_36  and  C25_37 
REMARK   17  A    between atoms: C25_37  and  N4_38 
ROOT
HETATM    1  C15 UNL     1      11.612   1.461   6.386  1.00  0.00     0.108 C 
HETATM    2  N2  UNL     1      11.220   2.823   6.511  1.00  0.00    -0.336 N 
ATOM      3  H2  UNL     1      10.651   3.106   5.714  1.00  0.00     0.167 HD
HETATM    4  C16 UNL     1      11.380   3.872   7.385  1.00  0.00     0.139 C 
HETATM    5  C17 UNL     1      11.026   4.207   8.741  1.00  0.00     0.162 C 
HETATM    6  C18 UNL     1      10.658   3.214   9.749  1.00  0.00     0.035 C 
HETATM    7  C19 UNL     1      10.447   4.126  10.975  1.00  0.00     0.022 C 
HETATM    8  C20 UNL     1      11.215   5.413  10.626  1.00  0.00     0.127 C 
HETATM    9  N3  UNL     1      12.015   5.005   9.481  1.00  0.00    -0.338 N 
HETATM   10  C21 UNL     1      13.337   5.266   9.107  1.00  0.00     0.243 C 
HETATM   11  O3  UNL     1      13.678   6.504   8.964  1.00  0.00    -0.271 OA
HETATM   12  C22 UNL     1      14.439   4.315   8.841  1.00  0.00     0.176 C 
HETATM   13  N7  UNL     1      14.353   3.146   9.708  1.00  0.00    -0.346 N 
ATOM     14  H7  UNL     1      14.012   3.289  10.659  1.00  0.00     0.163 HD
HETATM   15  C27 UNL     1      14.705   1.836   9.335  1.00  0.00     0.241 C 
HETATM   16  O4  UNL     1      15.384   1.095  10.136  1.00  0.00    -0.271 OA
HETATM   17  C28 UNL     1      14.310   1.260   8.015  1.00  0.00     0.179 C 
HETATM   18  C29 UNL     1      15.442   0.301   7.648  1.00  0.00     0.037 C 
HETATM   19  C30 UNL     1      15.050  -0.916   8.459  1.00  0.00     0.022 C 
HETATM   20  C31 UNL     1      13.671  -0.703   8.991  1.00  0.00     0.127 C 
HETATM   21  N8  UNL     1      13.156   0.400   8.156  1.00  0.00    -0.334 N 
HETATM   22  C32 UNL     1      11.888   0.649   7.565  1.00  0.00     0.269 C 
HETATM   23  O5  UNL     1      10.940   0.080   8.164  1.00  0.00    -0.266 OA
ENDROOT
BRANCH   1  24
HETATM   24  C14 UNL     1      10.895   0.719   5.307  1.00  0.00     0.177 C 
BRANCH  24  25
HETATM   25  C13 UNL     1       9.461   0.821   5.089  1.00  0.00     0.072 C 
BRANCH  25  26
HETATM   26  C3  UNL     1       8.522   0.100   5.935  1.00  0.00    -0.081 C 
HETATM   27  C2  UNL     1       8.504  -1.221   5.973  1.00  0.00    -0.028 C 
HETATM   28  C1  UNL     1       9.377  -2.140   5.237  1.00  0.00     0.036 C 
BRANCH  26  29
HETATM   29  C4  UNL     1       7.525   0.830   6.776  1.00  0.00     0.034 C 
BRANCH  29  30
HETATM   30  C5  UNL     1       6.160   0.230   6.714  1.00  0.00     0.005 C 
BRANCH  30  31
HETATM   31  C6  UNL     1       5.262   0.928   5.714  1.00  0.00     0.012 C 
BRANCH  31  32
HETATM   32  C7  UNL     1       5.216   0.172   4.403  1.00  0.00     0.095 C 
BRANCH  32  33
HETATM   33  C8  UNL     1       4.632  -1.149   4.634  1.00  0.00    -0.092 C 
HETATM   34  C9  UNL     1       4.163  -2.255   4.837  1.00  0.00    -0.015 C 
BRANCH  34  35
HETATM   35  C10 UNL     1       3.625  -3.534   5.098  1.00  0.00    -0.013 C 
HETATM   36  C11 UNL     1       3.177  -4.647   5.331  1.00  0.00    -0.065 C 
BRANCH  36  37
HETATM   37  C12 UNL     1       2.664  -5.982   5.628  1.00  0.00     0.324 C 
BRANCH  37  38
HETATM   38  N1  UNL     1       1.511  -5.879   6.476  1.00  0.00    -0.069 N 
ATOM     39  H13 UNL     1       0.696  -5.526   5.975  1.00  0.00     0.275 HD
ATOM     40  H12 UNL     1       1.141  -6.794   6.734  1.00  0.00     0.275 HD
ATOM     41  H11 UNL     1       1.734  -5.310   7.293  1.00  0.00     0.275 HD
ENDBRANCH  37  38
ENDBRANCH  36  37
ENDBRANCH  34  35
ENDBRANCH  32  33
ENDBRANCH  31  32
ENDBRANCH  30  31
ENDBRANCH  29  30
ENDBRANCH  26  29
ENDBRANCH  25  26
ENDBRANCH  24  25
BRANCH  24  42
HETATM   42  O1  UNL     1      11.583   0.876   4.108  1.00  0.00    -0.389 OA
ATOM     43  H1  UNL     1      12.399   0.389   4.126  1.00  0.00     0.210 HD
ENDBRANCH  24  42
ENDBRANCH   1  24
BRANCH   4  44
HETATM   44  O2  UNL     1      12.035   4.906   6.902  1.00  0.00    -0.348 OA
ATOM     45  H2  UNL     1      12.271   5.568   7.541  1.00  0.00     0.219 HD
ENDBRANCH   4  44
BRANCH  12  46
HETATM   46  C23 UNL     1      15.797   4.945   9.225  1.00  0.00     0.036 C 
BRANCH  46  47
HETATM   47  C24 UNL     1      16.288   4.366  10.523  1.00  0.00     0.022 C 
BRANCH  47  48
HETATM   48  C25 UNL     1      16.230   5.433  11.592  1.00  0.00     0.122 C 
BRANCH  48  49
HETATM   49  N4  UNL     1      15.096   5.244  12.471  1.00  0.00    -0.367 N 
HETATM   50  C26 UNL     1      14.260   6.176  12.692  1.00  0.00     0.196 C 
HETATM   51  N5  UNL     1      13.152   5.970  13.561  1.00  0.00    -0.067 NA
HETATM   52  N6  UNL     1      14.357   7.483  12.102  1.00  0.00    -0.067 NA
ATOM     53  H4  UNL     1      14.964   4.340  12.925  1.00  0.00     0.161 HD
ENDBRANCH  48  49
ENDBRANCH  47  48
ENDBRANCH  46  47
ENDBRANCH  12  46
TORSDOF 17
ENDMDL
MODEL 5
REMARK VINA RESULT: -8.342268767      1.378      2.651
REMARK  17 active torsions:
REMARK  status: ('A' for Active; 'I' for Inactive)
REMARK    1  A    between atoms: C3_3  and  C4_4 
REMARK    2  A    between atoms: C3_3  and  C13_17 
REMARK    3  A    between atoms: C4_4  and  C5_5 
REMARK    4  A    between atoms: C5_5  and  C6_6 
REMARK    5  A    between atoms: C6_6  and  C7_7 
REMARK    6  A    between atoms: C7_7  and  C8_8 
REMARK    7  A    between atoms: C9_9  and  C10_10 
REMARK    8  A    between atoms: C11_11  and  C12_12 
REMARK    9  A    between atoms: C12_12  and  N1_13 
REMARK   10  A    between atoms: C13_17  and  C14_18 
REMARK   11  A    between atoms: C14_18  and  O1_19 
REMARK   12  A    between atoms: C14_18  and  C15_21 
REMARK   13  A    between atoms: C16_24  and  O2_25 
REMARK   14  A    between atoms: C22_34  and  C23_35 
REMARK   15  A    between atoms: C23_35  and  C24_36 
REMARK   16  A    between atoms: C24_36  and  C25_37 
REMARK   17  A    between atoms: C25_37  and  N4_38 
ROOT
HETATM    1  C15 UNL     1      11.998   1.415   6.415  1.00  0.00     0.108 C 
HETATM    2  N2  UNL     1      11.537   2.757   6.518  1.00  0.00    -0.336 N 
ATOM      3  H2  UNL     1      10.987   3.010   5.696  1.00  0.00     0.167 HD
HETATM    4  C16 UNL     1      11.609   3.814   7.392  1.00  0.00     0.139 C 
HETATM    5  C17 UNL     1      11.183   4.135   8.731  1.00  0.00     0.162 C 
HETATM    6  C18 UNL     1      10.823   3.128   9.727  1.00  0.00     0.035 C 
HETATM    7  C19 UNL     1      10.517   4.033  10.939  1.00  0.00     0.022 C 
HETATM    8  C20 UNL     1      11.235   5.354  10.616  1.00  0.00     0.127 C 
HETATM    9  N3  UNL     1      12.101   4.982   9.508  1.00  0.00    -0.338 N 
HETATM   10  C21 UNL     1      13.423   5.307   9.187  1.00  0.00     0.243 C 
HETATM   11  O3  UNL     1      13.709   6.559   9.053  1.00  0.00    -0.271 OA
HETATM   12  C22 UNL     1      14.580   4.409   8.971  1.00  0.00     0.176 C 
HETATM   13  N7  UNL     1      14.515   3.239   9.839  1.00  0.00    -0.346 N 
ATOM     14  H7  UNL     1      14.129   3.368  10.775  1.00  0.00     0.163 HD
HETATM   15  C27 UNL     1      14.945   1.947   9.487  1.00  0.00     0.241 C 
HETATM   16  O4  UNL     1      15.625   1.242  10.318  1.00  0.00    -0.271 OA
HETATM   17  C28 UNL     1      14.633   1.350   8.154  1.00  0.00     0.179 C 
HETATM   18  C29 UNL     1      15.825   0.445   7.839  1.00  0.00     0.037 C 
HETATM   19  C30 UNL     1      15.459  -0.787   8.638  1.00  0.00     0.022 C 
HETATM   20  C31 UNL     1      14.050  -0.640   9.113  1.00  0.00     0.127 C 
HETATM   21  N8  UNL     1      13.518   0.435   8.252  1.00  0.00    -0.334 N 
HETATM   22  C32 UNL     1      12.264   0.620   7.608  1.00  0.00     0.269 C 
HETATM   23  O5  UNL     1      11.321   0.008   8.170  1.00  0.00    -0.266 OA
ENDROOT
BRANCH   1  24
HETATM   24  C14 UNL     1      11.363   0.637   5.311  1.00  0.00     0.177 C 
BRANCH  24  25
HETATM   25  C13 UNL     1       9.980   0.189   5.346  1.00  0.00     0.072 C 
BRANCH  25  26
HETATM   26  C3  UNL     1       9.646  -1.184   5.694  1.00  0.00    -0.081 C 
HETATM   27  C2  UNL     1       8.606  -1.468   6.457  1.00  0.00    -0.028 C 
HETATM   28  C1  UNL     1       7.651  -0.520   7.041  1.00  0.00     0.036 C 
BRANCH  26  29
HETATM   29  C4  UNL     1      10.485  -2.325   5.216  1.00  0.00     0.034 C 
BRANCH  29  30
HETATM   30  C5  UNL     1       9.763  -3.631   5.244  1.00  0.00     0.005 C 
BRANCH  30  31
HETATM   31  C6  UNL     1       9.827  -4.362   3.919  1.00  0.00     0.012 C 
BRANCH  31  32
HETATM   32  C7  UNL     1       8.447  -4.791   3.467  1.00  0.00     0.095 C 
BRANCH  32  33
HETATM   33  C8  UNL     1       7.505  -3.697   3.706  1.00  0.00    -0.092 C 
HETATM   34  C9  UNL     1       6.712  -2.797   3.920  1.00  0.00    -0.015 C 
BRANCH  34  35
HETATM   35  C10 UNL     1       5.796  -1.757   4.193  1.00  0.00    -0.013 C 
HETATM   36  C11 UNL     1       5.005  -0.862   4.449  1.00  0.00    -0.065 C 
BRANCH  36  37
HETATM   37  C12 UNL     1       4.066   0.206   4.782  1.00  0.00     0.324 C 
BRANCH  37  38
HETATM   38  N1  UNL     1       4.776   1.444   4.934  1.00  0.00    -0.069 N 
ATOM     39  H13 UNL     1       5.786   1.305   4.976  1.00  0.00     0.275 HD
ATOM     40  H12 UNL     1       4.741   2.014   4.088  1.00  0.00     0.275 HD
ATOM     41  H11 UNL     1       4.424   1.945   5.750  1.00  0.00     0.275 HD
ENDBRANCH  37  38
ENDBRANCH  36  37
ENDBRANCH  34  35
ENDBRANCH  32  33
ENDBRANCH  31  32
ENDBRANCH  30  31
ENDBRANCH  29  30
ENDBRANCH  26  29
ENDBRANCH  25  26
ENDBRANCH  24  25
BRANCH  24  42
HETATM   42  O1  UNL     1      11.646   1.252   4.095  1.00  0.00    -0.389 OA
ATOM     43  H1  UNL     1      12.581   1.240   3.926  1.00  0.00     0.210 HD
ENDBRANCH  24  42
ENDBRANCH   1  24
BRANCH   4  44
HETATM   44  O2  UNL     1      12.232   4.878   6.932  1.00  0.00    -0.348 OA
ATOM     45  H2  UNL     1      11.674   5.622   6.740  1.00  0.00     0.219 HD
ENDBRANCH   4  44
BRANCH  12  46
HETATM   46  C23 UNL     1      15.889   5.105   9.408  1.00  0.00     0.036 C 
BRANCH  46  47
HETATM   47  C24 UNL     1      16.301   4.626  10.772  1.00  0.00     0.022 C 
BRANCH  47  48
HETATM   48  C25 UNL     1      16.078   5.736  11.773  1.00  0.00     0.122 C 
BRANCH  48  49
HETATM   49  N4  UNL     1      14.871   5.525  12.543  1.00  0.00    -0.367 N 
HETATM   50  C26 UNL     1      14.074   6.479  12.810  1.00  0.00     0.196 C 
HETATM   51  N5  UNL     1      12.894   6.250  13.570  1.00  0.00    -0.067 NA
HETATM   52  N6  UNL     1      14.290   7.834  12.383  1.00  0.00    -0.067 NA
ATOM     53  H4  UNL     1      14.654   4.587  12.880  1.00  0.00     0.161 HD
ENDBRANCH  48  49
ENDBRANCH  47  48
ENDBRANCH  46  47
ENDBRANCH  12  46
TORSDOF 17
ENDMDL
