MODEL 1
REMARK VINA RESULT: -9.631303530      0.000      0.000
REMARK  14 active torsions:
REMARK  status: ('A' for Active; 'I' for Inactive)
REMARK    1  A    between atoms: C3_3  and  C4_4 
REMARK    2  A    between atoms: C4_4  and  N1_5 
REMARK    3  A    between atoms: C5_7  and  C6_8 
REMARK    4  A    between atoms: C5_7  and  N8_41 
REMARK    5  A    between atoms: C6_8  and  C7_9 
REMARK    6  A    between atoms: C6_8  and  N5_19 
REMARK    7  A    between atoms: C7_9  and  C8_10 
REMARK    8  A    between atoms: C8_10  and  C9_11 
REMARK    9  A    between atoms: C9_11  and  N2_12 
REMARK       I    between atoms: N2_12  and  C10_14 
REMARK       I    between atoms: N5_19  and  C11_21 
REMARK   10  A    between atoms: C11_21  and  C12_23 
REMARK   11  A    between atoms: C13_24  and  C14_25 
REMARK   12  A    between atoms: C14_25  and  C15_29 
REMARK       I    between atoms: C15_29  and  N7_31 
REMARK   13  A    between atoms: C28_45  and  C29_46 
REMARK       I    between atoms: C29_46  and  N9_48 
REMARK   14  A    between atoms: N9_48  and  N10_50 
ROOT
HETATM    1  C1  UNL     1      18.149   4.529  11.838  1.00  0.00     0.112 C 
HETATM    2  C2  UNL     1      17.186   4.370  10.754  1.00  0.00    -0.109 C 
HETATM    3  C3  UNL     1      16.383   4.221   9.873  1.00  0.00    -0.087 C 
ENDROOT
BRANCH   3   4
HETATM    4  C4  UNL     1      15.375   4.031   8.806  1.00  0.00     0.215 C 
BRANCH   4   5
HETATM    5  N1  UNL     1      14.738   2.786   9.002  1.00  0.00    -0.368 N 
HETATM    6  C5  UNL     1      13.530   2.433   8.893  1.00  0.00     0.100 C 
ATOM      7  H1  UNL     1      15.369   2.035   9.282  1.00  0.00     0.161 HD
BRANCH   6   8
HETATM    8  C6  UNL     1      13.195   0.996   9.183  1.00  0.00     0.151 C 
BRANCH   8   9
HETATM    9  C7  UNL     1      14.503   0.277   9.390  1.00  0.00     0.034 C 
BRANCH   9  10
HETATM   10  C8  UNL     1      14.825  -0.658   8.245  1.00  0.00     0.022 C 
BRANCH  10  11
HETATM   11  C9  UNL     1      16.307  -0.655   7.955  1.00  0.00     0.122 C 
BRANCH  11  12
HETATM   12  N2  UNL     1      16.946   0.563   8.387  1.00  0.00    -0.365 N 
HETATM   13  C10 UNL     1      18.258   0.554   8.867  1.00  0.00     0.181 C 
HETATM   14  N3  UNL     1      18.973  -0.540   8.840  1.00  0.00    -0.374 N 
HETATM   15  N4  UNL     1      18.835   1.734   9.391  1.00  0.00    -0.064 NA
ATOM     16  H32 UNL     1      18.557  -1.392   8.462  1.00  0.00     0.158 HD
ATOM     17  H31 UNL     1      19.930  -0.547   9.190  1.00  0.00     0.158 HD
ATOM     18  H2  UNL     1      16.433   1.444   8.342  1.00  0.00     0.162 HD
ENDBRANCH  11  12
ENDBRANCH  10  11
ENDBRANCH   9  10
ENDBRANCH   8   9
BRANCH   8  19
HETATM   19  N5  UNL     1      12.453   0.431   8.072  1.00  0.00    -0.349 N 
HETATM   20  C11 UNL     1      11.331  -0.401   8.225  1.00  0.00     0.223 C 
HETATM   21  O1  UNL     1      10.907  -0.695   9.354  1.00  0.00    -0.273 OA
ATOM     22  H5  UNL     1      12.765   0.649   7.126  1.00  0.00     0.163 HD
BRANCH  20  23
HETATM   23  C12 UNL     1      10.607  -0.962   7.014  1.00  0.00     0.092 C 
HETATM   24  C13 UNL     1      11.466  -0.959   5.822  1.00  0.00     0.054 C 
HETATM   25  C21 UNL     1      11.089   0.268   5.017  1.00  0.00     0.017 C 
HETATM   26  C22 UNL     1       9.756   0.735   5.535  1.00  0.00    -0.009 A 
HETATM   27  C23 UNL     1       8.593  -0.162   5.605  1.00  0.00     0.011 A 
HETATM   28  C24 UNL     1       9.472   0.019   6.786  1.00  0.00     0.004 A 
BRANCH  24  29
HETATM   29  C14 UNL     1      11.518  -2.173   4.992  1.00  0.00     0.076 C 
HETATM   30  N6  UNL     1      11.904  -2.147   3.799  1.00  0.00    -0.398 N 
ATOM     31  H62 UNL     1      12.175  -1.240   3.417  1.00  0.00     0.156 HD
ATOM     32  H61 UNL     1      11.940  -2.988   3.224  1.00  0.00     0.156 HD
BRANCH  29  33
HETATM   33  C15 UNL     1      11.126  -3.480   5.544  1.00  0.00     0.266 C 
HETATM   34  O2  UNL     1      12.002  -4.034   6.293  1.00  0.00    -0.266 OA
HETATM   35  N7  UNL     1       9.927  -4.160   5.340  1.00  0.00    -0.347 N 
HETATM   36  C16 UNL     1       8.885  -3.598   4.506  1.00  0.00     0.126 C 
HETATM   37  C20 UNL     1       9.740  -5.458   5.992  1.00  0.00     0.126 C 
HETATM   38  C17 UNL     1       7.716  -4.587   4.521  1.00  0.00     0.020 C 
HETATM   39  C18 UNL     1       8.264  -5.905   4.021  1.00  0.00     0.003 C 
HETATM   40  C19 UNL     1       9.197  -6.504   5.052  1.00  0.00     0.020 C 
ENDBRANCH  29  33
ENDBRANCH  24  29
ENDBRANCH  20  23
ENDBRANCH   8  19
ENDBRANCH   6   8
BRANCH   6  41
HETATM   41  N8  UNL     1      12.529   3.346   8.511  1.00  0.00    -0.356 N 
HETATM   42  C25 UNL     1      11.919   3.301   7.162  1.00  0.00     0.125 C 
HETATM   43  C26 UNL     1      10.453   3.524   7.471  1.00  0.00     0.022 C 
HETATM   44  C27 UNL     1      10.401   4.223   8.789  1.00  0.00     0.037 C 
HETATM   45  C28 UNL     1      11.874   4.441   9.147  1.00  0.00     0.179 C 
BRANCH  45  46
HETATM   46  C29 UNL     1      12.055   4.553  10.596  1.00  0.00     0.264 C 
HETATM   47  O3  UNL     1      11.555   3.686  11.385  1.00  0.00    -0.269 OA
HETATM   48  N9  UNL     1      12.801   5.645  11.116  1.00  0.00    -0.184 N 
ATOM     49  H9  UNL     1      13.188   6.321  10.457  1.00  0.00     0.197 HD
BRANCH  48  50
HETATM   50  N10 UNL     1      13.032   5.841  12.473  1.00  0.00     0.003 N 
HETATM   51  C30 UNL     1      12.328   4.874  13.293  1.00  0.00     0.301 C 
HETATM   52  C31 UNL     1      14.446   5.693  12.780  1.00  0.00     0.301 C 
HETATM   53  C32 UNL     1      12.584   7.163  12.856  1.00  0.00     0.301 C 
ENDBRANCH  48  50
ENDBRANCH  45  46
ENDBRANCH   6  41
ENDBRANCH   4   5
ENDBRANCH   3   4
TORSDOF 14
ENDMDL
MODEL 2
REMARK VINA RESULT: -9.291669351      2.946     10.510
REMARK  14 active torsions:
REMARK  status: ('A' for Active; 'I' for Inactive)
REMARK    1  A    between atoms: C3_3  and  C4_4 
REMARK    2  A    between atoms: C4_4  and  N1_5 
REMARK    3  A    between atoms: C5_7  and  C6_8 
REMARK    4  A    between atoms: C5_7  and  N8_41 
REMARK    5  A    between atoms: C6_8  and  C7_9 
REMARK    6  A    between atoms: C6_8  and  N5_19 
REMARK    7  A    between atoms: C7_9  and  C8_10 
REMARK    8  A    between atoms: C8_10  and  C9_11 
REMARK    9  A    between atoms: C9_11  and  N2_12 
REMARK       I    between atoms: N2_12  and  C10_14 
REMARK       I    between atoms: N5_19  and  C11_21 
REMARK   10  A    between atoms: C11_21  and  C12_23 
REMARK   11  A    between atoms: C13_24  and  C14_25 
REMARK   12  A    between atoms: C14_25  and  C15_29 
REMARK       I    between atoms: C15_29  and  N7_31 
REMARK   13  A    between atoms: C28_45  and  C29_46 
REMARK       I    between atoms: C29_46  and  N9_48 
REMARK   14  A    between atoms: N9_48  and  N10_50 
ROOT
HETATM    1  C1  UNL     1       7.407  -7.914   9.283  1.00  0.00     0.112 C 
HETATM    2  C2  UNL     1       8.199  -7.130   8.342  1.00  0.00    -0.109 C 
HETATM    3  C3  UNL     1       8.856  -6.503   7.556  1.00  0.00    -0.087 C 
ENDROOT
BRANCH   3   4
HETATM    4  C4  UNL     1       9.663  -5.749   6.570  1.00  0.00     0.215 C 
BRANCH   4   5
HETATM    5  N1  UNL     1       9.577  -4.372   6.874  1.00  0.00    -0.368 N 
HETATM    6  C5  UNL     1       9.488  -3.351   6.135  1.00  0.00     0.100 C 
ATOM      7  H1  UNL     1       9.590  -4.165   7.873  1.00  0.00     0.161 HD
BRANCH   6   8
HETATM    8  C6  UNL     1       9.414  -2.008   6.807  1.00  0.00     0.151 C 
BRANCH   8   9
HETATM    9  C7  UNL     1       8.575  -1.124   5.921  1.00  0.00     0.034 C 
BRANCH   9  10
HETATM   10  C8  UNL     1       8.132   0.136   6.632  1.00  0.00     0.022 C 
BRANCH  10  11
HETATM   11  C9  UNL     1       6.655   0.377   6.419  1.00  0.00     0.122 C 
BRANCH  11  12
HETATM   12  N2  UNL     1       6.100  -0.491   5.411  1.00  0.00    -0.365 N 
HETATM   13  C10 UNL     1       5.010  -0.085   4.637  1.00  0.00     0.181 C 
HETATM   14  N3  UNL     1       4.534   1.129   4.736  1.00  0.00    -0.374 N 
HETATM   15  N4  UNL     1       4.404  -0.984   3.730  1.00  0.00    -0.064 NA
ATOM     16  H32 UNL     1       4.971   1.778   5.391  1.00  0.00     0.158 HD
ATOM     17  H31 UNL     1       3.739   1.426   4.171  1.00  0.00     0.158 HD
ATOM     18  H2  UNL     1       6.507  -1.414   5.261  1.00  0.00     0.162 HD
ENDBRANCH  11  12
ENDBRANCH  10  11
ENDBRANCH   9  10
ENDBRANCH   8   9
BRANCH   8  19
HETATM   19  N5  UNL     1      10.749  -1.469   6.975  1.00  0.00    -0.349 N 
HETATM   20  C11 UNL     1      11.193  -0.833   8.147  1.00  0.00     0.223 C 
HETATM   21  O1  UNL     1      10.439  -0.704   9.125  1.00  0.00    -0.273 OA
ATOM     22  H5  UNL     1      11.404  -1.555   6.198  1.00  0.00     0.163 HD
BRANCH  20  23
HETATM   23  C12 UNL     1      12.606  -0.286   8.249  1.00  0.00     0.092 C 
HETATM   24  C13 UNL     1      12.629   1.178   8.132  1.00  0.00     0.054 C 
HETATM   25  C21 UNL     1      13.006   1.493   6.699  1.00  0.00     0.017 C 
HETATM   26  C22 UNL     1      13.589   0.235   6.116  1.00  0.00    -0.009 A 
HETATM   27  C23 UNL     1      14.708  -0.472   6.757  1.00  0.00     0.011 A 
HETATM   28  C24 UNL     1      13.308  -0.873   7.039  1.00  0.00     0.004 A 
BRANCH  24  29
HETATM   29  C14 UNL     1      13.428   1.947   9.098  1.00  0.00     0.076 C 
HETATM   30  N6  UNL     1      12.896   2.664   9.978  1.00  0.00    -0.398 N 
ATOM     31  H62 UNL     1      11.877   2.703   9.996  1.00  0.00     0.156 HD
ATOM     32  H61 UNL     1      13.450   3.198  10.648  1.00  0.00     0.156 HD
BRANCH  29  33
HETATM   33  C15 UNL     1      14.898   1.891   9.073  1.00  0.00     0.266 C 
HETATM   34  O2  UNL     1      15.465   2.849   8.443  1.00  0.00    -0.266 OA
HETATM   35  N7  UNL     1      15.719   0.925   9.651  1.00  0.00    -0.347 N 
HETATM   36  C16 UNL     1      15.154  -0.191  10.381  1.00  0.00     0.126 C 
HETATM   37  C20 UNL     1      17.170   1.062   9.507  1.00  0.00     0.126 C 
HETATM   38  C17 UNL     1      16.327  -1.032  10.893  1.00  0.00     0.020 C 
HETATM   39  C18 UNL     1      17.128  -1.435   9.674  1.00  0.00     0.003 C 
HETATM   40  C19 UNL     1      17.835  -0.227   9.097  1.00  0.00     0.020 C 
ENDBRANCH  29  33
ENDBRANCH  24  29
ENDBRANCH  20  23
ENDBRANCH   8  19
ENDBRANCH   6   8
BRANCH   6  41
HETATM   41  N8  UNL     1       9.452  -3.461   4.732  1.00  0.00    -0.356 N 
HETATM   42  C25 UNL     1      10.682  -3.330   3.917  1.00  0.00     0.125 C 
HETATM   43  C26 UNL     1      10.508  -4.441   2.902  1.00  0.00     0.022 C 
HETATM   44  C27 UNL     1       9.043  -4.720   2.828  1.00  0.00     0.037 C 
HETATM   45  C28 UNL     1       8.425  -3.681   3.768  1.00  0.00     0.179 C 
BRANCH  45  46
HETATM   46  C29 UNL     1       7.135  -4.141   4.289  1.00  0.00     0.264 C 
HETATM   47  O3  UNL     1       6.387  -3.360   4.963  1.00  0.00    -0.269 OA
HETATM   48  N9  UNL     1       6.724  -5.476   4.031  1.00  0.00    -0.184 N 
ATOM     49  H9  UNL     1       7.345  -6.075   3.488  1.00  0.00     0.197 HD
BRANCH  48  50
HETATM   50  N10 UNL     1       5.519  -6.010   4.478  1.00  0.00     0.003 N 
HETATM   51  C30 UNL     1       4.498  -4.992   4.642  1.00  0.00     0.301 C 
HETATM   52  C31 UNL     1       4.996  -6.971   3.520  1.00  0.00     0.301 C 
HETATM   53  C32 UNL     1       5.719  -6.654   5.759  1.00  0.00     0.301 C 
ENDBRANCH  48  50
ENDBRANCH  45  46
ENDBRANCH   6  41
ENDBRANCH   4   5
ENDBRANCH   3   4
TORSDOF 14
ENDMDL
MODEL 3
REMARK VINA RESULT: -9.023622597      1.759      2.889
REMARK  14 active torsions:
REMARK  status: ('A' for Active; 'I' for Inactive)
REMARK    1  A    between atoms: C3_3  and  C4_4 
REMARK    2  A    between atoms: C4_4  and  N1_5 
REMARK    3  A    between atoms: C5_7  and  C6_8 
REMARK    4  A    between atoms: C5_7  and  N8_41 
REMARK    5  A    between atoms: C6_8  and  C7_9 
REMARK    6  A    between atoms: C6_8  and  N5_19 
REMARK    7  A    between atoms: C7_9  and  C8_10 
REMARK    8  A    between atoms: C8_10  and  C9_11 
REMARK    9  A    between atoms: C9_11  and  N2_12 
REMARK       I    between atoms: N2_12  and  C10_14 
REMARK       I    between atoms: N5_19  and  C11_21 
REMARK   10  A    between atoms: C11_21  and  C12_23 
REMARK   11  A    between atoms: C13_24  and  C14_25 
REMARK   12  A    between atoms: C14_25  and  C15_29 
REMARK       I    between atoms: C15_29  and  N7_31 
REMARK   13  A    between atoms: C28_45  and  C29_46 
REMARK       I    between atoms: C29_46  and  N9_48 
REMARK   14  A    between atoms: N9_48  and  N10_50 
ROOT
HETATM    1  C1  UNL     1      18.105   4.832  12.325  1.00  0.00     0.112 C 
HETATM    2  C2  UNL     1      17.172   4.573  11.235  1.00  0.00    -0.109 C 
HETATM    3  C3  UNL     1      16.407   4.380  10.329  1.00  0.00    -0.087 C 
ENDROOT
BRANCH   3   4
HETATM    4  C4  UNL     1      15.478   4.160   9.198  1.00  0.00     0.215 C 
BRANCH   4   5
HETATM    5  N1  UNL     1      14.948   2.855   9.295  1.00  0.00    -0.368 N 
HETATM    6  C5  UNL     1      13.806   2.387   9.023  1.00  0.00     0.100 C 
ATOM      7  H1  UNL     1      15.608   2.162   9.650  1.00  0.00     0.161 HD
BRANCH   6   8
HETATM    8  C6  UNL     1      13.580   0.919   9.252  1.00  0.00     0.151 C 
BRANCH   8   9
HETATM    9  C7  UNL     1      14.910   0.330   9.647  1.00  0.00     0.034 C 
BRANCH   9  10
HETATM   10  C8  UNL     1      15.310  -0.822   8.752  1.00  0.00     0.022 C 
BRANCH  10  11
HETATM   11  C9  UNL     1      16.546  -0.473   7.956  1.00  0.00     0.122 C 
BRANCH  11  12
HETATM   12  N2  UNL     1      17.118   0.788   8.358  1.00  0.00    -0.365 N 
HETATM   13  C10 UNL     1      18.367   0.842   8.984  1.00  0.00     0.181 C 
HETATM   14  N3  UNL     1      19.091  -0.237   9.126  1.00  0.00    -0.374 N 
HETATM   15  N4  UNL     1      18.867   2.070   9.473  1.00  0.00    -0.064 NA
ATOM     16  H32 UNL     1      18.730  -1.124   8.773  1.00  0.00     0.158 HD
ATOM     17  H31 UNL     1      20.002  -0.198   9.582  1.00  0.00     0.158 HD
ATOM     18  H2  UNL     1      16.605   1.652   8.185  1.00  0.00     0.162 HD
ENDBRANCH  11  12
ENDBRANCH  10  11
ENDBRANCH   9  10
ENDBRANCH   8   9
BRANCH   8  19
HETATM   19  N5  UNL     1      13.072   0.305   8.041  1.00  0.00    -0.349 N 
HETATM   20  C11 UNL     1      11.901  -0.470   7.990  1.00  0.00     0.223 C 
HETATM   21  O1  UNL     1      11.223  -0.666   9.011  1.00  0.00    -0.273 OA
ATOM     22  H5  UNL     1      13.595   0.442   7.176  1.00  0.00     0.163 HD
BRANCH  20  23
HETATM   23  C12 UNL     1      11.432  -1.087   6.684  1.00  0.00     0.092 C 
HETATM   24  C13 UNL     1       9.967  -1.173   6.623  1.00  0.00     0.054 C 
HETATM   25  C21 UNL     1       9.598  -2.593   6.999  1.00  0.00     0.017 C 
HETATM   26  C22 UNL     1      10.853  -3.414   6.878  1.00  0.00    -0.009 A 
HETATM   27  C23 UNL     1      11.646  -3.442   5.641  1.00  0.00     0.011 A 
HETATM   28  C24 UNL     1      11.990  -2.497   6.731  1.00  0.00     0.004 A 
BRANCH  24  29
HETATM   29  C14 UNL     1       9.288  -0.730   5.394  1.00  0.00     0.076 C 
HETATM   30  N6  UNL     1       9.817   0.079   4.598  1.00  0.00    -0.398 N 
ATOM     31  H62 UNL     1      10.744   0.432   4.838  1.00  0.00     0.156 HD
ATOM     32  H61 UNL     1       9.347   0.386   3.746  1.00  0.00     0.156 HD
BRANCH  29  33
HETATM   33  C15 UNL     1       7.951  -1.240   5.048  1.00  0.00     0.266 C 
HETATM   34  O2  UNL     1       7.946  -2.313   4.351  1.00  0.00    -0.266 OA
HETATM   35  N7  UNL     1       6.719  -0.689   5.393  1.00  0.00    -0.347 N 
HETATM   36  C16 UNL     1       6.641   0.524   6.180  1.00  0.00     0.126 C 
HETATM   37  C20 UNL     1       5.500  -1.364   4.943  1.00  0.00     0.126 C 
HETATM   38  C17 UNL     1       5.155   0.828   6.389  1.00  0.00     0.020 C 
HETATM   39  C18 UNL     1       4.545   0.948   5.009  1.00  0.00     0.003 C 
HETATM   40  C19 UNL     1       4.498  -0.411   4.344  1.00  0.00     0.020 C 
ENDBRANCH  29  33
ENDBRANCH  24  29
ENDBRANCH  20  23
ENDBRANCH   8  19
ENDBRANCH   6   8
BRANCH   6  41
HETATM   41  N8  UNL     1      12.778   3.207   8.519  1.00  0.00    -0.356 N 
HETATM   42  C25 UNL     1      12.300   3.072   7.124  1.00  0.00     0.125 C 
HETATM   43  C26 UNL     1      10.799   3.189   7.292  1.00  0.00     0.022 C 
HETATM   44  C27 UNL     1      10.573   3.922   8.573  1.00  0.00     0.037 C 
HETATM   45  C28 UNL     1      11.986   4.266   9.052  1.00  0.00     0.179 C 
BRANCH  45  46
HETATM   46  C29 UNL     1      12.025   4.436  10.506  1.00  0.00     0.264 C 
HETATM   47  O3  UNL     1      11.416   3.622  11.275  1.00  0.00    -0.269 OA
HETATM   48  N9  UNL     1      12.755   5.525  11.054  1.00  0.00    -0.184 N 
ATOM     49  H9  UNL     1      13.231   6.158  10.412  1.00  0.00     0.197 HD
BRANCH  48  50
HETATM   50  N10 UNL     1      12.855   5.774  12.419  1.00  0.00     0.003 N 
HETATM   51  C30 UNL     1      12.245   4.724  13.213  1.00  0.00     0.301 C 
HETATM   52  C31 UNL     1      14.249   5.844  12.827  1.00  0.00     0.301 C 
HETATM   53  C32 UNL     1      12.189   7.019  12.736  1.00  0.00     0.301 C 
ENDBRANCH  48  50
ENDBRANCH  45  46
ENDBRANCH   6  41
ENDBRANCH   4   5
ENDBRANCH   3   4
TORSDOF 14
ENDMDL
MODEL 4
REMARK VINA RESULT: -8.942224514      2.868     10.611
REMARK  14 active torsions:
REMARK  status: ('A' for Active; 'I' for Inactive)
REMARK    1  A    between atoms: C3_3  and  C4_4 
REMARK    2  A    between atoms: C4_4  and  N1_5 
REMARK    3  A    between atoms: C5_7  and  C6_8 
REMARK    4  A    between atoms: C5_7  and  N8_41 
REMARK    5  A    between atoms: C6_8  and  C7_9 
REMARK    6  A    between atoms: C6_8  and  N5_19 
REMARK    7  A    between atoms: C7_9  and  C8_10 
REMARK    8  A    between atoms: C8_10  and  C9_11 
REMARK    9  A    between atoms: C9_11  and  N2_12 
REMARK       I    between atoms: N2_12  and  C10_14 
REMARK       I    between atoms: N5_19  and  C11_21 
REMARK   10  A    between atoms: C11_21  and  C12_23 
REMARK   11  A    between atoms: C13_24  and  C14_25 
REMARK   12  A    between atoms: C14_25  and  C15_29 
REMARK       I    between atoms: C15_29  and  N7_31 
REMARK   13  A    between atoms: C28_45  and  C29_46 
REMARK       I    between atoms: C29_46  and  N9_48 
REMARK   14  A    between atoms: N9_48  and  N10_50 
ROOT
HETATM    1  C1  UNL     1       7.425  -7.911   9.439  1.00  0.00     0.112 C 
HETATM    2  C2  UNL     1       8.177  -7.163   8.438  1.00  0.00    -0.109 C 
HETATM    3  C3  UNL     1       8.794  -6.564   7.599  1.00  0.00    -0.087 C 
ENDROOT
BRANCH   3   4
HETATM    4  C4  UNL     1       9.542  -5.840   6.547  1.00  0.00     0.215 C 
BRANCH   4   5
HETATM    5  N1  UNL     1       9.526  -4.460   6.849  1.00  0.00    -0.368 N 
HETATM    6  C5  UNL     1       9.489  -3.437   6.109  1.00  0.00     0.100 C 
ATOM      7  H1  UNL     1       9.547  -4.252   7.848  1.00  0.00     0.161 HD
BRANCH   6   8
HETATM    8  C6  UNL     1       9.482  -2.091   6.779  1.00  0.00     0.151 C 
BRANCH   8   9
HETATM    9  C7  UNL     1       8.708  -1.161   5.880  1.00  0.00     0.034 C 
BRANCH   9  10
HETATM   10  C8  UNL     1       8.224   0.068   6.615  1.00  0.00     0.022 C 
BRANCH  10  11
HETATM   11  C9  UNL     1       6.715   0.144   6.592  1.00  0.00     0.122 C 
BRANCH  11  12
HETATM   12  N2  UNL     1       6.147  -0.601   5.495  1.00  0.00    -0.365 N 
HETATM   13  C10 UNL     1       5.122  -0.059   4.716  1.00  0.00     0.181 C 
HETATM   14  N3  UNL     1       4.724   1.173   4.896  1.00  0.00    -0.374 N 
HETATM   15  N4  UNL     1       4.498  -0.840   3.716  1.00  0.00    -0.064 NA
ATOM     16  H32 UNL     1       5.174   1.736   5.617  1.00  0.00     0.158 HD
ATOM     17  H31 UNL     1       3.976   1.568   4.327  1.00  0.00     0.158 HD
ATOM     18  H2  UNL     1       6.499  -1.535   5.286  1.00  0.00     0.162 HD
ENDBRANCH  11  12
ENDBRANCH  10  11
ENDBRANCH   9  10
ENDBRANCH   8   9
BRANCH   8  19
HETATM   19  N5  UNL     1      10.843  -1.628   6.967  1.00  0.00    -0.349 N 
HETATM   20  C11 UNL     1      11.273  -0.906   8.093  1.00  0.00     0.223 C 
HETATM   21  O1  UNL     1      10.483  -0.626   9.008  1.00  0.00    -0.273 OA
ATOM     22  H5  UNL     1      11.527  -1.839   6.241  1.00  0.00     0.163 HD
BRANCH  20  23
HETATM   23  C12 UNL     1      12.715  -0.448   8.220  1.00  0.00     0.092 C 
HETATM   24  C13 UNL     1      12.820   1.017   8.210  1.00  0.00     0.054 C 
HETATM   25  C21 UNL     1      13.206   1.415   6.801  1.00  0.00     0.017 C 
HETATM   26  C22 UNL     1      13.712   0.173   6.121  1.00  0.00    -0.009 A 
HETATM   27  C23 UNL     1      14.794  -0.640   6.695  1.00  0.00     0.011 A 
HETATM   28  C24 UNL     1      13.375  -0.982   6.963  1.00  0.00     0.004 A 
BRANCH  24  29
HETATM   29  C14 UNL     1      13.668   1.667   9.222  1.00  0.00     0.076 C 
HETATM   30  N6  UNL     1      14.586   1.053   9.814  1.00  0.00    -0.398 N 
ATOM     31  H62 UNL     1      14.722   0.071   9.573  1.00  0.00     0.156 HD
ATOM     32  H61 UNL     1      15.173   1.504  10.515  1.00  0.00     0.156 HD
BRANCH  29  33
HETATM   33  C15 UNL     1      13.472   3.084   9.570  1.00  0.00     0.266 C 
HETATM   34  O2  UNL     1      14.543   3.725   9.849  1.00  0.00    -0.266 OA
HETATM   35  N7  UNL     1      12.268   3.784   9.624  1.00  0.00    -0.347 N 
HETATM   36  C16 UNL     1      11.013   3.130   9.321  1.00  0.00     0.126 C 
HETATM   37  C20 UNL     1      12.299   5.201   9.993  1.00  0.00     0.126 C 
HETATM   38  C17 UNL     1       9.912   4.186   9.455  1.00  0.00     0.020 C 
HETATM   39  C18 UNL     1      10.003   4.722  10.867  1.00  0.00     0.003 C 
HETATM   40  C19 UNL     1      11.259   5.552  11.025  1.00  0.00     0.020 C 
ENDBRANCH  29  33
ENDBRANCH  24  29
ENDBRANCH  20  23
ENDBRANCH   8  19
ENDBRANCH   6   8
BRANCH   6  41
HETATM   41  N8  UNL     1       9.451  -3.547   4.705  1.00  0.00    -0.356 N 
HETATM   42  C25 UNL     1      10.683  -3.446   3.891  1.00  0.00     0.125 C 
HETATM   43  C26 UNL     1      10.482  -4.553   2.876  1.00  0.00     0.022 C 
HETATM   44  C27 UNL     1       9.011  -4.796   2.802  1.00  0.00     0.037 C 
HETATM   45  C28 UNL     1       8.418  -3.743   3.742  1.00  0.00     0.179 C 
BRANCH  45  46
HETATM   46  C29 UNL     1       7.117  -4.171   4.263  1.00  0.00     0.264 C 
HETATM   47  O3  UNL     1       6.349  -3.346   4.858  1.00  0.00    -0.269 OA
HETATM   48  N9  UNL     1       6.719  -5.524   4.096  1.00  0.00    -0.184 N 
ATOM     49  H9  UNL     1       7.356  -6.158   3.615  1.00  0.00     0.197 HD
BRANCH  48  50
HETATM   50  N10 UNL     1       5.506  -6.030   4.552  1.00  0.00     0.003 N 
HETATM   51  C30 UNL     1       4.942  -7.005   3.637  1.00  0.00     0.301 C 
HETATM   52  C31 UNL     1       5.680  -6.710   5.825  1.00  0.00     0.301 C 
HETATM   53  C32 UNL     1       4.553  -4.951   4.699  1.00  0.00     0.301 C 
ENDBRANCH  48  50
ENDBRANCH  45  46
ENDBRANCH   6  41
ENDBRANCH   4   5
ENDBRANCH   3   4
TORSDOF 14
ENDMDL
MODEL 5
REMARK VINA RESULT: -8.890924207      2.470      9.288
REMARK  14 active torsions:
REMARK  status: ('A' for Active; 'I' for Inactive)
REMARK    1  A    between atoms: C3_3  and  C4_4 
REMARK    2  A    between atoms: C4_4  and  N1_5 
REMARK    3  A    between atoms: C5_7  and  C6_8 
REMARK    4  A    between atoms: C5_7  and  N8_41 
REMARK    5  A    between atoms: C6_8  and  C7_9 
REMARK    6  A    between atoms: C6_8  and  N5_19 
REMARK    7  A    between atoms: C7_9  and  C8_10 
REMARK    8  A    between atoms: C8_10  and  C9_11 
REMARK    9  A    between atoms: C9_11  and  N2_12 
REMARK       I    between atoms: N2_12  and  C10_14 
REMARK       I    between atoms: N5_19  and  C11_21 
REMARK   10  A    between atoms: C11_21  and  C12_23 
REMARK   11  A    between atoms: C13_24  and  C14_25 
REMARK   12  A    between atoms: C14_25  and  C15_29 
REMARK       I    between atoms: C15_29  and  N7_31 
REMARK   13  A    between atoms: C28_45  and  C29_46 
REMARK       I    between atoms: C29_46  and  N9_48 
REMARK   14  A    between atoms: N9_48  and  N10_50 
ROOT
HETATM    1  C1  UNL     1       9.642  -4.681   2.884  1.00  0.00     0.112 C 
HETATM    2  C2  UNL     1      10.419  -4.065   3.953  1.00  0.00    -0.109 C 
HETATM    3  C3  UNL     1      11.076  -3.573   4.830  1.00  0.00    -0.087 C 
ENDROOT
BRANCH   3   4
HETATM    4  C4  UNL     1      11.907  -2.975   5.900  1.00  0.00     0.215 C 
BRANCH   4   5
HETATM    5  N1  UNL     1      11.093  -2.129   6.685  1.00  0.00    -0.368 N 
HETATM    6  C5  UNL     1      11.069  -0.873   6.821  1.00  0.00     0.100 C 
ATOM      7  H1  UNL     1      10.397  -2.623   7.245  1.00  0.00     0.161 HD
BRANCH   6   8
HETATM    8  C6  UNL     1      10.049  -0.292   7.760  1.00  0.00     0.151 C 
BRANCH   8   9
HETATM    9  C7  UNL     1       8.695  -0.582   7.166  1.00  0.00     0.034 C 
BRANCH   9  10
HETATM   10  C8  UNL     1       8.054   0.658   6.583  1.00  0.00     0.022 C 
BRANCH  10  11
HETATM   11  C9  UNL     1       6.553   0.497   6.508  1.00  0.00     0.122 C 
BRANCH  11  12
HETATM   12  N2  UNL     1       6.152  -0.416   5.467  1.00  0.00    -0.365 N 
HETATM   13  C10 UNL     1       5.079  -0.117   4.624  1.00  0.00     0.181 C 
HETATM   14  N3  UNL     1       4.479   1.043   4.691  1.00  0.00    -0.374 N 
HETATM   15  N4  UNL     1       4.626  -1.067   3.681  1.00  0.00    -0.064 NA
ATOM     16  H32 UNL     1       4.806   1.729   5.372  1.00  0.00     0.158 HD
ATOM     17  H31 UNL     1       3.696   1.262   4.076  1.00  0.00     0.158 HD
ATOM     18  H2  UNL     1       6.659  -1.293   5.344  1.00  0.00     0.162 HD
ENDBRANCH  11  12
ENDBRANCH  10  11
ENDBRANCH   9  10
ENDBRANCH   8   9
BRANCH   8  19
HETATM   19  N5  UNL     1      10.268   1.134   7.902  1.00  0.00    -0.349 N 
HETATM   20  C11 UNL     1      11.197   1.697   8.792  1.00  0.00     0.223 C 
HETATM   21  O1  UNL     1      11.900   0.976   9.518  1.00  0.00    -0.273 OA
ATOM     22  H5  UNL     1       9.714   1.765   7.322  1.00  0.00     0.163 HD
BRANCH  20  23
HETATM   23  C12 UNL     1      11.368   3.203   8.891  1.00  0.00     0.092 C 
HETATM   24  C13 UNL     1      12.417   3.566   9.853  1.00  0.00     0.054 C 
HETATM   25  C21 UNL     1      11.715   3.932  11.144  1.00  0.00     0.017 C 
HETATM   26  C22 UNL     1      10.270   4.168  10.801  1.00  0.00    -0.009 A 
HETATM   27  C23 UNL     1       9.866   5.120   9.756  1.00  0.00     0.011 A 
HETATM   28  C24 UNL     1      10.035   3.682   9.436  1.00  0.00     0.004 A 
BRANCH  24  29
HETATM   29  C14 UNL     1      13.414   4.573   9.458  1.00  0.00     0.076 C 
HETATM   30  N6  UNL     1      13.085   5.728   9.098  1.00  0.00    -0.398 N 
ATOM     31  H62 UNL     1      12.088   5.944   9.079  1.00  0.00     0.156 HD
ATOM     32  H61 UNL     1      13.776   6.426   8.824  1.00  0.00     0.156 HD
BRANCH  29  33
HETATM   33  C15 UNL     1      14.852   4.260   9.485  1.00  0.00     0.266 C 
HETATM   34  O2  UNL     1      15.262   3.523   8.524  1.00  0.00    -0.266 OA
HETATM   35  N7  UNL     1      15.792   4.675  10.427  1.00  0.00    -0.347 N 
HETATM   36  C16 UNL     1      15.406   5.512  11.544  1.00  0.00     0.126 C 
HETATM   37  C20 UNL     1      17.182   4.247  10.262  1.00  0.00     0.126 C 
HETATM   38  C17 UNL     1      16.674   5.791  12.354  1.00  0.00     0.020 C 
HETATM   39  C18 UNL     1      17.230   4.443  12.757  1.00  0.00     0.003 C 
HETATM   40  C19 UNL     1      17.783   3.726  11.543  1.00  0.00     0.020 C 
ENDBRANCH  29  33
ENDBRANCH  24  29
ENDBRANCH  20  23
ENDBRANCH   8  19
ENDBRANCH   6   8
BRANCH   6  41
HETATM   41  N8  UNL     1      11.960  -0.041   6.115  1.00  0.00    -0.356 N 
HETATM   42  C25 UNL     1      11.492   0.827   5.011  1.00  0.00     0.125 C 
HETATM   43  C26 UNL     1      12.248   2.113   5.279  1.00  0.00     0.022 C 
HETATM   44  C27 UNL     1      13.446   1.738   6.086  1.00  0.00     0.037 C 
HETATM   45  C28 UNL     1      13.361   0.212   6.181  1.00  0.00     0.179 C 
BRANCH  45  46
HETATM   46  C29 UNL     1      14.055  -0.284   7.372  1.00  0.00     0.264 C 
HETATM   47  O3  UNL     1      13.585  -1.261   8.042  1.00  0.00    -0.269 OA
HETATM   48  N9  UNL     1      15.266   0.340   7.775  1.00  0.00    -0.184 N 
ATOM     49  H9  UNL     1      15.615   1.119   7.217  1.00  0.00     0.197 HD
BRANCH  48  50
HETATM   50  N10 UNL     1      16.001  -0.054   8.888  1.00  0.00     0.003 N 
HETATM   51  C30 UNL     1      17.231   0.703   9.026  1.00  0.00     0.301 C 
HETATM   52  C31 UNL     1      15.242   0.164  10.108  1.00  0.00     0.301 C 
HETATM   53  C32 UNL     1      16.348  -1.454   8.770  1.00  0.00     0.301 C 
ENDBRANCH  48  50
ENDBRANCH  45  46
ENDBRANCH   6  41
ENDBRANCH   4   5
ENDBRANCH   3   4
TORSDOF 14
ENDMDL
