MODEL 1
REMARK VINA RESULT: -10.968251632      0.000      0.000
REMARK  11 active torsions:
REMARK  status: ('A' for Active; 'I' for Inactive)
REMARK    1  A    between atoms: C2_2  and  C3_4 
REMARK    2  A    between atoms: C3_4  and  C4_5 
REMARK    3  A    between atoms: C4_5  and  C5_6 
REMARK    4  A    between atoms: C5_6  and  N1_7 
REMARK    5  A    between atoms: C5_6  and  C19_36 
REMARK       I    between atoms: N1_7  and  C6_9 
REMARK    6  A    between atoms: C6_9  and  C7_11 
REMARK    7  A    between atoms: C7_11  and  C8_12 
REMARK    8  A    between atoms: C8_12  and  N2_13 
REMARK       I    between atoms: N2_13  and  C9_15 
REMARK       I    between atoms: N4_17  and  C10_19 
REMARK       I    between atoms: C10_19  and  N5_20 
REMARK       I    between atoms: N8_25  and  C12_27 
REMARK       I    between atoms: C12_27  and  N9_29 
REMARK       I    between atoms: C19_36  and  N10_38 
REMARK    9  A    between atoms: N10_38  and  C20_40 
REMARK   10  A    between atoms: C20_40  and  C21_41 
REMARK   11  A    between atoms: C20_40  and  C27_49 
REMARK       I    between atoms: C21_41  and  N11_43 
ROOT
HETATM    1  N1  UNL     1       8.517   1.108   6.821  1.00  0.00    -0.326 N 
ATOM      2  H1  UNL     1       8.083   1.902   6.352  1.00  0.00     0.168 HD
HETATM    3  C6  UNL     1       9.760   1.392   7.397  1.00  0.00     0.223 C 
HETATM    4  O2  UNL     1      10.477   0.598   8.043  1.00  0.00    -0.273 OA
ENDROOT
BRANCH   3   5
HETATM    5  C7  UNL     1      10.311   2.801   7.228  1.00  0.00     0.122 C 
BRANCH   5   6
HETATM    6  C8  UNL     1      11.788   2.754   6.943  1.00  0.00     0.131 C 
BRANCH   6   7
HETATM    7  N2  UNL     1      12.475   3.895   7.530  1.00  0.00    -0.364 N 
HETATM    8  C9  UNL     1      13.011   3.745   8.821  1.00  0.00     0.202 C 
HETATM    9  N3  UNL     1      12.456   2.794   9.709  1.00  0.00    -0.063 NA
HETATM   10  N4  UNL     1      14.003   4.469   9.199  1.00  0.00    -0.163 N 
HETATM   11  C10 UNL     1      14.565   4.336  10.508  1.00  0.00     0.690 C 
ATOM     12  H4  UNL     1      14.397   5.153   8.553  1.00  0.00     0.187 HD
HETATM   13  N5  UNL     1      13.938   4.966  11.623  1.00  0.00    -0.165 N 
HETATM   14  N8  UNL     1      15.631   3.650  10.657  1.00  0.00    -0.141 N 
HETATM   15  C11 UNL     1      13.934   6.232  11.717  1.00  0.00     0.215 C 
ATOM     16  H5  UNL     1      13.492   4.399  12.343  1.00  0.00     0.186 HD
HETATM   17  N6  UNL     1      13.296   6.823  12.844  1.00  0.00    -0.066 NA
HETATM   18  N7  UNL     1      14.532   7.074  10.759  1.00  0.00    -0.066 NA
HETATM   19  C12 UNL     1      16.265   3.021   9.570  1.00  0.00     0.336 C 
ATOM     20  H8  UNL     1      16.034   3.556  11.590  1.00  0.00     0.189 HD
HETATM   21  O3  UNL     1      16.766   3.724   8.665  1.00  0.00    -0.246 OA
HETATM   22  N9  UNL     1      16.348   1.609   9.481  1.00  0.00    -0.334 N 
HETATM   23  C13 UNL     1      15.776   0.747  10.497  1.00  0.00     0.128 C 
HETATM   24  C18 UNL     1      17.019   0.946   8.368  1.00  0.00     0.128 C 
HETATM   25  C14 UNL     1      15.414  -0.578   9.868  1.00  0.00     0.024 C 
HETATM   26  C15 UNL     1      16.675  -1.292   9.417  1.00  0.00    -0.015 C 
HETATM   27  C16 UNL     1      17.252  -2.015  10.616  1.00  0.00     0.010 C 
HETATM   28  C17 UNL     1      17.697  -0.327   8.861  1.00  0.00     0.024 C 
ATOM     29  H2  UNL     1      12.566   4.775   7.021  1.00  0.00     0.162 HD
ENDBRANCH   6   7
ENDBRANCH   5   6
ENDBRANCH   3   5
BRANCH   1  30
HETATM   30  C5  UNL     1       7.753  -0.087   6.773  1.00  0.00     0.080 C 
BRANCH  30  31
HETATM   31  C4  UNL     1       6.256   0.055   6.761  1.00  0.00     0.070 C 
BRANCH  31  32
HETATM   32  C3  UNL     1       5.777   0.985   5.683  1.00  0.00     0.084 C 
BRANCH  32  33
HETATM   33  C2  UNL     1       4.828   0.261   4.803  1.00  0.00     0.123 C 
HETATM   34  C1  UNL     1       3.380   0.328   5.034  1.00  0.00     0.091 C 
HETATM   35  O1  UNL     1       5.278  -0.392   3.880  1.00  0.00    -0.298 OA
ENDBRANCH  32  33
ENDBRANCH  31  32
ENDBRANCH  30  31
BRANCH  30  36
HETATM   36  C19 UNL     1       8.292  -1.148   5.903  1.00  0.00     0.264 C 
HETATM   37  O4  UNL     1       8.473  -0.837   4.711  1.00  0.00    -0.266 OA
HETATM   38  N10 UNL     1       8.584  -2.418   6.395  1.00  0.00    -0.342 N 
ATOM     39  H10 UNL     1       8.393  -2.529   7.390  1.00  0.00     0.163 HD
BRANCH  38  40
HETATM   40  C20 UNL     1       9.098  -3.586   5.775  1.00  0.00     0.180 C 
BRANCH  40  41
HETATM   41  C21 UNL     1       8.237  -4.373   4.908  1.00  0.00     0.243 C 
HETATM   42  O5  UNL     1       7.590  -3.984   3.901  1.00  0.00    -0.271 OA
HETATM   43  N11 UNL     1       8.066  -5.781   5.198  1.00  0.00    -0.350 N 
HETATM   44  C22 UNL     1       8.680  -6.429   6.323  1.00  0.00     0.126 C 
HETATM   45  C26 UNL     1       7.242  -6.624   4.335  1.00  0.00     0.126 C 
HETATM   46  C23 UNL     1       8.107  -7.865   6.363  1.00  0.00     0.020 C 
HETATM   47  C24 UNL     1       8.669  -8.523   5.105  1.00  0.00     0.003 C 
HETATM   48  C25 UNL     1       7.891  -7.912   3.953  1.00  0.00     0.020 C 
ENDBRANCH  40  41
BRANCH  40  49
HETATM   49  C27 UNL     1      10.407  -3.327   5.049  1.00  0.00     0.009 C 
HETATM   50  C28 UNL     1      10.541  -4.178   3.815  1.00  0.00     0.012 C 
HETATM   51  C29 UNL     1      11.615  -3.453   5.954  1.00  0.00     0.012 C 
ENDBRANCH  40  49
ENDBRANCH  38  40
ENDBRANCH  30  36
ENDBRANCH   1  30
TORSDOF 11
ENDMDL
MODEL 2
REMARK VINA RESULT: -10.756105648      1.790      2.425
REMARK  11 active torsions:
REMARK  status: ('A' for Active; 'I' for Inactive)
REMARK    1  A    between atoms: C2_2  and  C3_4 
REMARK    2  A    between atoms: C3_4  and  C4_5 
REMARK    3  A    between atoms: C4_5  and  C5_6 
REMARK    4  A    between atoms: C5_6  and  N1_7 
REMARK    5  A    between atoms: C5_6  and  C19_36 
REMARK       I    between atoms: N1_7  and  C6_9 
REMARK    6  A    between atoms: C6_9  and  C7_11 
REMARK    7  A    between atoms: C7_11  and  C8_12 
REMARK    8  A    between atoms: C8_12  and  N2_13 
REMARK       I    between atoms: N2_13  and  C9_15 
REMARK       I    between atoms: N4_17  and  C10_19 
REMARK       I    between atoms: C10_19  and  N5_20 
REMARK       I    between atoms: N8_25  and  C12_27 
REMARK       I    between atoms: C12_27  and  N9_29 
REMARK       I    between atoms: C19_36  and  N10_38 
REMARK    9  A    between atoms: N10_38  and  C20_40 
REMARK   10  A    between atoms: C20_40  and  C21_41 
REMARK   11  A    between atoms: C20_40  and  C27_49 
REMARK       I    between atoms: C21_41  and  N11_43 
ROOT
HETATM    1  N1  UNL     1       9.253  -1.079   4.968  1.00  0.00    -0.326 N 
ATOM      2  H1  UNL     1       9.772  -1.442   4.168  1.00  0.00     0.168 HD
HETATM    3  C6  UNL     1       9.693   0.169   5.420  1.00  0.00     0.223 C 
HETATM    4  O2  UNL     1       9.209   0.830   6.363  1.00  0.00    -0.273 OA
ENDROOT
BRANCH   3   5
HETATM    5  C7  UNL     1      10.880   0.800   4.705  1.00  0.00     0.122 C 
BRANCH   5   6
HETATM    6  C8  UNL     1      12.085   0.816   5.605  1.00  0.00     0.131 C 
BRANCH   6   7
HETATM    7  N2  UNL     1      12.298   2.136   6.181  1.00  0.00    -0.364 N 
HETATM    8  C9  UNL     1      12.530   2.218   7.565  1.00  0.00     0.202 C 
HETATM    9  N3  UNL     1      12.042   1.205   8.423  1.00  0.00    -0.063 NA
HETATM   10  N4  UNL     1      13.184   3.209   8.054  1.00  0.00    -0.163 N 
HETATM   11  C10 UNL     1      13.434   3.316   9.459  1.00  0.00     0.690 C 
ATOM     12  H4  UNL     1      13.532   3.936   7.429  1.00  0.00     0.187 HD
HETATM   13  N5  UNL     1      12.419   3.813  10.329  1.00  0.00    -0.165 N 
HETATM   14  N8  UNL     1      14.571   2.962   9.915  1.00  0.00    -0.141 N 
HETATM   15  C11 UNL     1      12.068   5.032  10.265  1.00  0.00     0.215 C 
ATOM     16  H5  UNL     1      11.974   3.189  11.002  1.00  0.00     0.186 HD
HETATM   17  N6  UNL     1      11.052   5.489  11.149  1.00  0.00    -0.066 NA
HETATM   18  N7  UNL     1      12.642   5.947   9.361  1.00  0.00    -0.066 NA
HETATM   19  C12 UNL     1      15.586   2.469   9.073  1.00  0.00     0.336 C 
ATOM     20  H8  UNL     1      14.751   3.039  10.916  1.00  0.00     0.189 HD
HETATM   21  O3  UNL     1      16.091   3.228   8.217  1.00  0.00    -0.246 OA
HETATM   22  N9  UNL     1      16.046   1.133   9.177  1.00  0.00    -0.334 N 
HETATM   23  C13 UNL     1      15.488   0.209  10.146  1.00  0.00     0.128 C 
HETATM   24  C18 UNL     1      17.109   0.616   8.322  1.00  0.00     0.128 C 
HETATM   25  C14 UNL     1      15.638  -1.200   9.620  1.00  0.00     0.024 C 
HETATM   26  C15 UNL     1      17.110  -1.562   9.539  1.00  0.00    -0.015 C 
HETATM   27  C16 UNL     1      17.549  -2.025  10.912  1.00  0.00     0.010 C 
HETATM   28  C17 UNL     1      17.952  -0.387   9.100  1.00  0.00     0.024 C 
ATOM     29  H2  UNL     1      12.279   2.974   5.599  1.00  0.00     0.162 HD
ENDBRANCH   6   7
ENDBRANCH   5   6
ENDBRANCH   3   5
BRANCH   1  30
HETATM   30  C5  UNL     1       8.214  -1.932   5.424  1.00  0.00     0.080 C 
BRANCH  30  31
HETATM   31  C4  UNL     1       6.847  -1.728   4.830  1.00  0.00     0.070 C 
BRANCH  31  32
HETATM   32  C3  UNL     1       5.969  -0.870   5.694  1.00  0.00     0.084 C 
BRANCH  32  33
HETATM   33  C2  UNL     1       5.263   0.117   4.842  1.00  0.00     0.123 C 
HETATM   34  C1  UNL     1       5.116   1.515   5.267  1.00  0.00     0.091 C 
HETATM   35  O1  UNL     1       4.807  -0.257   3.778  1.00  0.00    -0.298 OA
ENDBRANCH  32  33
ENDBRANCH  31  32
ENDBRANCH  30  31
BRANCH  30  36
HETATM   36  C19 UNL     1       8.601  -3.337   5.646  1.00  0.00     0.264 C 
HETATM   37  O4  UNL     1       9.568  -3.521   6.409  1.00  0.00    -0.266 OA
HETATM   38  N10 UNL     1       7.917  -4.388   5.041  1.00  0.00    -0.342 N 
ATOM     39  H10 UNL     1       7.143  -4.090   4.449  1.00  0.00     0.163 HD
BRANCH  38  40
HETATM   40  C20 UNL     1       8.092  -5.796   5.093  1.00  0.00     0.180 C 
BRANCH  40  41
HETATM   41  C21 UNL     1       6.981  -6.640   5.498  1.00  0.00     0.243 C 
HETATM   42  O5  UNL     1       5.935  -6.905   4.850  1.00  0.00    -0.271 OA
HETATM   43  N11 UNL     1       7.033  -7.274   6.798  1.00  0.00    -0.350 N 
HETATM   44  C22 UNL     1       8.116  -7.080   7.721  1.00  0.00     0.126 C 
HETATM   45  C26 UNL     1       5.960  -8.163   7.236  1.00  0.00     0.126 C 
HETATM   46  C23 UNL     1       7.701  -7.783   9.034  1.00  0.00     0.020 C 
HETATM   47  C24 UNL     1       7.683  -9.266   8.669  1.00  0.00     0.003 C 
HETATM   48  C25 UNL     1       6.444  -9.452   7.813  1.00  0.00     0.020 C 
ENDBRANCH  40  41
BRANCH  40  49
HETATM   49  C27 UNL     1       8.678  -6.352   3.806  1.00  0.00     0.009 C 
HETATM   50  C28 UNL     1       9.303  -7.705   4.015  1.00  0.00     0.012 C 
HETATM   51  C29 UNL     1       9.632  -5.387   3.131  1.00  0.00     0.012 C 
ENDBRANCH  40  49
ENDBRANCH  38  40
ENDBRANCH  30  36
ENDBRANCH   1  30
TORSDOF 11
ENDMDL
MODEL 3
REMARK VINA RESULT: -10.677518544      1.543      1.760
REMARK  11 active torsions:
REMARK  status: ('A' for Active; 'I' for Inactive)
REMARK    1  A    between atoms: C2_2  and  C3_4 
REMARK    2  A    between atoms: C3_4  and  C4_5 
REMARK    3  A    between atoms: C4_5  and  C5_6 
REMARK    4  A    between atoms: C5_6  and  N1_7 
REMARK    5  A    between atoms: C5_6  and  C19_36 
REMARK       I    between atoms: N1_7  and  C6_9 
REMARK    6  A    between atoms: C6_9  and  C7_11 
REMARK    7  A    between atoms: C7_11  and  C8_12 
REMARK    8  A    between atoms: C8_12  and  N2_13 
REMARK       I    between atoms: N2_13  and  C9_15 
REMARK       I    between atoms: N4_17  and  C10_19 
REMARK       I    between atoms: C10_19  and  N5_20 
REMARK       I    between atoms: N8_25  and  C12_27 
REMARK       I    between atoms: C12_27  and  N9_29 
REMARK       I    between atoms: C19_36  and  N10_38 
REMARK    9  A    between atoms: N10_38  and  C20_40 
REMARK   10  A    between atoms: C20_40  and  C21_41 
REMARK   11  A    between atoms: C20_40  and  C27_49 
REMARK       I    between atoms: C21_41  and  N11_43 
ROOT
HETATM    1  N1  UNL     1       8.730  -0.111   5.616  1.00  0.00    -0.326 N 
ATOM      2  H1  UNL     1       8.292   0.740   5.264  1.00  0.00     0.168 HD
HETATM    3  C6  UNL     1      10.128  -0.097   5.572  1.00  0.00     0.223 C 
HETATM    4  O2  UNL     1      10.892  -1.005   5.964  1.00  0.00    -0.273 OA
ENDROOT
BRANCH   3   5
HETATM    5  C7  UNL     1      10.804   1.137   4.991  1.00  0.00     0.122 C 
BRANCH   5   6
HETATM    6  C8  UNL     1      12.220   1.242   5.490  1.00  0.00     0.131 C 
BRANCH   6   7
HETATM    7  N2  UNL     1      12.457   2.521   6.143  1.00  0.00    -0.364 N 
HETATM    8  C9  UNL     1      12.644   2.522   7.537  1.00  0.00     0.202 C 
HETATM    9  N3  UNL     1      12.092   1.483   8.322  1.00  0.00    -0.063 NA
HETATM   10  N4  UNL     1      13.314   3.462   8.100  1.00  0.00    -0.163 N 
HETATM   11  C10 UNL     1      13.518   3.485   9.516  1.00  0.00     0.690 C 
ATOM     12  H4  UNL     1      13.708   4.208   7.526  1.00  0.00     0.187 HD
HETATM   13  N5  UNL     1      12.491   3.972  10.377  1.00  0.00    -0.165 N 
HETATM   14  N8  UNL     1      14.627   3.068   9.989  1.00  0.00    -0.141 N 
HETATM   15  C11 UNL     1      12.185   5.204  10.368  1.00  0.00     0.215 C 
ATOM     16  H5  UNL     1      12.002   3.330  11.000  1.00  0.00     0.186 HD
HETATM   17  N6  UNL     1      11.154   5.650  11.241  1.00  0.00    -0.066 NA
HETATM   18  N7  UNL     1      12.820   6.145   9.533  1.00  0.00    -0.066 NA
HETATM   19  C12 UNL     1      15.652   2.584   9.156  1.00  0.00     0.336 C 
ATOM     20  H8  UNL     1      14.773   3.086  10.998  1.00  0.00     0.189 HD
HETATM   21  O3  UNL     1      16.212   3.368   8.358  1.00  0.00    -0.246 OA
HETATM   22  N9  UNL     1      16.063   1.228   9.202  1.00  0.00    -0.334 N 
HETATM   23  C13 UNL     1      15.440   0.275  10.101  1.00  0.00     0.128 C 
HETATM   24  C18 UNL     1      17.137   0.719   8.356  1.00  0.00     0.128 C 
HETATM   25  C14 UNL     1      15.561  -1.109   9.505  1.00  0.00     0.024 C 
HETATM   26  C15 UNL     1      17.021  -1.519   9.453  1.00  0.00    -0.015 C 
HETATM   27  C16 UNL     1      17.396  -2.068  10.813  1.00  0.00     0.010 C 
HETATM   28  C17 UNL     1      17.918  -0.353   9.106  1.00  0.00     0.024 C 
ATOM     29  H2  UNL     1      12.487   3.389   5.607  1.00  0.00     0.162 HD
ENDBRANCH   6   7
ENDBRANCH   5   6
ENDBRANCH   3   5
BRANCH   1  30
HETATM   30  C5  UNL     1       7.812  -1.098   6.060  1.00  0.00     0.080 C 
BRANCH  30  31
HETATM   31  C4  UNL     1       6.473  -0.618   6.551  1.00  0.00     0.070 C 
BRANCH  31  32
HETATM   32  C3  UNL     1       6.334   0.874   6.470  1.00  0.00     0.084 C 
BRANCH  32  33
HETATM   33  C2  UNL     1       5.308   1.213   5.454  1.00  0.00     0.123 C 
HETATM   34  C1  UNL     1       4.490   0.167   4.827  1.00  0.00     0.091 C 
HETATM   35  O1  UNL     1       5.158   2.381   5.150  1.00  0.00    -0.298 OA
ENDBRANCH  32  33
ENDBRANCH  31  32
ENDBRANCH  30  31
BRANCH  30  36
HETATM   36  C19 UNL     1       7.785  -2.340   5.268  1.00  0.00     0.264 C 
HETATM   37  O4  UNL     1       7.074  -2.319   4.246  1.00  0.00    -0.266 OA
HETATM   38  N10 UNL     1       8.518  -3.463   5.644  1.00  0.00    -0.342 N 
ATOM     39  H10 UNL     1       9.060  -3.335   6.498  1.00  0.00     0.163 HD
BRANCH  38  40
HETATM   40  C20 UNL     1       8.655  -4.751   5.065  1.00  0.00     0.180 C 
BRANCH  40  41
HETATM   41  C21 UNL     1       7.482  -5.595   4.914  1.00  0.00     0.243 C 
HETATM   42  O5  UNL     1       6.554  -5.487   4.070  1.00  0.00    -0.271 OA
HETATM   43  N11 UNL     1       7.311  -6.709   5.822  1.00  0.00    -0.350 N 
HETATM   44  C22 UNL     1       8.228  -6.998   6.889  1.00  0.00     0.126 C 
HETATM   45  C26 UNL     1       6.170  -7.611   5.688  1.00  0.00     0.126 C 
HETATM   46  C23 UNL     1       7.593  -8.142   7.712  1.00  0.00     0.020 C 
HETATM   47  C24 UNL     1       7.618  -9.338   6.763  1.00  0.00     0.003 C 
HETATM   48  C25 UNL     1       6.535  -9.057   5.737  1.00  0.00     0.020 C 
ENDBRANCH  40  41
BRANCH  40  49
HETATM   49  C27 UNL     1       9.396  -4.712   3.739  1.00  0.00     0.009 C 
HETATM   50  C28 UNL     1       9.625  -6.093   3.185  1.00  0.00     0.012 C 
HETATM   51  C29 UNL     1      10.681  -3.913   3.809  1.00  0.00     0.012 C 
ENDBRANCH  40  49
ENDBRANCH  38  40
ENDBRANCH  30  36
ENDBRANCH   1  30
TORSDOF 11
ENDMDL
MODEL 4
REMARK VINA RESULT: -10.648167400      1.038      1.328
REMARK  11 active torsions:
REMARK  status: ('A' for Active; 'I' for Inactive)
REMARK    1  A    between atoms: C2_2  and  C3_4 
REMARK    2  A    between atoms: C3_4  and  C4_5 
REMARK    3  A    between atoms: C4_5  and  C5_6 
REMARK    4  A    between atoms: C5_6  and  N1_7 
REMARK    5  A    between atoms: C5_6  and  C19_36 
REMARK       I    between atoms: N1_7  and  C6_9 
REMARK    6  A    between atoms: C6_9  and  C7_11 
REMARK    7  A    between atoms: C7_11  and  C8_12 
REMARK    8  A    between atoms: C8_12  and  N2_13 
REMARK       I    between atoms: N2_13  and  C9_15 
REMARK       I    between atoms: N4_17  and  C10_19 
REMARK       I    between atoms: C10_19  and  N5_20 
REMARK       I    between atoms: N8_25  and  C12_27 
REMARK       I    between atoms: C12_27  and  N9_29 
REMARK       I    between atoms: C19_36  and  N10_38 
REMARK    9  A    between atoms: N10_38  and  C20_40 
REMARK   10  A    between atoms: C20_40  and  C21_41 
REMARK   11  A    between atoms: C20_40  and  C27_49 
REMARK       I    between atoms: C21_41  and  N11_43 
ROOT
HETATM    1  N1  UNL     1      10.312   1.288   7.053  1.00  0.00    -0.326 N 
ATOM      2  H1  UNL     1      10.209   1.855   7.895  1.00  0.00     0.168 HD
HETATM    3  C6  UNL     1      11.475   1.554   6.322  1.00  0.00     0.223 C 
HETATM    4  O2  UNL     1      11.838   0.980   5.273  1.00  0.00    -0.273 OA
ENDROOT
BRANCH   3   5
HETATM    5  C7  UNL     1      12.400   2.646   6.839  1.00  0.00     0.122 C 
BRANCH   5   6
HETATM    6  C8  UNL     1      11.599   3.822   7.328  1.00  0.00     0.131 C 
BRANCH   6   7
HETATM    7  N2  UNL     1      12.445   4.794   8.005  1.00  0.00    -0.364 N 
HETATM    8  C9  UNL     1      13.032   4.414   9.225  1.00  0.00     0.202 C 
HETATM    9  N3  UNL     1      12.422   3.417  10.021  1.00  0.00    -0.063 NA
HETATM   10  N4  UNL     1      14.120   4.971   9.621  1.00  0.00    -0.163 N 
HETATM   11  C10 UNL     1      14.737   4.603  10.859  1.00  0.00     0.690 C 
ATOM     12  H4  UNL     1      14.553   5.690   9.042  1.00  0.00     0.187 HD
HETATM   13  N5  UNL     1      14.249   5.140  12.087  1.00  0.00    -0.165 N 
HETATM   14  N8  UNL     1      15.723   3.794  10.843  1.00  0.00    -0.141 N 
HETATM   15  C11 UNL     1      14.396   6.375  12.343  1.00  0.00     0.215 C 
ATOM     16  H5  UNL     1      13.782   4.532  12.759  1.00  0.00     0.186 HD
HETATM   17  N6  UNL     1      13.895   6.873  13.578  1.00  0.00    -0.066 NA
HETATM   18  N7  UNL     1      15.033   7.269  11.459  1.00  0.00    -0.066 NA
HETATM   19  C12 UNL     1      16.218   3.253   9.642  1.00  0.00     0.336 C 
ATOM     20  H8  UNL     1      16.164   3.532  11.725  1.00  0.00     0.189 HD
HETATM   21  O3  UNL     1      16.744   4.014   8.801  1.00  0.00    -0.246 OA
HETATM   22  N9  UNL     1      16.133   1.865   9.368  1.00  0.00    -0.334 N 
HETATM   23  C13 UNL     1      15.523   0.940  10.304  1.00  0.00     0.128 C 
HETATM   24  C18 UNL     1      16.659   1.291   8.134  1.00  0.00     0.128 C 
HETATM   25  C14 UNL     1      14.977  -0.242   9.537  1.00  0.00     0.024 C 
HETATM   26  C15 UNL     1      16.120  -1.019   8.910  1.00  0.00    -0.015 C 
HETATM   27  C16 UNL     1      16.676  -1.955   9.963  1.00  0.00     0.010 C 
HETATM   28  C17 UNL     1      17.213  -0.102   8.411  1.00  0.00     0.024 C 
ATOM     29  H2  UNL     1      12.607   5.719   7.608  1.00  0.00     0.162 HD
ENDBRANCH   6   7
ENDBRANCH   5   6
ENDBRANCH   3   5
BRANCH   1  30
HETATM   30  C5  UNL     1       9.249   0.373   6.834  1.00  0.00     0.080 C 
BRANCH  30  31
HETATM   31  C4  UNL     1       8.225   0.747   5.798  1.00  0.00     0.070 C 
BRANCH  31  32
HETATM   32  C3  UNL     1       6.822   0.676   6.328  1.00  0.00     0.084 C 
BRANCH  32  33
HETATM   33  C2  UNL     1       5.978  -0.081   5.372  1.00  0.00     0.123 C 
HETATM   34  C1  UNL     1       4.656   0.416   4.972  1.00  0.00     0.091 C 
HETATM   35  O1  UNL     1       6.407  -1.129   4.925  1.00  0.00    -0.298 OA
ENDBRANCH  32  33
ENDBRANCH  31  32
ENDBRANCH  30  31
BRANCH  30  36
HETATM   36  C19 UNL     1       9.625  -1.052   6.864  1.00  0.00     0.264 C 
HETATM   37  O4  UNL     1      10.182  -1.446   7.905  1.00  0.00    -0.266 OA
HETATM   38  N10 UNL     1       9.365  -1.899   5.790  1.00  0.00    -0.342 N 
ATOM     39  H10 UNL     1       8.899  -1.442   5.007  1.00  0.00     0.163 HD
BRANCH  38  40
HETATM   40  C20 UNL     1       9.625  -3.278   5.578  1.00  0.00     0.180 C 
BRANCH  40  41
HETATM   41  C21 UNL     1       8.732  -4.051   4.731  1.00  0.00     0.243 C 
HETATM   42  O5  UNL     1       8.190  -3.697   3.652  1.00  0.00    -0.271 OA
HETATM   43  N11 UNL     1       8.391  -5.399   5.135  1.00  0.00    -0.350 N 
HETATM   44  C22 UNL     1       8.865  -5.994   6.353  1.00  0.00     0.126 C 
HETATM   45  C26 UNL     1       7.530  -6.231   4.300  1.00  0.00     0.126 C 
HETATM   46  C23 UNL     1       8.137  -7.352   6.486  1.00  0.00     0.020 C 
HETATM   47  C24 UNL     1       8.694  -8.185   5.333  1.00  0.00     0.003 C 
HETATM   48  C25 UNL     1       8.054  -7.611   4.081  1.00  0.00     0.020 C 
ENDBRANCH  40  41
BRANCH  40  49
HETATM   49  C27 UNL     1      11.055  -3.534   5.134  1.00  0.00     0.009 C 
HETATM   50  C28 UNL     1      11.925  -3.979   6.279  1.00  0.00     0.012 C 
HETATM   51  C29 UNL     1      11.658  -2.359   4.392  1.00  0.00     0.012 C 
ENDBRANCH  40  49
ENDBRANCH  38  40
ENDBRANCH  30  36
ENDBRANCH   1  30
TORSDOF 11
ENDMDL
MODEL 5
REMARK VINA RESULT: -10.504473807      2.501      5.668
REMARK  11 active torsions:
REMARK  status: ('A' for Active; 'I' for Inactive)
REMARK    1  A    between atoms: C2_2  and  C3_4 
REMARK    2  A    between atoms: C3_4  and  C4_5 
REMARK    3  A    between atoms: C4_5  and  C5_6 
REMARK    4  A    between atoms: C5_6  and  N1_7 
REMARK    5  A    between atoms: C5_6  and  C19_36 
REMARK       I    between atoms: N1_7  and  C6_9 
REMARK    6  A    between atoms: C6_9  and  C7_11 
REMARK    7  A    between atoms: C7_11  and  C8_12 
REMARK    8  A    between atoms: C8_12  and  N2_13 
REMARK       I    between atoms: N2_13  and  C9_15 
REMARK       I    between atoms: N4_17  and  C10_19 
REMARK       I    between atoms: C10_19  and  N5_20 
REMARK       I    between atoms: N8_25  and  C12_27 
REMARK       I    between atoms: C12_27  and  N9_29 
REMARK       I    between atoms: C19_36  and  N10_38 
REMARK    9  A    between atoms: N10_38  and  C20_40 
REMARK   10  A    between atoms: C20_40  and  C21_41 
REMARK   11  A    between atoms: C20_40  and  C27_49 
REMARK       I    between atoms: C21_41  and  N11_43 
ROOT
HETATM    1  N1  UNL     1       9.920  -3.804   4.933  1.00  0.00    -0.326 N 
ATOM      2  H1  UNL     1       9.439  -3.883   5.829  1.00  0.00     0.168 HD
HETATM    3  C6  UNL     1      11.222  -3.300   5.023  1.00  0.00     0.223 C 
HETATM    4  O2  UNL     1      12.020  -3.132   4.077  1.00  0.00    -0.273 OA
ENDROOT
BRANCH   3   5
HETATM    5  C7  UNL     1      11.734  -2.911   6.403  1.00  0.00     0.122 C 
BRANCH   5   6
HETATM    6  C8  UNL     1      10.619  -2.332   7.231  1.00  0.00     0.131 C 
BRANCH   6   7
HETATM    7  N2  UNL     1      10.489  -0.899   7.013  1.00  0.00    -0.364 N 
HETATM    8  C9  UNL     1      11.091  -0.036   7.946  1.00  0.00     0.202 C 
HETATM    9  N3  UNL     1      11.310  -0.475   9.273  1.00  0.00    -0.063 NA
HETATM   10  N4  UNL     1      11.442   1.150   7.600  1.00  0.00    -0.163 N 
HETATM   11  C10 UNL     1      12.056   2.047   8.530  1.00  0.00     0.690 C 
ATOM     12  H4  UNL     1      11.279   1.459   6.641  1.00  0.00     0.187 HD
HETATM   13  N5  UNL     1      11.253   2.771   9.460  1.00  0.00    -0.165 N 
HETATM   14  N8  UNL     1      13.324   2.186   8.512  1.00  0.00    -0.141 N 
HETATM   15  C11 UNL     1      10.470   3.682   9.048  1.00  0.00     0.215 C 
ATOM     16  H5  UNL     1      11.307   2.557  10.455  1.00  0.00     0.186 HD
HETATM   17  N6  UNL     1       9.684   4.381  10.006  1.00  0.00    -0.066 NA
HETATM   18  N7  UNL     1      10.347   4.029   7.688  1.00  0.00    -0.066 NA
HETATM   19  C12 UNL     1      14.133   1.480   7.603  1.00  0.00     0.336 C 
ATOM     20  H8  UNL     1      13.762   2.826   9.174  1.00  0.00     0.189 HD
HETATM   21  O3  UNL     1      14.024   1.714   6.379  1.00  0.00    -0.246 OA
HETATM   22  N9  UNL     1      15.069   0.512   8.046  1.00  0.00    -0.334 N 
HETATM   23  C13 UNL     1      15.229   0.195   9.452  1.00  0.00     0.128 C 
HETATM   24  C18 UNL     1      15.926  -0.213   7.115  1.00  0.00     0.128 C 
HETATM   25  C14 UNL     1      15.725  -1.226   9.580  1.00  0.00     0.024 C 
HETATM   26  C15 UNL     1      17.121  -1.336   8.995  1.00  0.00    -0.015 C 
HETATM   27  C16 UNL     1      18.104  -0.893  10.059  1.00  0.00     0.010 C 
HETATM   28  C17 UNL     1      17.280  -0.478   7.761  1.00  0.00     0.024 C 
ATOM     29  H2  UNL     1       9.977  -0.532   6.211  1.00  0.00     0.162 HD
ENDBRANCH   6   7
ENDBRANCH   5   6
ENDBRANCH   3   5
BRANCH   1  30
HETATM   30  C5  UNL     1       9.149  -4.224   3.818  1.00  0.00     0.080 C 
BRANCH  30  31
HETATM   31  C4  UNL     1       9.286  -5.660   3.390  1.00  0.00     0.070 C 
BRANCH  31  32
HETATM   32  C3  UNL     1       9.191  -6.614   4.545  1.00  0.00     0.084 C 
BRANCH  32  33
HETATM   33  C2  UNL     1       8.811  -7.955   4.038  1.00  0.00     0.123 C 
HETATM   34  C1  UNL     1       9.649  -9.130   4.308  1.00  0.00     0.091 C 
HETATM   35  O1  UNL     1       7.786  -8.061   3.392  1.00  0.00    -0.298 OA
ENDBRANCH  32  33
ENDBRANCH  31  32
ENDBRANCH  30  31
BRANCH  30  36
HETATM   36  C19 UNL     1       7.783  -3.674   3.750  1.00  0.00     0.264 C 
HETATM   37  O4  UNL     1       7.495  -3.059   2.706  1.00  0.00    -0.266 OA
HETATM   38  N10 UNL     1       6.875  -3.841   4.792  1.00  0.00    -0.342 N 
ATOM     39  H10 UNL     1       7.244  -4.372   5.581  1.00  0.00     0.163 HD
BRANCH  38  40
HETATM   40  C20 UNL     1       5.532  -3.415   4.965  1.00  0.00     0.180 C 
BRANCH  40  41
HETATM   41  C21 UNL     1       5.099  -2.160   4.374  1.00  0.00     0.243 C 
HETATM   42  O5  UNL     1       4.270  -1.989   3.443  1.00  0.00    -0.271 OA
HETATM   43  N11 UNL     1       5.662  -0.927   4.882  1.00  0.00    -0.350 N 
HETATM   44  C22 UNL     1       6.657  -0.888   5.917  1.00  0.00     0.126 C 
HETATM   45  C26 UNL     1       5.231   0.363   4.349  1.00  0.00     0.126 C 
HETATM   46  C23 UNL     1       7.106   0.587   6.034  1.00  0.00     0.020 C 
HETATM   47  C24 UNL     1       5.871   1.308   6.570  1.00  0.00     0.003 C 
HETATM   48  C25 UNL     1       4.905   1.370   5.400  1.00  0.00     0.020 C 
ENDBRANCH  40  41
BRANCH  40  49
HETATM   49  C27 UNL     1       4.531  -4.495   4.594  1.00  0.00     0.009 C 
HETATM   50  C28 UNL     1       3.284  -4.415   5.433  1.00  0.00     0.012 C 
HETATM   51  C29 UNL     1       5.135  -5.885   4.612  1.00  0.00     0.012 C 
ENDBRANCH  40  49
ENDBRANCH  38  40
ENDBRANCH  30  36
ENDBRANCH   1  30
TORSDOF 11
ENDMDL
