MODEL 1
REMARK VINA RESULT: -10.310699927      0.000      0.000
REMARK  11 active torsions:
REMARK  status: ('A' for Active; 'I' for Inactive)
REMARK    1  A    between atoms: C2_2  and  C3_3 
REMARK    2  A    between atoms: C3_3  and  N1_5 
REMARK       I    between atoms: N1_5  and  C5_7 
REMARK    3  A    between atoms: C5_7  and  C6_9 
REMARK    4  A    between atoms: C6_9  and  C7_10 
REMARK    5  A    between atoms: C7_10  and  C8_11 
REMARK    6  A    between atoms: C8_11  and  C9_12 
REMARK    7  A    between atoms: C9_12  and  C10_13 
REMARK    8  A    between atoms: C10_13  and  N2_14 
REMARK       I    between atoms: C11_16  and  N3_17 
REMARK       I    between atoms: C11_16  and  N6_24 
REMARK    9  A    between atoms: N3_17  and  N4_19 
REMARK       I    between atoms: N6_24  and  C12_26 
REMARK       I    between atoms: C12_26  and  N7_28 
REMARK       I    between atoms: N8_33  and  C17_35 
REMARK   10  A    between atoms: C17_35  and  C18_37 
REMARK   11  A    between atoms: C27_49  and  C28_50 
ROOT
HETATM    1  C6  UNL     1      12.512   2.029   8.286  1.00  0.00     0.080 C 
HETATM    2  N8  UNL     1      11.918   1.000   8.084  1.00  0.00    -0.326 N 
ATOM      3  H8  UNL     1      12.493   0.280   8.521  1.00  0.00     0.168 HD
HETATM    4  C17 UNL     1      10.869   0.331   7.566  1.00  0.00     0.226 C 
HETATM    5  O3  UNL     1      10.388  -0.627   8.279  1.00  0.00    -0.273 OA
ENDROOT
BRANCH   1   6
HETATM    6  C5  UNL     1      13.792   1.970   9.038  1.00  0.00     0.264 C 
HETATM    7  N1  UNL     1      14.467   0.758   9.110  1.00  0.00    -0.352 N 
ATOM      8  H1  UNL     1      14.050  -0.042   8.634  1.00  0.00     0.163 HD
HETATM    9  O1  UNL     1      14.253   2.993   9.601  1.00  0.00    -0.266 OA
BRANCH   7  10
HETATM   10  C3  UNL     1      15.721   0.545   9.810  1.00  0.00     0.080 C 
HETATM   11  C4  UNL     1      15.658  -0.531  10.836  1.00  0.00     0.032 C 
BRANCH  10  12
HETATM   12  C2  UNL     1      16.754   0.214   8.718  1.00  0.00     0.020 C 
HETATM   13  C1  UNL     1      16.220  -0.826   7.783  1.00  0.00     0.007 C 
ENDBRANCH  10  12
ENDBRANCH   7  10
ENDBRANCH   1   6
BRANCH   1  14
HETATM   14  C7  UNL     1      12.017   3.354   7.798  1.00  0.00     0.063 C 
BRANCH  14  15
HETATM   15  C8  UNL     1      10.653   3.682   8.336  1.00  0.00     0.008 C 
BRANCH  15  16
HETATM   16  C9  UNL     1      10.721   3.485   9.858  1.00  0.00     0.020 C 
BRANCH  16  17
HETATM   17  C10 UNL     1      11.084   4.847  10.411  1.00  0.00     0.138 C 
BRANCH  17  18
HETATM   18  N2  UNL     1      12.158   4.689  11.345  1.00  0.00    -0.225 N 
HETATM   19  C11 UNL     1      13.244   5.354  11.189  1.00  0.00     0.697 C 
HETATM   20  N3  UNL     1      13.341   6.236  10.077  1.00  0.00    -0.118 N 
HETATM   21  N6  UNL     1      14.310   5.191  12.118  1.00  0.00    -0.140 N 
ATOM     22  H3  UNL     1      13.082   7.217  10.190  1.00  0.00     0.207 HD
HETATM   23  C12 UNL     1      15.531   5.898  12.000  1.00  0.00     0.336 C 
ATOM     24  H6  UNL     1      14.191   4.542  12.896  1.00  0.00     0.189 HD
HETATM   25  O2  UNL     1      15.641   6.701  11.015  1.00  0.00    -0.246 OA
HETATM   26  N7  UNL     1      16.577   5.725  12.926  1.00  0.00    -0.334 N 
HETATM   27  C13 UNL     1      16.569   4.849  14.067  1.00  0.00     0.127 C 
HETATM   28  C16 UNL     1      17.859   6.391  12.914  1.00  0.00     0.127 C 
HETATM   29  C14 UNL     1      17.954   4.196  13.960  1.00  0.00     0.022 C 
HETATM   30  C15 UNL     1      18.801   5.362  13.510  1.00  0.00     0.022 C 
ATOM     31  H2  UNL     1      12.060   4.049  12.132  1.00  0.00     0.177 HD
BRANCH  20  32
HETATM   32  N4  UNL     1      13.784   5.781   8.835  1.00  0.00    -0.235 N 
HETATM   33  N5  UNL     1      14.974   5.960   8.429  1.00  0.00    -0.330 N 
ATOM     34  H52 UNL     1      15.617   6.457   9.046  1.00  0.00     0.178 HD
ATOM     35  H51 UNL     1      15.298   5.628   7.521  1.00  0.00     0.178 HD
ATOM     36  H4  UNL     1      13.128   5.286   8.231  1.00  0.00     0.208 HD
ENDBRANCH  20  32
ENDBRANCH  17  18
ENDBRANCH  16  17
ENDBRANCH  15  16
ENDBRANCH  14  15
ENDBRANCH   1  14
BRANCH   4  37
HETATM   37  C18 UNL     1      10.223   0.583   6.285  1.00  0.00     0.083 C 
HETATM   38  C19 UNL     1      10.915  -0.050   5.108  1.00  0.00     0.014 C 
HETATM   39  C20 UNL     1      11.759  -1.222   5.459  1.00  0.00     0.002 C 
HETATM   40  C21 UNL     1      11.548  -2.303   4.425  1.00  0.00     0.020 C 
HETATM   41  C22 UNL     1      10.398  -3.168   4.956  1.00  0.00     0.122 C 
HETATM   42  N9  UNL     1       9.188  -2.592   4.442  1.00  0.00    -0.361 N 
HETATM   43  C23 UNL     1       8.196  -1.912   5.161  1.00  0.00     0.222 C 
ATOM     44  H9  UNL     1       9.032  -2.688   3.439  1.00  0.00     0.162 HD
HETATM   45  O4  UNL     1       7.021  -1.971   4.625  1.00  0.00    -0.273 OA
HETATM   46  C24 UNL     1       8.364  -1.168   6.418  1.00  0.00     0.083 C 
HETATM   47  C25 UNL     1       6.991  -1.192   7.116  1.00  0.00     0.015 C 
HETATM   48  C30 UNL     1       8.756   0.246   6.366  1.00  0.00     0.012 C 
HETATM   49  C26 UNL     1       6.315   0.116   7.177  1.00  0.00     0.016 C 
HETATM   50  C27 UNL     1       6.531   1.104   6.104  1.00  0.00     0.087 C 
HETATM   51  C29 UNL     1       7.880   0.980   5.412  1.00  0.00     0.021 C 
BRANCH  50  52
HETATM   52  C28 UNL     1       5.406   1.229   5.129  1.00  0.00     0.177 C 
HETATM   53  O5  UNL     1       4.873   2.344   4.986  1.00  0.00    -0.648 OA
HETATM   54  O6  UNL     1       4.965   0.138   4.405  1.00  0.00    -0.648 OA
ENDBRANCH  50  52
ENDBRANCH   4  37
TORSDOF 11
ENDMDL
MODEL 2
REMARK VINA RESULT: -10.213431734      1.163      1.391
REMARK  11 active torsions:
REMARK  status: ('A' for Active; 'I' for Inactive)
REMARK    1  A    between atoms: C2_2  and  C3_3 
REMARK    2  A    between atoms: C3_3  and  N1_5 
REMARK       I    between atoms: N1_5  and  C5_7 
REMARK    3  A    between atoms: C5_7  and  C6_9 
REMARK    4  A    between atoms: C6_9  and  C7_10 
REMARK    5  A    between atoms: C7_10  and  C8_11 
REMARK    6  A    between atoms: C8_11  and  C9_12 
REMARK    7  A    between atoms: C9_12  and  C10_13 
REMARK    8  A    between atoms: C10_13  and  N2_14 
REMARK       I    between atoms: C11_16  and  N3_17 
REMARK       I    between atoms: C11_16  and  N6_24 
REMARK    9  A    between atoms: N3_17  and  N4_19 
REMARK       I    between atoms: N6_24  and  C12_26 
REMARK       I    between atoms: C12_26  and  N7_28 
REMARK       I    between atoms: N8_33  and  C17_35 
REMARK   10  A    between atoms: C17_35  and  C18_37 
REMARK   11  A    between atoms: C27_49  and  C28_50 
ROOT
HETATM    1  C6  UNL     1      12.820   1.546   8.274  1.00  0.00     0.080 C 
HETATM    2  N8  UNL     1      12.093   0.599   8.108  1.00  0.00    -0.326 N 
ATOM      3  H8  UNL     1      12.578  -0.180   8.552  1.00  0.00     0.168 HD
HETATM    4  C17 UNL     1      10.955   0.062   7.626  1.00  0.00     0.226 C 
HETATM    5  O3  UNL     1      10.368  -0.809   8.370  1.00  0.00    -0.273 OA
ENDROOT
BRANCH   1   6
HETATM    6  C5  UNL     1      14.097   1.336   9.005  1.00  0.00     0.264 C 
HETATM    7  N1  UNL     1      14.645   0.061   9.034  1.00  0.00    -0.352 N 
ATOM      8  H1  UNL     1      14.143  -0.680   8.544  1.00  0.00     0.163 HD
HETATM    9  O1  UNL     1      14.667   2.291   9.587  1.00  0.00    -0.266 OA
BRANCH   7  10
HETATM   10  C3  UNL     1      15.880  -0.298   9.709  1.00  0.00     0.080 C 
HETATM   11  C4  UNL     1      15.685  -0.746  11.115  1.00  0.00     0.032 C 
BRANCH  10  12
HETATM   12  C2  UNL     1      16.512  -1.410   8.852  1.00  0.00     0.020 C 
HETATM   13  C1  UNL     1      17.111  -0.839   7.604  1.00  0.00     0.007 C 
ENDBRANCH  10  12
ENDBRANCH   7  10
ENDBRANCH   1   6
BRANCH   1  14
HETATM   14  C7  UNL     1      12.492   2.913   7.763  1.00  0.00     0.063 C 
BRANCH  14  15
HETATM   15  C8  UNL     1      11.169   3.406   8.275  1.00  0.00     0.008 C 
BRANCH  15  16
HETATM   16  C9  UNL     1      10.999   4.839   7.745  1.00  0.00     0.020 C 
BRANCH  16  17
HETATM   17  C10 UNL     1      12.286   5.545   8.113  1.00  0.00     0.138 C 
BRANCH  17  18
HETATM   18  N2  UNL     1      12.386   5.597   9.541  1.00  0.00    -0.225 N 
HETATM   19  C11 UNL     1      13.500   5.909  10.094  1.00  0.00     0.697 C 
HETATM   20  N3  UNL     1      14.612   6.197   9.255  1.00  0.00    -0.118 N 
HETATM   21  N6  UNL     1      13.594   5.956  11.513  1.00  0.00    -0.140 N 
ATOM     22  H3  UNL     1      14.796   7.161   8.977  1.00  0.00     0.207 HD
HETATM   23  C12 UNL     1      14.796   6.297  12.181  1.00  0.00     0.336 C 
ATOM     24  H6  UNL     1      12.767   5.737  12.069  1.00  0.00     0.189 HD
HETATM   25  O2  UNL     1      15.807   6.565  11.451  1.00  0.00    -0.246 OA
HETATM   26  N7  UNL     1      14.874   6.337  13.585  1.00  0.00    -0.334 N 
HETATM   27  C13 UNL     1      13.807   6.051  14.508  1.00  0.00     0.127 C 
HETATM   28  C16 UNL     1      16.036   6.674  14.376  1.00  0.00     0.127 C 
HETATM   29  C14 UNL     1      14.522   5.162  15.535  1.00  0.00     0.022 C 
HETATM   30  C15 UNL     1      15.868   5.837  15.631  1.00  0.00     0.022 C 
ATOM     31  H2  UNL     1      11.571   5.386  10.117  1.00  0.00     0.177 HD
BRANCH  20  32
HETATM   32  N4  UNL     1      15.454   5.180   8.804  1.00  0.00    -0.235 N 
HETATM   33  N5  UNL     1      16.276   4.587   9.570  1.00  0.00    -0.330 N 
ATOM     34  H52 UNL     1      16.309   4.878  10.548  1.00  0.00     0.178 HD
ATOM     35  H51 UNL     1      16.892   3.844   9.241  1.00  0.00     0.178 HD
ATOM     36  H4  UNL     1      15.407   4.901   7.824  1.00  0.00     0.208 HD
ENDBRANCH  20  32
ENDBRANCH  17  18
ENDBRANCH  16  17
ENDBRANCH  15  16
ENDBRANCH  14  15
ENDBRANCH   1  14
BRANCH   4  37
HETATM   37  C18 UNL     1      10.321   0.368   6.351  1.00  0.00     0.083 C 
HETATM   38  C19 UNL     1      10.990  -0.263   5.159  1.00  0.00     0.014 C 
HETATM   39  C20 UNL     1      11.789  -1.474   5.483  1.00  0.00     0.002 C 
HETATM   40  C21 UNL     1      11.538  -2.522   4.423  1.00  0.00     0.020 C 
HETATM   41  C22 UNL     1      10.356  -3.355   4.934  1.00  0.00     0.122 C 
HETATM   42  N9  UNL     1       9.169  -2.721   4.433  1.00  0.00    -0.361 N 
HETATM   43  C23 UNL     1       8.202  -2.021   5.167  1.00  0.00     0.222 C 
ATOM     44  H9  UNL     1       9.011  -2.788   3.428  1.00  0.00     0.162 HD
HETATM   45  O4  UNL     1       7.027  -2.023   4.630  1.00  0.00    -0.273 OA
HETATM   46  C24 UNL     1       8.397  -1.313   6.441  1.00  0.00     0.083 C 
HETATM   47  C25 UNL     1       7.023  -1.302   7.138  1.00  0.00     0.015 C 
HETATM   48  C30 UNL     1       8.842   0.086   6.422  1.00  0.00     0.012 C 
HETATM   49  C26 UNL     1       6.397   0.029   7.229  1.00  0.00     0.016 C 
HETATM   50  C27 UNL     1       6.652   1.033   6.180  1.00  0.00     0.087 C 
HETATM   51  C29 UNL     1       7.996   0.874   5.486  1.00  0.00     0.021 C 
BRANCH  50  52
HETATM   52  C28 UNL     1       5.533   1.224   5.207  1.00  0.00     0.177 C 
HETATM   53  O5  UNL     1       5.071   2.369   5.061  1.00  0.00    -0.648 OA
HETATM   54  O6  UNL     1       5.024   0.159   4.489  1.00  0.00    -0.648 OA
ENDBRANCH  50  52
ENDBRANCH   4  37
TORSDOF 11
ENDMDL
MODEL 3
REMARK VINA RESULT: -9.862952573      1.899      2.546
REMARK  11 active torsions:
REMARK  status: ('A' for Active; 'I' for Inactive)
REMARK    1  A    between atoms: C2_2  and  C3_3 
REMARK    2  A    between atoms: C3_3  and  N1_5 
REMARK       I    between atoms: N1_5  and  C5_7 
REMARK    3  A    between atoms: C5_7  and  C6_9 
REMARK    4  A    between atoms: C6_9  and  C7_10 
REMARK    5  A    between atoms: C7_10  and  C8_11 
REMARK    6  A    between atoms: C8_11  and  C9_12 
REMARK    7  A    between atoms: C9_12  and  C10_13 
REMARK    8  A    between atoms: C10_13  and  N2_14 
REMARK       I    between atoms: C11_16  and  N3_17 
REMARK       I    between atoms: C11_16  and  N6_24 
REMARK    9  A    between atoms: N3_17  and  N4_19 
REMARK       I    between atoms: N6_24  and  C12_26 
REMARK       I    between atoms: C12_26  and  N7_28 
REMARK       I    between atoms: N8_33  and  C17_35 
REMARK   10  A    between atoms: C17_35  and  C18_37 
REMARK   11  A    between atoms: C27_49  and  C28_50 
ROOT
HETATM    1  C6  UNL     1      12.785   1.703   8.221  1.00  0.00     0.080 C 
HETATM    2  N8  UNL     1      12.005   0.790   8.109  1.00  0.00    -0.326 N 
ATOM      3  H8  UNL     1      12.447   0.012   8.598  1.00  0.00     0.168 HD
HETATM    4  C17 UNL     1      10.838   0.291   7.657  1.00  0.00     0.226 C 
HETATM    5  O3  UNL     1      10.205  -0.501   8.449  1.00  0.00    -0.273 OA
ENDROOT
BRANCH   1   6
HETATM    6  C5  UNL     1      14.048   1.465   8.965  1.00  0.00     0.264 C 
HETATM    7  N1  UNL     1      14.597   0.189   8.955  1.00  0.00    -0.352 N 
ATOM      8  H1  UNL     1      14.103  -0.532   8.428  1.00  0.00     0.163 HD
HETATM    9  O1  UNL     1      14.608   2.396   9.593  1.00  0.00    -0.266 OA
BRANCH   7  10
HETATM   10  C3  UNL     1      15.820  -0.197   9.636  1.00  0.00     0.080 C 
HETATM   11  C4  UNL     1      15.609  -0.628  11.045  1.00  0.00     0.032 C 
BRANCH  10  12
HETATM   12  C2  UNL     1      16.426  -1.331   8.790  1.00  0.00     0.020 C 
HETATM   13  C1  UNL     1      17.157  -0.776   7.607  1.00  0.00     0.007 C 
ENDBRANCH  10  12
ENDBRANCH   7  10
ENDBRANCH   1   6
BRANCH   1  14
HETATM   14  C7  UNL     1      12.533   3.054   7.631  1.00  0.00     0.063 C 
BRANCH  14  15
HETATM   15  C8  UNL     1      11.267   3.673   8.153  1.00  0.00     0.008 C 
BRANCH  15  16
HETATM   16  C9  UNL     1      11.454   5.196   8.067  1.00  0.00     0.020 C 
BRANCH  16  17
HETATM   17  C10 UNL     1      12.853   5.446   8.590  1.00  0.00     0.138 C 
BRANCH  17  18
HETATM   18  N2  UNL     1      12.784   6.440   9.619  1.00  0.00    -0.225 N 
HETATM   19  C11 UNL     1      13.097   6.137  10.825  1.00  0.00     0.697 C 
HETATM   20  N3  UNL     1      13.508   4.802  11.099  1.00  0.00    -0.118 N 
HETATM   21  N6  UNL     1      13.024   7.128  11.843  1.00  0.00    -0.140 N 
ATOM     22  H3  UNL     1      14.501   4.567  11.074  1.00  0.00     0.207 HD
HETATM   23  C12 UNL     1      13.360   6.853  13.192  1.00  0.00     0.336 C 
ATOM     24  H6  UNL     1      12.720   8.069  11.594  1.00  0.00     0.189 HD
HETATM   25  O2  UNL     1      13.737   5.665  13.463  1.00  0.00    -0.246 OA
HETATM   26  N7  UNL     1      13.281   7.844  14.188  1.00  0.00    -0.334 N 
HETATM   27  C13 UNL     1      12.866   9.209  14.003  1.00  0.00     0.127 C 
HETATM   28  C16 UNL     1      13.601   7.686  15.589  1.00  0.00     0.127 C 
HETATM   29  C14 UNL     1      11.925   9.407  15.199  1.00  0.00     0.022 C 
HETATM   30  C15 UNL     1      12.650   8.645  16.281  1.00  0.00     0.022 C 
ATOM     31  H2  UNL     1      12.487   7.389   9.392  1.00  0.00     0.177 HD
BRANCH  20  32
HETATM   32  N4  UNL     1      12.574   3.811  11.400  1.00  0.00    -0.235 N 
HETATM   33  N5  UNL     1      11.468   4.068  11.969  1.00  0.00    -0.330 N 
ATOM     34  H52 UNL     1      11.270   5.040  12.207  1.00  0.00     0.178 HD
ATOM     35  H51 UNL     1      10.785   3.343  12.189  1.00  0.00     0.178 HD
ATOM     36  H4  UNL     1      12.787   2.844  11.155  1.00  0.00     0.208 HD
ENDBRANCH  20  32
ENDBRANCH  17  18
ENDBRANCH  16  17
ENDBRANCH  15  16
ENDBRANCH  14  15
ENDBRANCH   1  14
BRANCH   4  37
HETATM   37  C18 UNL     1      10.221   0.557   6.365  1.00  0.00     0.083 C 
HETATM   38  C19 UNL     1      10.939  -0.060   5.195  1.00  0.00     0.014 C 
HETATM   39  C20 UNL     1      11.777  -1.235   5.550  1.00  0.00     0.002 C 
HETATM   40  C21 UNL     1      11.591  -2.304   4.498  1.00  0.00     0.020 C 
HETATM   41  C22 UNL     1      10.432  -3.177   4.993  1.00  0.00     0.122 C 
HETATM   42  N9  UNL     1       9.232  -2.596   4.461  1.00  0.00    -0.361 N 
HETATM   43  C23 UNL     1       8.223  -1.927   5.165  1.00  0.00     0.222 C 
ATOM     44  H9  UNL     1       9.098  -2.681   3.453  1.00  0.00     0.162 HD
HETATM   45  O4  UNL     1       7.060  -1.981   4.603  1.00  0.00    -0.273 OA
HETATM   46  C24 UNL     1       8.362  -1.198   6.435  1.00  0.00     0.083 C 
HETATM   47  C25 UNL     1       6.974  -1.233   7.102  1.00  0.00     0.015 C 
HETATM   48  C30 UNL     1       8.752   0.217   6.409  1.00  0.00     0.012 C 
HETATM   49  C26 UNL     1       6.295   0.073   7.165  1.00  0.00     0.016 C 
HETATM   50  C27 UNL     1       6.532   1.075   6.109  1.00  0.00     0.087 C 
HETATM   51  C29 UNL     1       7.897   0.961   5.445  1.00  0.00     0.021 C 
BRANCH  50  52
HETATM   52  C28 UNL     1       5.428   1.210   5.111  1.00  0.00     0.177 C 
HETATM   53  O5  UNL     1       4.877   2.318   4.991  1.00  0.00    -0.648 OA
HETATM   54  O6  UNL     1       5.027   0.135   4.341  1.00  0.00    -0.648 OA
ENDBRANCH  50  52
ENDBRANCH   4  37
TORSDOF 11
ENDMDL
MODEL 4
REMARK VINA RESULT: -9.823684644      3.220     11.648
REMARK  11 active torsions:
REMARK  status: ('A' for Active; 'I' for Inactive)
REMARK    1  A    between atoms: C2_2  and  C3_3 
REMARK    2  A    between atoms: C3_3  and  N1_5 
REMARK       I    between atoms: N1_5  and  C5_7 
REMARK    3  A    between atoms: C5_7  and  C6_9 
REMARK    4  A    between atoms: C6_9  and  C7_10 
REMARK    5  A    between atoms: C7_10  and  C8_11 
REMARK    6  A    between atoms: C8_11  and  C9_12 
REMARK    7  A    between atoms: C9_12  and  C10_13 
REMARK    8  A    between atoms: C10_13  and  N2_14 
REMARK       I    between atoms: C11_16  and  N3_17 
REMARK       I    between atoms: C11_16  and  N6_24 
REMARK    9  A    between atoms: N3_17  and  N4_19 
REMARK       I    between atoms: N6_24  and  C12_26 
REMARK       I    between atoms: C12_26  and  N7_28 
REMARK       I    between atoms: N8_33  and  C17_35 
REMARK   10  A    between atoms: C17_35  and  C18_37 
REMARK   11  A    between atoms: C27_49  and  C28_50 
ROOT
HETATM    1  C6  UNL     1      10.038  -1.660   6.116  1.00  0.00     0.080 C 
HETATM    2  N8  UNL     1      10.510  -0.952   6.970  1.00  0.00    -0.326 N 
ATOM      3  H8  UNL     1       9.704  -0.574   7.467  1.00  0.00     0.168 HD
HETATM    4  C17 UNL     1      11.577  -0.415   7.593  1.00  0.00     0.226 C 
HETATM    5  O3  UNL     1      11.511  -0.325   8.875  1.00  0.00    -0.273 OA
ENDROOT
BRANCH   1   6
HETATM    6  C5  UNL     1       8.559  -1.773   6.031  1.00  0.00     0.264 C 
HETATM    7  N1  UNL     1       7.792  -0.629   6.210  1.00  0.00    -0.352 N 
ATOM      8  H1  UNL     1       8.286   0.246   6.391  1.00  0.00     0.163 HD
HETATM    9  O1  UNL     1       8.012  -2.880   5.804  1.00  0.00    -0.266 OA
BRANCH   7  10
HETATM   10  C3  UNL     1       6.342  -0.583   6.160  1.00  0.00     0.080 C 
HETATM   11  C4  UNL     1       5.765   0.690   6.673  1.00  0.00     0.032 C 
BRANCH  10  12
HETATM   12  C2  UNL     1       5.971  -0.808   4.683  1.00  0.00     0.020 C 
HETATM   13  C1  UNL     1       4.548  -0.417   4.429  1.00  0.00     0.007 C 
ENDBRANCH  10  12
ENDBRANCH   7  10
ENDBRANCH   1   6
BRANCH   1  14
HETATM   14  C7  UNL     1      10.881  -2.413   5.138  1.00  0.00     0.063 C 
BRANCH  14  15
HETATM   15  C8  UNL     1      11.730  -3.457   5.807  1.00  0.00     0.008 C 
BRANCH  15  16
HETATM   16  C9  UNL     1      10.857  -4.103   6.893  1.00  0.00     0.020 C 
BRANCH  16  17
HETATM   17  C10 UNL     1      10.467  -5.453   6.328  1.00  0.00     0.138 C 
BRANCH  17  18
HETATM   18  N2  UNL     1       9.054  -5.624   6.490  1.00  0.00    -0.225 N 
HETATM   19  C11 UNL     1       8.316  -5.854   5.467  1.00  0.00     0.697 C 
HETATM   20  N3  UNL     1       8.939  -5.931   4.190  1.00  0.00    -0.118 N 
HETATM   21  N6  UNL     1       6.912  -6.020   5.633  1.00  0.00    -0.140 N 
ATOM     22  H3  UNL     1       9.240  -6.837   3.831  1.00  0.00     0.207 HD
HETATM   23  C12 UNL     1       6.047  -6.278   4.542  1.00  0.00     0.336 C 
ATOM     24  H6  UNL     1       6.516  -5.952   6.570  1.00  0.00     0.189 HD
HETATM   25  O2  UNL     1       6.581  -6.358   3.386  1.00  0.00    -0.246 OA
HETATM   26  N7  UNL     1       4.660  -6.439   4.722  1.00  0.00    -0.334 N 
HETATM   27  C13 UNL     1       3.948  -6.365   5.970  1.00  0.00     0.127 C 
HETATM   28  C16 UNL     1       3.683  -6.709   3.693  1.00  0.00     0.127 C 
HETATM   29  C14 UNL     1       2.743  -5.498   5.582  1.00  0.00     0.022 C 
HETATM   30  C15 UNL     1       2.431  -6.017   4.200  1.00  0.00     0.022 C 
ATOM     31  H2  UNL     1       8.636  -5.564   7.418  1.00  0.00     0.177 HD
BRANCH  20  32
HETATM   32  N4  UNL     1       9.145  -4.785   3.421  1.00  0.00    -0.235 N 
HETATM   33  N5  UNL     1       8.185  -4.079   2.980  1.00  0.00    -0.330 N 
ATOM     34  H52 UNL     1       7.235  -4.375   3.206  1.00  0.00     0.178 HD
ATOM     35  H51 UNL     1       8.335  -3.241   2.418  1.00  0.00     0.178 HD
ATOM     36  H4  UNL     1      10.101  -4.503   3.205  1.00  0.00     0.208 HD
ENDBRANCH  20  32
ENDBRANCH  17  18
ENDBRANCH  16  17
ENDBRANCH  15  16
ENDBRANCH  14  15
ENDBRANCH   1  14
BRANCH   4  37
HETATM   37  C18 UNL     1      12.797   0.073   6.964  1.00  0.00     0.083 C 
HETATM   38  C19 UNL     1      12.654   1.410   6.289  1.00  0.00     0.014 C 
HETATM   39  C20 UNL     1      11.538   2.239   6.815  1.00  0.00     0.002 C 
HETATM   40  C21 UNL     1      12.010   3.668   6.947  1.00  0.00     0.020 C 
HETATM   41  C22 UNL     1      12.566   3.793   8.371  1.00  0.00     0.122 C 
HETATM   42  N9  UNL     1      13.959   3.454   8.291  1.00  0.00    -0.361 N 
HETATM   43  C23 UNL     1      14.590   2.311   8.801  1.00  0.00     0.222 C 
ATOM     44  H9  UNL     1      14.560   4.122   7.808  1.00  0.00     0.162 HD
HETATM   45  O4  UNL     1      15.840   2.478   9.082  1.00  0.00    -0.273 OA
HETATM   46  C24 UNL     1      13.981   0.993   9.035  1.00  0.00     0.083 C 
HETATM   47  C25 UNL     1      14.810   0.332  10.153  1.00  0.00     0.015 C 
HETATM   48  C30 UNL     1      13.945   0.016   7.939  1.00  0.00     0.012 C 
HETATM   49  C26 UNL     1      15.610  -0.825   9.714  1.00  0.00     0.016 C 
HETATM   50  C27 UNL     1      16.136  -0.875   8.338  1.00  0.00     0.087 C 
HETATM   51  C29 UNL     1      15.296  -0.109   7.327  1.00  0.00     0.021 C 
BRANCH  50  52
HETATM   52  C28 UNL     1      17.593  -0.567   8.210  1.00  0.00     0.177 C 
HETATM   53  O5  UNL     1      18.214  -1.055   7.250  1.00  0.00    -0.648 OA
HETATM   54  O6  UNL     1      18.236   0.237   9.133  1.00  0.00    -0.648 OA
ENDBRANCH  50  52
ENDBRANCH   4  37
TORSDOF 11
ENDMDL
MODEL 5
REMARK VINA RESULT: -9.812375595      0.990      1.290
REMARK  11 active torsions:
REMARK  status: ('A' for Active; 'I' for Inactive)
REMARK    1  A    between atoms: C2_2  and  C3_3 
REMARK    2  A    between atoms: C3_3  and  N1_5 
REMARK       I    between atoms: N1_5  and  C5_7 
REMARK    3  A    between atoms: C5_7  and  C6_9 
REMARK    4  A    between atoms: C6_9  and  C7_10 
REMARK    5  A    between atoms: C7_10  and  C8_11 
REMARK    6  A    between atoms: C8_11  and  C9_12 
REMARK    7  A    between atoms: C9_12  and  C10_13 
REMARK    8  A    between atoms: C10_13  and  N2_14 
REMARK       I    between atoms: C11_16  and  N3_17 
REMARK       I    between atoms: C11_16  and  N6_24 
REMARK    9  A    between atoms: N3_17  and  N4_19 
REMARK       I    between atoms: N6_24  and  C12_26 
REMARK       I    between atoms: C12_26  and  N7_28 
REMARK       I    between atoms: N8_33  and  C17_35 
REMARK   10  A    between atoms: C17_35  and  C18_37 
REMARK   11  A    between atoms: C27_49  and  C28_50 
ROOT
HETATM    1  C6  UNL     1      13.094   1.014   8.107  1.00  0.00     0.080 C 
HETATM    2  N8  UNL     1      12.184   0.229   8.021  1.00  0.00    -0.326 N 
ATOM      3  H8  UNL     1      12.524  -0.614   8.484  1.00  0.00     0.168 HD
HETATM    4  C17 UNL     1      10.938  -0.085   7.614  1.00  0.00     0.226 C 
HETATM    5  O3  UNL     1      10.226  -0.786   8.426  1.00  0.00    -0.273 OA
ENDROOT
BRANCH   1   6
HETATM    6  C5  UNL     1      14.338   0.579   8.795  1.00  0.00     0.264 C 
HETATM    7  N1  UNL     1      15.562   0.925   8.238  1.00  0.00    -0.352 N 
ATOM      8  H1  UNL     1      15.551   1.470   7.376  1.00  0.00     0.163 HD
HETATM    9  O1  UNL     1      14.283  -0.088   9.856  1.00  0.00    -0.266 OA
BRANCH   7  10
HETATM   10  C3  UNL     1      16.857   0.570   8.791  1.00  0.00     0.080 C 
HETATM   11  C4  UNL     1      17.537  -0.535   8.062  1.00  0.00     0.032 C 
BRANCH  10  12
HETATM   12  C2  UNL     1      17.693   1.862   8.750  1.00  0.00     0.020 C 
HETATM   13  C1  UNL     1      16.945   2.996   9.380  1.00  0.00     0.007 C 
ENDBRANCH  10  12
ENDBRANCH   7  10
ENDBRANCH   1   6
BRANCH   1  14
HETATM   14  C7  UNL     1      13.023   2.395   7.540  1.00  0.00     0.063 C 
BRANCH  14  15
HETATM   15  C8  UNL     1      13.031   3.449   8.611  1.00  0.00     0.008 C 
BRANCH  15  16
HETATM   16  C9  UNL     1      11.572   3.636   9.056  1.00  0.00     0.020 C 
BRANCH  16  17
HETATM   17  C10 UNL     1      11.656   4.437  10.338  1.00  0.00     0.138 C 
BRANCH  17  18
HETATM   18  N2  UNL     1      12.919   4.172  10.960  1.00  0.00    -0.225 N 
HETATM   19  C11 UNL     1      13.728   5.137  11.203  1.00  0.00     0.697 C 
HETATM   20  N3  UNL     1      13.333   6.454  10.840  1.00  0.00    -0.118 N 
HETATM   21  N6  UNL     1      14.982   4.867  11.819  1.00  0.00    -0.140 N 
ATOM     22  H3  UNL     1      12.860   7.044  11.525  1.00  0.00     0.207 HD
HETATM   23  C12 UNL     1      15.916   5.891  12.114  1.00  0.00     0.336 C 
ATOM     24  H6  UNL     1      15.218   3.903  12.055  1.00  0.00     0.189 HD
HETATM   25  O2  UNL     1      15.583   7.083  11.804  1.00  0.00    -0.246 OA
HETATM   26  N7  UNL     1      17.153   5.609  12.721  1.00  0.00    -0.334 N 
HETATM   27  C13 UNL     1      17.636   4.310  13.110  1.00  0.00     0.127 C 
HETATM   28  C16 UNL     1      18.179   6.563  13.075  1.00  0.00     0.127 C 
HETATM   29  C14 UNL     1      19.081   4.355  12.594  1.00  0.00     0.022 C 
HETATM   30  C15 UNL     1      19.468   5.780  12.909  1.00  0.00     0.022 C 
ATOM     31  H2  UNL     1      13.174   3.216  11.210  1.00  0.00     0.177 HD
BRANCH  20  32
HETATM   32  N4  UNL     1      13.583   6.952   9.561  1.00  0.00    -0.235 N 
HETATM   33  N5  UNL     1      14.654   6.694   8.927  1.00  0.00    -0.330 N 
ATOM     34  H52 UNL     1      15.345   6.100   9.384  1.00  0.00     0.178 HD
ATOM     35  H51 UNL     1      14.837   7.058   7.992  1.00  0.00     0.178 HD
ATOM     36  H4  UNL     1      12.881   7.545   9.119  1.00  0.00     0.208 HD
ENDBRANCH  20  32
ENDBRANCH  17  18
ENDBRANCH  16  17
ENDBRANCH  15  16
ENDBRANCH  14  15
ENDBRANCH   1  14
BRANCH   4  37
HETATM   37  C18 UNL     1      10.315   0.289   6.352  1.00  0.00     0.083 C 
HETATM   38  C19 UNL     1      10.971  -0.308   5.136  1.00  0.00     0.014 C 
HETATM   39  C20 UNL     1      11.738  -1.551   5.410  1.00  0.00     0.002 C 
HETATM   40  C21 UNL     1      11.464  -2.548   4.308  1.00  0.00     0.020 C 
HETATM   41  C22 UNL     1      10.261  -3.372   4.781  1.00  0.00     0.122 C 
HETATM   42  N9  UNL     1       9.091  -2.689   4.306  1.00  0.00    -0.361 N 
HETATM   43  C23 UNL     1       8.140  -1.996   5.067  1.00  0.00     0.222 C 
ATOM     44  H9  UNL     1       8.933  -2.710   3.299  1.00  0.00     0.162 HD
HETATM   45  O4  UNL     1       6.966  -1.947   4.529  1.00  0.00    -0.273 OA
HETATM   46  C24 UNL     1       8.349  -1.347   6.370  1.00  0.00     0.083 C 
HETATM   47  C25 UNL     1       6.974  -1.331   7.065  1.00  0.00     0.015 C 
HETATM   48  C30 UNL     1       8.829   0.040   6.410  1.00  0.00     0.012 C 
HETATM   49  C26 UNL     1       6.381   0.010   7.211  1.00  0.00     0.016 C 
HETATM   50  C27 UNL     1       6.663   1.051   6.204  1.00  0.00     0.087 C 
HETATM   51  C29 UNL     1       8.005   0.888   5.506  1.00  0.00     0.021 C 
BRANCH  50  52
HETATM   52  C28 UNL     1       5.552   1.309   5.239  1.00  0.00     0.177 C 
HETATM   53  O5  UNL     1       5.165   2.481   5.089  1.00  0.00    -0.648 OA
HETATM   54  O6  UNL     1       4.966   0.275   4.533  1.00  0.00    -0.648 OA
ENDBRANCH  50  52
ENDBRANCH   4  37
TORSDOF 11
ENDMDL
