MODEL 1
REMARK VINA RESULT: -8.301640134      0.000      0.000
REMARK  13 active torsions:
REMARK  status: ('A' for Active; 'I' for Inactive)
REMARK    1  A    between atoms: C2_2  and  C3_3 
REMARK    2  A    between atoms: C3_3  and  C4_4 
REMARK    3  A    between atoms: C6_11  and  C7_12 
REMARK    4  A    between atoms: C7_12  and  C8_13 
REMARK    5  A    between atoms: C8_13  and  N3_14 
REMARK    6  A    between atoms: N3_14  and  C11_17 
REMARK    7  A    between atoms: C11_17  and  C12_18 
REMARK    8  A    between atoms: C12_18  and  N4_19 
REMARK    9  A    between atoms: C17_27  and  C18_28 
REMARK   10  A    between atoms: C18_28  and  C19_29 
REMARK   11  A    between atoms: C23_36  and  C24_37 
REMARK   12  A    between atoms: C24_37  and  C25_38 
REMARK   13  A    between atoms: C28_43  and  O4_44 
ROOT
HETATM    1  C4  UNL     1      15.679   0.161   8.903  1.00  0.00     0.194 C 
HETATM    2  N1  UNL     1      14.569  -0.652   8.567  1.00  0.00    -0.320 N 
ATOM      3  H1  UNL     1      14.672  -1.455   7.947  1.00  0.00     0.181 HD
HETATM    4  N2  UNL     1      13.355  -0.323   9.101  1.00  0.00    -0.272 N 
ATOM      5  H2  UNL     1      13.381   0.133  10.014  1.00  0.00     0.189 HD
HETATM    6  C5  UNL     1      12.075  -0.530   8.560  1.00  0.00     0.258 C 
HETATM    7  O1  UNL     1      11.166  -0.795   9.433  1.00  0.00    -0.269 OA
HETATM    8  C6  UNL     1      11.648  -0.487   7.168  1.00  0.00     0.180 C 
HETATM    9  N5  UNL     1      12.167   0.574   6.359  1.00  0.00    -0.342 N 
ATOM     10  H5  UNL     1      13.036   0.386   5.859  1.00  0.00     0.163 HD
HETATM   11  C16 UNL     1      11.596   1.861   6.182  1.00  0.00     0.268 C 
HETATM   12  O2  UNL     1      12.053   2.549   5.236  1.00  0.00    -0.266 OA
HETATM   13  C17 UNL     1      10.534   2.440   7.011  1.00  0.00     0.099 C 
HETATM   14  N6  UNL     1      10.815   3.753   7.558  1.00  0.00    -0.321 N 
ATOM     15  H6  UNL     1      10.005   4.371   7.542  1.00  0.00     0.169 HD
HETATM   16  C22 UNL     1      11.920   4.341   8.087  1.00  0.00     0.245 C 
HETATM   17  O3  UNL     1      12.401   5.370   7.460  1.00  0.00    -0.271 OA
HETATM   18  C23 UNL     1      12.754   4.024   9.326  1.00  0.00     0.176 C 
HETATM   19  N7  UNL     1      13.935   3.319   8.878  1.00  0.00    -0.359 N 
ATOM     20  H7  UNL     1      13.679   2.492   8.339  1.00  0.00     0.162 HD
HETATM   21  C28 UNL     1      15.293   3.438   8.965  1.00  0.00     0.135 C 
HETATM   22  C29 UNL     1      16.309   3.141   9.995  1.00  0.00     0.155 C 
HETATM   23  C30 UNL     1      16.580   4.344  10.873  1.00  0.00     0.041 C 
HETATM   24  N8  UNL     1      16.130   1.923  10.739  1.00  0.00    -0.348 N 
ATOM     25  H8  UNL     1      16.282   1.995  11.745  1.00  0.00     0.163 HD
HETATM   26  C31 UNL     1      15.775   0.659  10.271  1.00  0.00     0.242 C 
HETATM   27  O5  UNL     1      15.488  -0.211  11.180  1.00  0.00    -0.271 OA
ENDROOT
BRANCH   8  28
HETATM   28  C7  UNL     1      12.048  -1.833   6.538  1.00  0.00     0.063 C 
BRANCH  28  29
HETATM   29  C8  UNL     1      11.015  -2.893   6.926  1.00  0.00     0.239 C 
BRANCH  29  30
HETATM   30  N3  UNL     1      10.849  -3.861   5.864  1.00  0.00    -0.073 N 
HETATM   31  C9  UNL     1      11.663  -3.445   4.726  1.00  0.00     0.272 C 
HETATM   32  C10 UNL     1      11.188  -5.201   6.289  1.00  0.00     0.272 C 
BRANCH  30  33
HETATM   33  C11 UNL     1       9.461  -3.761   5.454  1.00  0.00     0.264 C 
BRANCH  33  34
HETATM   34  C12 UNL     1       8.789  -5.115   5.478  1.00  0.00     0.264 C 
BRANCH  34  35
HETATM   35  N4  UNL     1       8.340  -5.494   4.151  1.00  0.00    -0.077 N 
HETATM   36  C13 UNL     1       9.144  -6.561   3.632  1.00  0.00     0.271 C 
HETATM   37  C14 UNL     1       6.961  -5.920   4.261  1.00  0.00     0.271 C 
HETATM   38  C15 UNL     1       8.373  -4.367   3.236  1.00  0.00     0.271 C 
ENDBRANCH  34  35
ENDBRANCH  33  34
ENDBRANCH  30  33
ENDBRANCH  29  30
ENDBRANCH  28  29
ENDBRANCH   8  28
BRANCH  13  39
HETATM   39  C18 UNL     1       9.142   2.272   6.549  1.00  0.00     0.012 C 
BRANCH  39  40
HETATM   40  C19 UNL     1       8.464   0.984   6.519  1.00  0.00     0.002 C 
HETATM   41  C20 UNL     1       8.717   0.031   5.416  1.00  0.00     0.013 C 
HETATM   42  C21 UNL     1       6.931   1.098   6.644  1.00  0.00     0.013 C 
ENDBRANCH  39  40
ENDBRANCH  13  39
BRANCH   1  43
HETATM   43  C3  UNL     1      16.928  -0.729   8.700  1.00  0.00     0.062 C 
BRANCH  43  44
HETATM   44  C2  UNL     1      18.175   0.039   8.847  1.00  0.00    -0.034 C 
HETATM   45  C1  UNL     1      19.284  -0.564   9.225  1.00  0.00     0.007 C 
ENDBRANCH  43  44
ENDBRANCH   1  43
BRANCH  18  46
HETATM   46  C24 UNL     1      11.900   3.328  10.331  1.00  0.00     0.038 C 
BRANCH  46  47
HETATM   47  C25 UNL     1      11.269   4.200  11.387  1.00  0.00    -0.020 C 
HETATM   48  C26 UNL     1      11.972   5.528  11.519  1.00  0.00     0.009 C 
HETATM   49  C27 UNL     1       9.872   4.547  10.817  1.00  0.00     0.009 C 
ENDBRANCH  46  47
ENDBRANCH  18  46
BRANCH  21  50
HETATM   50  O4  UNL     1      15.876   3.928   7.890  1.00  0.00    -0.348 OA
ATOM     51  H4  UNL     1      16.579   4.544   8.063  1.00  0.00     0.219 HD
ENDBRANCH  21  50
TORSDOF 13
ENDMDL
MODEL 2
REMARK VINA RESULT: -7.067609598      4.623      8.138
REMARK  13 active torsions:
REMARK  status: ('A' for Active; 'I' for Inactive)
REMARK    1  A    between atoms: C2_2  and  C3_3 
REMARK    2  A    between atoms: C3_3  and  C4_4 
REMARK    3  A    between atoms: C6_11  and  C7_12 
REMARK    4  A    between atoms: C7_12  and  C8_13 
REMARK    5  A    between atoms: C8_13  and  N3_14 
REMARK    6  A    between atoms: N3_14  and  C11_17 
REMARK    7  A    between atoms: C11_17  and  C12_18 
REMARK    8  A    between atoms: C12_18  and  N4_19 
REMARK    9  A    between atoms: C17_27  and  C18_28 
REMARK   10  A    between atoms: C18_28  and  C19_29 
REMARK   11  A    between atoms: C23_36  and  C24_37 
REMARK   12  A    between atoms: C24_37  and  C25_38 
REMARK   13  A    between atoms: C28_43  and  O4_44 
ROOT
HETATM    1  C4  UNL     1      19.808   7.056  11.934  1.00  0.00     0.194 C 
HETATM    2  N1  UNL     1      19.239   5.824  11.525  1.00  0.00    -0.320 N 
ATOM      3  H1  UNL     1      19.438   5.431  10.605  1.00  0.00     0.181 HD
HETATM    4  N2  UNL     1      18.415   5.181  12.405  1.00  0.00    -0.272 N 
ATOM      5  H2  UNL     1      18.617   5.333  13.393  1.00  0.00     0.189 HD
HETATM    6  C5  UNL     1      17.326   4.338  12.128  1.00  0.00     0.258 C 
HETATM    7  O1  UNL     1      17.176   3.371  12.967  1.00  0.00    -0.269 OA
HETATM    8  C6  UNL     1      16.363   4.408  11.037  1.00  0.00     0.180 C 
HETATM    9  N5  UNL     1      15.855   5.702  10.698  1.00  0.00    -0.342 N 
ATOM     10  H5  UNL     1      16.369   6.224   9.987  1.00  0.00     0.163 HD
HETATM   11  C16 UNL     1      14.711   6.334  11.250  1.00  0.00     0.268 C 
HETATM   12  O2  UNL     1      14.282   7.344  10.637  1.00  0.00    -0.266 OA
HETATM   13  C17 UNL     1      14.007   5.907  12.462  1.00  0.00     0.099 C 
HETATM   14  N6  UNL     1      13.807   6.938  13.463  1.00  0.00    -0.321 N 
ATOM     15  H6  UNL     1      12.890   6.887  13.907  1.00  0.00     0.169 HD
HETATM   16  C22 UNL     1      14.570   7.956  13.938  1.00  0.00     0.245 C 
HETATM   17  O3  UNL     1      14.131   9.163  13.751  1.00  0.00    -0.271 OA
HETATM   18  C23 UNL     1      15.903   7.975  14.684  1.00  0.00     0.176 C 
HETATM   19  N7  UNL     1      16.928   8.299  13.716  1.00  0.00    -0.359 N 
ATOM     20  H7  UNL     1      16.909   7.642  12.936  1.00  0.00     0.162 HD
HETATM   21  C28 UNL     1      17.915   9.228  13.543  1.00  0.00     0.135 C 
HETATM   22  C29 UNL     1      19.279   9.422  14.076  1.00  0.00     0.155 C 
HETATM   23  C30 UNL     1      19.274  10.291  15.315  1.00  0.00     0.041 C 
HETATM   24  N8  UNL     1      20.087   8.241  14.214  1.00  0.00    -0.348 N 
ATOM     25  H8  UNL     1      20.616   8.167  15.082  1.00  0.00     0.163 HD
HETATM   26  C31 UNL     1      20.245   7.182  13.319  1.00  0.00     0.242 C 
HETATM   27  O5  UNL     1      20.874   6.154  13.780  1.00  0.00    -0.271 OA
ENDROOT
BRANCH   8  28
HETATM   28  C7  UNL     1      17.048   3.803   9.799  1.00  0.00     0.063 C 
BRANCH  28  29
HETATM   29  C8  UNL     1      16.035   2.951   9.032  1.00  0.00     0.239 C 
BRANCH  29  30
HETATM   30  N3  UNL     1      16.414   1.555   9.056  1.00  0.00    -0.073 N 
HETATM   31  C9  UNL     1      17.825   1.452   8.700  1.00  0.00     0.272 C 
HETATM   32  C10 UNL     1      16.151   0.940  10.339  1.00  0.00     0.272 C 
BRANCH  30  33
HETATM   33  C11 UNL     1      15.659   0.923   7.992  1.00  0.00     0.264 C 
BRANCH  33  34
HETATM   34  C12 UNL     1      14.520   0.098   8.548  1.00  0.00     0.264 C 
BRANCH  34  35
HETATM   35  N4  UNL     1      13.331   0.238   7.729  1.00  0.00    -0.077 N 
HETATM   36  C13 UNL     1      13.209  -0.866   6.823  1.00  0.00     0.271 C 
HETATM   37  C14 UNL     1      12.189   0.278   8.618  1.00  0.00     0.271 C 
HETATM   38  C15 UNL     1      13.342   1.484   6.983  1.00  0.00     0.271 C 
ENDBRANCH  34  35
ENDBRANCH  33  34
ENDBRANCH  30  33
ENDBRANCH  29  30
ENDBRANCH  28  29
ENDBRANCH   8  28
BRANCH  13  39
HETATM   39  C18 UNL     1      12.852   5.004  12.297  1.00  0.00     0.012 C 
BRANCH  39  40
HETATM   40  C19 UNL     1      12.199   4.773  11.017  1.00  0.00     0.002 C 
HETATM   41  C20 UNL     1      10.723   4.713  10.930  1.00  0.00     0.013 C 
HETATM   42  C21 UNL     1      12.723   3.524  10.280  1.00  0.00     0.013 C 
ENDBRANCH  39  40
ENDBRANCH  13  39
BRANCH   1  43
HETATM   43  C3  UNL     1      21.086   7.232  11.080  1.00  0.00     0.062 C 
BRANCH  43  44
HETATM   44  C2  UNL     1      21.295   8.636  10.693  1.00  0.00    -0.034 C 
HETATM   45  C1  UNL     1      20.265   9.402  10.395  1.00  0.00     0.007 C 
ENDBRANCH  43  44
ENDBRANCH   1  43
BRANCH  18  46
HETATM   46  C24 UNL     1      16.068   6.695  15.430  1.00  0.00     0.038 C 
BRANCH  46  47
HETATM   47  C25 UNL     1      17.485   6.291  15.754  1.00  0.00    -0.020 C 
HETATM   48  C26 UNL     1      17.990   6.955  17.010  1.00  0.00     0.009 C 
HETATM   49  C27 UNL     1      17.386   4.788  16.112  1.00  0.00     0.009 C 
ENDBRANCH  46  47
ENDBRANCH  18  46
BRANCH  21  50
HETATM   50  O4  UNL     1      17.620  10.198  12.704  1.00  0.00    -0.348 OA
ATOM     51  H4  UNL     1      18.086  11.013  12.855  1.00  0.00     0.219 HD
ENDBRANCH  21  50
TORSDOF 13
ENDMDL
MODEL 3
REMARK VINA RESULT: -7.055615519      4.925      8.869
REMARK  13 active torsions:
REMARK  status: ('A' for Active; 'I' for Inactive)
REMARK    1  A    between atoms: C2_2  and  C3_3 
REMARK    2  A    between atoms: C3_3  and  C4_4 
REMARK    3  A    between atoms: C6_11  and  C7_12 
REMARK    4  A    between atoms: C7_12  and  C8_13 
REMARK    5  A    between atoms: C8_13  and  N3_14 
REMARK    6  A    between atoms: N3_14  and  C11_17 
REMARK    7  A    between atoms: C11_17  and  C12_18 
REMARK    8  A    between atoms: C12_18  and  N4_19 
REMARK    9  A    between atoms: C17_27  and  C18_28 
REMARK   10  A    between atoms: C18_28  and  C19_29 
REMARK   11  A    between atoms: C23_36  and  C24_37 
REMARK   12  A    between atoms: C24_37  and  C25_38 
REMARK   13  A    between atoms: C28_43  and  O4_44 
ROOT
HETATM    1  C4  UNL     1      17.377   4.931  12.252  1.00  0.00     0.194 C 
HETATM    2  N1  UNL     1      16.031   4.606  12.551  1.00  0.00    -0.320 N 
ATOM      3  H1  UNL     1      15.466   4.054  11.906  1.00  0.00     0.181 HD
HETATM    4  N2  UNL     1      15.515   5.056  13.733  1.00  0.00    -0.272 N 
ATOM      5  H2  UNL     1      16.184   5.163  14.496  1.00  0.00     0.189 HD
HETATM    6  C5  UNL     1      14.185   5.393  14.036  1.00  0.00     0.258 C 
HETATM    7  O1  UNL     1      13.829   5.113  15.243  1.00  0.00    -0.269 OA
HETATM    8  C6  UNL     1      13.174   6.003  13.184  1.00  0.00     0.180 C 
HETATM    9  N5  UNL     1      13.593   7.088  12.349  1.00  0.00    -0.342 N 
ATOM     10  H5  UNL     1      13.922   6.846  11.414  1.00  0.00     0.163 HD
HETATM   11  C16 UNL     1      13.597   8.466  12.690  1.00  0.00     0.268 C 
HETATM   12  O2  UNL     1      13.747   9.274  11.741  1.00  0.00    -0.266 OA
HETATM   13  C17 UNL     1      13.448   9.005  14.045  1.00  0.00     0.099 C 
HETATM   14  N6  UNL     1      14.476   9.939  14.461  1.00  0.00    -0.321 N 
ATOM     15  H6  UNL     1      14.107  10.723  14.998  1.00  0.00     0.169 HD
HETATM   16  C22 UNL     1      15.823   9.999  14.294  1.00  0.00     0.245 C 
HETATM   17  O3  UNL     1      16.292  11.006  13.624  1.00  0.00    -0.271 OA
HETATM   18  C23 UNL     1      16.954   9.082  14.753  1.00  0.00     0.176 C 
HETATM   19  N7  UNL     1      17.334   8.270  13.617  1.00  0.00    -0.359 N 
ATOM     20  H7  UNL     1      16.528   7.767  13.247  1.00  0.00     0.162 HD
HETATM   21  C28 UNL     1      18.458   7.982  12.895  1.00  0.00     0.135 C 
HETATM   22  C29 UNL     1      19.628   7.102  13.082  1.00  0.00     0.155 C 
HETATM   23  C30 UNL     1      20.771   7.830  13.757  1.00  0.00     0.041 C 
HETATM   24  N8  UNL     1      19.370   5.804  13.647  1.00  0.00    -0.348 N 
ATOM     25  H8  UNL     1      20.024   5.498  14.367  1.00  0.00     0.163 HD
HETATM   26  C31 UNL     1      18.346   4.908  13.342  1.00  0.00     0.242 C 
HETATM   27  O5  UNL     1      18.232   3.901  14.140  1.00  0.00    -0.271 OA
ENDROOT
BRANCH   8  28
HETATM   28  C7  UNL     1      12.607   4.882  12.294  1.00  0.00     0.063 C 
BRANCH  28  29
HETATM   29  C8  UNL     1      12.955   5.178  10.834  1.00  0.00     0.239 C 
BRANCH  29  30
HETATM   30  N3  UNL     1      12.151   4.372   9.941  1.00  0.00    -0.073 N 
HETATM   31  C9  UNL     1      10.896   4.049  10.611  1.00  0.00     0.272 C 
HETATM   32  C10 UNL     1      11.915   5.031   8.675  1.00  0.00     0.272 C 
BRANCH  30  33
HETATM   33  C11 UNL     1      12.877   3.128   9.772  1.00  0.00     0.264 C 
BRANCH  33  34
HETATM   34  C12 UNL     1      13.501   3.044   8.398  1.00  0.00     0.264 C 
BRANCH  34  35
HETATM   35  N4  UNL     1      13.114   1.816   7.728  1.00  0.00    -0.077 N 
HETATM   36  C13 UNL     1      12.690   2.085   6.386  1.00  0.00     0.271 C 
HETATM   37  C14 UNL     1      14.268   0.942   7.717  1.00  0.00     0.271 C 
HETATM   38  C15 UNL     1      12.057   1.128   8.447  1.00  0.00     0.271 C 
ENDBRANCH  34  35
ENDBRANCH  33  34
ENDBRANCH  30  33
ENDBRANCH  29  30
ENDBRANCH  28  29
ENDBRANCH   8  28
BRANCH  13  39
HETATM   39  C18 UNL     1      12.089   9.380  14.483  1.00  0.00     0.012 C 
BRANCH  39  40
HETATM   40  C19 UNL     1      11.603   9.170  15.839  1.00  0.00     0.002 C 
HETATM   41  C20 UNL     1      11.644  10.271  16.827  1.00  0.00     0.013 C 
HETATM   42  C21 UNL     1      12.238   7.948  16.532  1.00  0.00     0.013 C 
ENDBRANCH  39  40
ENDBRANCH  13  39
BRANCH   1  43
HETATM   43  C3  UNL     1      17.857   3.855  11.250  1.00  0.00     0.062 C 
BRANCH  43  44
HETATM   44  C2  UNL     1      16.912   3.686  10.135  1.00  0.00    -0.034 C 
HETATM   45  C1  UNL     1      17.123   2.762   9.220  1.00  0.00     0.007 C 
ENDBRANCH  43  44
ENDBRANCH   1  43
BRANCH  18  46
HETATM   46  C24 UNL     1      16.529   8.353  15.983  1.00  0.00     0.038 C 
BRANCH  46  47
HETATM   47  C25 UNL     1      17.251   7.061  16.274  1.00  0.00    -0.020 C 
HETATM   48  C26 UNL     1      18.612   7.296  16.881  1.00  0.00     0.009 C 
HETATM   49  C27 UNL     1      16.423   6.401  17.403  1.00  0.00     0.009 C 
ENDBRANCH  46  47
ENDBRANCH  18  46
BRANCH  21  50
HETATM   50  O4  UNL     1      18.557   8.620  11.747  1.00  0.00    -0.348 OA
ATOM     51  H4  UNL     1      19.251   8.310  11.177  1.00  0.00     0.219 HD
ENDBRANCH  21  50
TORSDOF 13
ENDMDL
MODEL 4
REMARK VINA RESULT: -6.785675303      5.003      8.994
REMARK  13 active torsions:
REMARK  status: ('A' for Active; 'I' for Inactive)
REMARK    1  A    between atoms: C2_2  and  C3_3 
REMARK    2  A    between atoms: C3_3  and  C4_4 
REMARK    3  A    between atoms: C6_11  and  C7_12 
REMARK    4  A    between atoms: C7_12  and  C8_13 
REMARK    5  A    between atoms: C8_13  and  N3_14 
REMARK    6  A    between atoms: N3_14  and  C11_17 
REMARK    7  A    between atoms: C11_17  and  C12_18 
REMARK    8  A    between atoms: C12_18  and  N4_19 
REMARK    9  A    between atoms: C17_27  and  C18_28 
REMARK   10  A    between atoms: C18_28  and  C19_29 
REMARK   11  A    between atoms: C23_36  and  C24_37 
REMARK   12  A    between atoms: C24_37  and  C25_38 
REMARK   13  A    between atoms: C28_43  and  O4_44 
ROOT
HETATM    1  C4  UNL     1      17.447   5.119  12.181  1.00  0.00     0.194 C 
HETATM    2  N1  UNL     1      16.088   4.765  12.360  1.00  0.00    -0.320 N 
ATOM      3  H1  UNL     1      15.557   4.314  11.614  1.00  0.00     0.181 HD
HETATM    4  N2  UNL     1      15.510   5.047  13.565  1.00  0.00    -0.272 N 
ATOM      5  H2  UNL     1      16.138   5.039  14.370  1.00  0.00     0.189 HD
HETATM    6  C5  UNL     1      14.166   5.347  13.843  1.00  0.00     0.258 C 
HETATM    7  O1  UNL     1      13.747   4.902  14.977  1.00  0.00    -0.269 OA
HETATM    8  C6  UNL     1      13.202   6.081  13.035  1.00  0.00     0.180 C 
HETATM    9  N5  UNL     1      13.665   7.270  12.387  1.00  0.00    -0.342 N 
ATOM     10  H5  UNL     1      14.043   7.161  11.445  1.00  0.00     0.163 HD
HETATM   11  C16 UNL     1      13.652   8.585  12.920  1.00  0.00     0.268 C 
HETATM   12  O2  UNL     1      13.852   9.519  12.105  1.00  0.00    -0.266 OA
HETATM   13  C17 UNL     1      13.432   8.928  14.328  1.00  0.00     0.099 C 
HETATM   14  N6  UNL     1      14.437   9.784  14.926  1.00  0.00    -0.321 N 
ATOM     15  H6  UNL     1      14.040  10.487  15.549  1.00  0.00     0.169 HD
HETATM   16  C22 UNL     1      15.791   9.857  14.840  1.00  0.00     0.245 C 
HETATM   17  O3  UNL     1      16.296  10.945  14.346  1.00  0.00    -0.271 OA
HETATM   18  C23 UNL     1      16.896   8.874  15.222  1.00  0.00     0.176 C 
HETATM   19  N7  UNL     1      17.335   8.230  14.003  1.00  0.00    -0.359 N 
ATOM     20  H7  UNL     1      16.549   7.791  13.524  1.00  0.00     0.162 HD
HETATM   21  C28 UNL     1      18.495   8.038  13.308  1.00  0.00     0.135 C 
HETATM   22  C29 UNL     1      19.653   7.130  13.428  1.00  0.00     0.155 C 
HETATM   23  C30 UNL     1      20.759   7.746  14.258  1.00  0.00     0.041 C 
HETATM   24  N8  UNL     1      19.365   5.768  13.788  1.00  0.00    -0.348 N 
ATOM     25  H8  UNL     1      19.980   5.357  14.490  1.00  0.00     0.163 HD
HETATM   26  C31 UNL     1      18.358   4.933  13.305  1.00  0.00     0.242 C 
HETATM   27  O5  UNL     1      18.201   3.823  13.945  1.00  0.00    -0.271 OA
ENDROOT
BRANCH   8  28
HETATM   28  C7  UNL     1      12.682   5.103  11.967  1.00  0.00     0.063 C 
BRANCH  28  29
HETATM   29  C8  UNL     1      12.542   5.844  10.635  1.00  0.00     0.239 C 
BRANCH  29  30
HETATM   30  N3  UNL     1      12.960   5.004   9.533  1.00  0.00    -0.073 N 
HETATM   31  C9  UNL     1      12.187   5.372   8.352  1.00  0.00     0.272 C 
HETATM   32  C10 UNL     1      14.381   5.102   9.282  1.00  0.00     0.272 C 
BRANCH  30  33
HETATM   33  C11 UNL     1      12.569   3.655   9.895  1.00  0.00     0.264 C 
BRANCH  33  34
HETATM   34  C12 UNL     1      13.596   2.648   9.430  1.00  0.00     0.264 C 
BRANCH  34  35
HETATM   35  N4  UNL     1      13.005   1.690   8.514  1.00  0.00    -0.077 N 
HETATM   36  C13 UNL     1      13.486   0.368   8.787  1.00  0.00     0.271 C 
HETATM   37  C14 UNL     1      11.569   1.743   8.694  1.00  0.00     0.271 C 
HETATM   38  C15 UNL     1      13.280   2.036   7.131  1.00  0.00     0.271 C 
ENDBRANCH  34  35
ENDBRANCH  33  34
ENDBRANCH  30  33
ENDBRANCH  29  30
ENDBRANCH  28  29
ENDBRANCH   8  28
BRANCH  13  39
HETATM   39  C18 UNL     1      12.052   9.248  14.743  1.00  0.00     0.012 C 
BRANCH  39  40
HETATM   40  C19 UNL     1      11.519   8.917  16.057  1.00  0.00     0.002 C 
HETATM   41  C20 UNL     1      11.583   9.902  17.160  1.00  0.00     0.013 C 
HETATM   42  C21 UNL     1      12.077   7.598  16.627  1.00  0.00     0.013 C 
ENDBRANCH  39  40
ENDBRANCH  13  39
BRANCH   1  43
HETATM   43  C3  UNL     1      17.979   4.191  11.062  1.00  0.00     0.062 C 
BRANCH  43  44
HETATM   44  C2  UNL     1      17.033   3.105  10.758  1.00  0.00    -0.034 C 
HETATM   45  C1  UNL     1      17.247   2.309   9.730  1.00  0.00     0.007 C 
ENDBRANCH  43  44
ENDBRANCH   1  43
BRANCH  18  46
HETATM   46  C24 UNL     1      16.406   7.981  16.312  1.00  0.00     0.038 C 
BRANCH  46  47
HETATM   47  C25 UNL     1      17.459   7.195  17.052  1.00  0.00    -0.020 C 
HETATM   48  C26 UNL     1      17.315   7.322  18.547  1.00  0.00     0.009 C 
HETATM   49  C27 UNL     1      17.123   5.715  16.746  1.00  0.00     0.009 C 
ENDBRANCH  46  47
ENDBRANCH  18  46
BRANCH  21  50
HETATM   50  O4  UNL     1      18.655   8.832  12.269  1.00  0.00    -0.348 OA
ATOM     51  H4  UNL     1      19.155   8.457  11.553  1.00  0.00     0.219 HD
ENDBRANCH  21  50
TORSDOF 13
ENDMDL
MODEL 5
REMARK VINA RESULT: -6.784258624      2.770      9.913
REMARK  13 active torsions:
REMARK  status: ('A' for Active; 'I' for Inactive)
REMARK    1  A    between atoms: C2_2  and  C3_3 
REMARK    2  A    between atoms: C3_3  and  C4_4 
REMARK    3  A    between atoms: C6_11  and  C7_12 
REMARK    4  A    between atoms: C7_12  and  C8_13 
REMARK    5  A    between atoms: C8_13  and  N3_14 
REMARK    6  A    between atoms: N3_14  and  C11_17 
REMARK    7  A    between atoms: C11_17  and  C12_18 
REMARK    8  A    between atoms: C12_18  and  N4_19 
REMARK    9  A    between atoms: C17_27  and  C18_28 
REMARK   10  A    between atoms: C18_28  and  C19_29 
REMARK   11  A    between atoms: C23_36  and  C24_37 
REMARK   12  A    between atoms: C24_37  and  C25_38 
REMARK   13  A    between atoms: C28_43  and  O4_44 
ROOT
HETATM    1  C4  UNL     1       6.675   0.137   6.006  1.00  0.00     0.194 C 
HETATM    2  N1  UNL     1       7.621   0.884   6.751  1.00  0.00    -0.320 N 
ATOM      3  H1  UNL     1       7.601   1.903   6.758  1.00  0.00     0.181 HD
HETATM    4  N2  UNL     1       8.562   0.192   7.460  1.00  0.00    -0.272 N 
ATOM      5  H2  UNL     1       8.274  -0.727   7.797  1.00  0.00     0.189 HD
HETATM    6  C5  UNL     1       9.872   0.578   7.785  1.00  0.00     0.258 C 
HETATM    7  O1  UNL     1      10.277   0.164   8.937  1.00  0.00    -0.269 OA
HETATM    8  C6  UNL     1      10.817   1.371   7.009  1.00  0.00     0.180 C 
HETATM    9  N5  UNL     1      10.908   1.090   5.609  1.00  0.00    -0.342 N 
ATOM     10  H5  UNL     1      10.291   1.622   4.994  1.00  0.00     0.163 HD
HETATM   11  C16 UNL     1      11.768   0.147   4.988  1.00  0.00     0.268 C 
HETATM   12  O2  UNL     1      11.887   0.237   3.741  1.00  0.00    -0.266 OA
HETATM   13  C17 UNL     1      12.510  -0.910   5.682  1.00  0.00     0.099 C 
HETATM   14  N6  UNL     1      12.328  -2.248   5.156  1.00  0.00    -0.321 N 
ATOM     15  H6  UNL     1      13.191  -2.791   5.143  1.00  0.00     0.169 HD
HETATM   16  C22 UNL     1      11.261  -2.939   4.676  1.00  0.00     0.245 C 
HETATM   17  O3  UNL     1      11.307  -3.312   3.434  1.00  0.00    -0.271 OA
HETATM   18  C23 UNL     1       9.955  -3.390   5.328  1.00  0.00     0.176 C 
HETATM   19  N7  UNL     1       8.928  -2.459   4.912  1.00  0.00    -0.359 N 
ATOM     20  H7  UNL     1       9.190  -1.503   5.148  1.00  0.00     0.162 HD
HETATM   21  C28 UNL     1       7.709  -2.489   4.297  1.00  0.00     0.135 C 
HETATM   22  C29 UNL     1       6.329  -2.809   4.715  1.00  0.00     0.155 C 
HETATM   23  C30 UNL     1       6.000  -4.268   4.482  1.00  0.00     0.041 C 
HETATM   24  N8  UNL     1       5.927  -2.337   6.012  1.00  0.00    -0.348 N 
ATOM     25  H8  UNL     1       5.407  -3.003   6.583  1.00  0.00     0.163 HD
HETATM   26  C31 UNL     1       6.154  -1.090   6.596  1.00  0.00     0.242 C 
HETATM   27  O5  UNL     1       5.858  -1.001   7.849  1.00  0.00    -0.271 OA
ENDROOT
BRANCH   8  28
HETATM   28  C7  UNL     1      10.417   2.845   7.196  1.00  0.00     0.063 C 
BRANCH  28  29
HETATM   29  C8  UNL     1      11.649   3.648   7.619  1.00  0.00     0.239 C 
BRANCH  29  30
HETATM   30  N3  UNL     1      11.560   4.032   9.011  1.00  0.00    -0.073 N 
HETATM   31  C9  UNL     1      10.153   4.051   9.396  1.00  0.00     0.272 C 
HETATM   32  C10 UNL     1      12.326   3.154   9.868  1.00  0.00     0.272 C 
BRANCH  30  33
HETATM   33  C11 UNL     1      12.038   5.399   9.075  1.00  0.00     0.264 C 
BRANCH  33  34
HETATM   34  C12 UNL     1      12.341   5.804  10.500  1.00  0.00     0.264 C 
BRANCH  34  35
HETATM   35  N4  UNL     1      13.405   6.789  10.543  1.00  0.00    -0.077 N 
HETATM   36  C13 UNL     1      14.565   6.250  11.190  1.00  0.00     0.271 C 
HETATM   37  C14 UNL     1      13.722   7.151   9.178  1.00  0.00     0.271 C 
HETATM   38  C15 UNL     1      12.982   7.999  11.225  1.00  0.00     0.271 C 
ENDBRANCH  34  35
ENDBRANCH  33  34
ENDBRANCH  30  33
ENDBRANCH  29  30
ENDBRANCH  28  29
ENDBRANCH   8  28
BRANCH  13  39
HETATM   39  C18 UNL     1      13.897  -0.612   6.089  1.00  0.00     0.012 C 
BRANCH  39  40
HETATM   40  C19 UNL     1      14.369  -0.741   7.460  1.00  0.00     0.002 C 
HETATM   41  C20 UNL     1      13.815   0.123   8.526  1.00  0.00     0.013 C 
HETATM   42  C21 UNL     1      15.903  -0.651   7.589  1.00  0.00     0.013 C 
ENDBRANCH  39  40
ENDBRANCH  13  39
BRANCH   1  43
HETATM   43  C3  UNL     1       5.449   1.065   5.835  1.00  0.00     0.062 C 
BRANCH  43  44
HETATM   44  C2  UNL     1       4.564   0.606   4.753  1.00  0.00    -0.034 C 
HETATM   45  C1  UNL     1       3.330   0.230   5.020  1.00  0.00     0.007 C 
ENDBRANCH  43  44
ENDBRANCH   1  43
BRANCH  18  46
HETATM   46  C24 UNL     1      10.165  -3.543   6.796  1.00  0.00     0.038 C 
BRANCH  46  47
HETATM   47  C25 UNL     1      10.258  -4.958   7.311  1.00  0.00    -0.020 C 
HETATM   48  C26 UNL     1       9.215  -5.855   6.694  1.00  0.00     0.009 C 
HETATM   49  C27 UNL     1      11.606  -5.481   6.759  1.00  0.00     0.009 C 
ENDBRANCH  46  47
ENDBRANCH  18  46
BRANCH  21  50
HETATM   50  O4  UNL     1       7.724  -2.155   3.023  1.00  0.00    -0.348 OA
ATOM     51  H4  UNL     1       6.981  -2.467   2.519  1.00  0.00     0.219 HD
ENDBRANCH  21  50
TORSDOF 13
ENDMDL
