MODEL 1
REMARK VINA RESULT: -9.255522456      0.000      0.000
REMARK  16 active torsions:
REMARK  status: ('A' for Active; 'I' for Inactive)
REMARK    1  A    between atoms: C2_2  and  O1_3 
REMARK    2  A    between atoms: C2_2  and  N1_5 
REMARK    3  A    between atoms: N1_5  and  C3_7 
REMARK    4  A    between atoms: C3_7  and  O2_8 
REMARK    5  A    between atoms: C3_7  and  C4_10 
REMARK    6  A    between atoms: N2_19  and  C13_20 
REMARK    7  A    between atoms: C13_20  and  O3_21 
REMARK    8  A    between atoms: C13_20  and  C14_23 
REMARK    9  A    between atoms: C14_23  and  N3_24 
REMARK   10  A    between atoms: C14_23  and  N6_40 
REMARK       I    between atoms: N3_24  and  C15_26 
REMARK   11  A    between atoms: C15_26  and  C16_28 
REMARK   12  A    between atoms: C16_28  and  N4_30 
REMARK       I    between atoms: N4_30  and  C18_32 
REMARK       I    between atoms: C18_32  and  N5_34 
REMARK   13  A    between atoms: N5_34  and  C19_36 
REMARK   14  A    between atoms: N6_40  and  C23_42 
REMARK   15  A    between atoms: C23_42  and  C25_44 
REMARK   16  A    between atoms: C25_44  and  C26_45 
ROOT
HETATM    1  C14 UNL     1      -9.749  15.854  27.870  1.00  0.00     0.156 C 
ENDROOT
BRANCH   1   2
HETATM    2  C13 UNL     1      -9.858  16.703  26.709  1.00  0.00     0.184 C 
BRANCH   2   3
HETATM    3  N2  UNL     1      -9.503  16.512  25.348  1.00  0.00    -0.347 N 
HETATM    4  C4  UNL     1      -8.537  17.467  24.761  1.00  0.00     0.162 C 
HETATM    5  C5  UNL     1      -8.511  17.542  23.297  1.00  0.00     0.043 C 
HETATM    6  C6  UNL     1      -9.098  16.418  22.518  1.00  0.00    -0.037 C 
HETATM    7  C7  UNL     1      -8.126  15.288  22.274  1.00  0.00     0.010 C 
HETATM    8  C10 UNL     1      -9.507  16.902  21.145  1.00  0.00     0.010 C 
HETATM    9  C11 UNL     1     -10.327  15.843  23.189  1.00  0.00     0.029 C 
HETATM   10  C8  UNL     1      -7.519  15.643  20.925  1.00  0.00     0.001 C 
HETATM   11  C9  UNL     1      -8.724  16.056  20.145  1.00  0.00     0.001 C 
HETATM   12  C12 UNL     1      -9.925  15.403  24.546  1.00  0.00     0.127 C 
BRANCH   4  13
HETATM   13  C3  UNL     1      -7.235  17.218  25.398  1.00  0.00     0.140 C 
BRANCH  13  14
HETATM   14  N1  UNL     1      -6.540  18.038  26.297  1.00  0.00    -0.324 N 
ATOM     15  H1  UNL     1      -6.218  18.914  25.887  1.00  0.00     0.169 HD
BRANCH  14  16
HETATM   16  C2  UNL     1      -6.204  17.893  27.637  1.00  0.00     0.112 C 
HETATM   17  C1  UNL     1      -5.045  17.288  28.285  1.00  0.00     0.097 C 
BRANCH  16  18
HETATM   18  O1  UNL     1      -7.076  18.385  28.482  1.00  0.00    -0.350 OA
ATOM     19  H1  UNL     1      -6.691  18.970  29.124  1.00  0.00     0.219 HD
ENDBRANCH  16  18
ENDBRANCH  14  16
ENDBRANCH  13  14
BRANCH  13  20
HETATM   20  O2  UNL     1      -6.635  16.097  25.101  1.00  0.00    -0.348 OA
ATOM     21  H2  UNL     1      -5.993  16.159  24.403  1.00  0.00     0.219 HD
ENDBRANCH  13  20
ENDBRANCH   4  13
ENDBRANCH   2   3
BRANCH   2  22
HETATM   22  O3  UNL     1     -10.372  17.904  26.919  1.00  0.00    -0.343 OA
ATOM     23  H3  UNL     1     -11.063  18.105  26.298  1.00  0.00     0.219 HD
ENDBRANCH   2  22
ENDBRANCH   1   2
BRANCH   1  24
HETATM   24  N3  UNL     1     -11.045  15.295  28.280  1.00  0.00    -0.308 N 
HETATM   25  C15 UNL     1     -11.935  15.891  29.192  1.00  0.00     0.245 C 
HETATM   26  O4  UNL     1     -11.706  16.963  29.766  1.00  0.00    -0.271 OA
ATOM     27  H3  UNL     1     -11.322  14.403  27.870  1.00  0.00     0.170 HD
BRANCH  25  28
HETATM   28  C16 UNL     1     -13.225  15.183  29.476  1.00  0.00     0.174 C 
HETATM   29  C17 UNL     1     -14.218  15.406  28.376  1.00  0.00     0.042 C 
BRANCH  28  30
HETATM   30  N4  UNL     1     -13.094  13.800  29.755  1.00  0.00    -0.330 N 
HETATM   31  C18 UNL     1     -13.573  13.149  30.923  1.00  0.00     0.317 C 
HETATM   32  O5  UNL     1     -14.130  13.789  31.837  1.00  0.00    -0.247 OA
HETATM   33  N5  UNL     1     -13.404  11.744  31.023  1.00  0.00    -0.335 N 
ATOM     34  H5  UNL     1     -12.958  11.246  30.253  1.00  0.00     0.165 HD
ATOM     35  H4  UNL     1     -12.617  13.226  29.060  1.00  0.00     0.165 HD
BRANCH  33  36
HETATM   36  C19 UNL     1     -13.838  11.003  32.163  1.00  0.00     0.023 C 
HETATM   37  C20 UNL     1     -15.367  10.995  32.212  1.00  0.00     0.037 C 
HETATM   38  C21 UNL     1     -13.450   9.521  31.965  1.00  0.00     0.037 C 
HETATM   39  C22 UNL     1     -13.270  11.533  33.430  1.00  0.00     0.037 C 
ENDBRANCH  33  36
ENDBRANCH  28  30
ENDBRANCH  25  28
ENDBRANCH   1  24
BRANCH   1  40
HETATM   40  N6  UNL     1      -8.853  15.913  28.894  1.00  0.00    -0.368 N 
ATOM     41  H6  UNL     1      -8.935  16.707  29.530  1.00  0.00     0.161 HD
BRANCH  40  42
HETATM   42  C23 UNL     1      -7.831  14.998  29.162  1.00  0.00     0.084 C 
HETATM   43  C24 UNL     1      -7.277  14.278  28.013  1.00  0.00     0.032 C 
BRANCH  42  44
HETATM   44  C25 UNL     1      -8.130  14.084  30.348  1.00  0.00     0.082 C 
BRANCH  44  45
HETATM   45  C26 UNL     1      -8.836  14.895  31.397  1.00  0.00     0.017 A 
HETATM   46  N7  UNL     1     -10.144  14.767  31.761  1.00  0.00    -0.363 N 
HETATM   47  C27 UNL     1     -10.426  15.661  32.718  1.00  0.00     0.006 A 
ATOM     48  H7  UNL     1     -10.804  14.096  31.367  1.00  0.00     0.165 HD
HETATM   49  C28 UNL     1     -11.716  15.901  33.433  1.00  0.00     0.068 C 
HETATM   50  C29 UNL     1      -9.277  16.404  33.000  1.00  0.00     0.033 A 
HETATM   51  C30 UNL     1      -8.312  15.905  32.165  1.00  0.00    -0.037 A 
HETATM   52  C31 UNL     1      -6.878  16.374  32.068  1.00  0.00     0.050 C 
ENDBRANCH  44  45
ENDBRANCH  42  44
ENDBRANCH  40  42
ENDBRANCH   1  40
TORSDOF 16
ENDMDL
MODEL 2
REMARK VINA RESULT: -9.041879538      1.102      1.475
REMARK  16 active torsions:
REMARK  status: ('A' for Active; 'I' for Inactive)
REMARK    1  A    between atoms: C2_2  and  O1_3 
REMARK    2  A    between atoms: C2_2  and  N1_5 
REMARK    3  A    between atoms: N1_5  and  C3_7 
REMARK    4  A    between atoms: C3_7  and  O2_8 
REMARK    5  A    between atoms: C3_7  and  C4_10 
REMARK    6  A    between atoms: N2_19  and  C13_20 
REMARK    7  A    between atoms: C13_20  and  O3_21 
REMARK    8  A    between atoms: C13_20  and  C14_23 
REMARK    9  A    between atoms: C14_23  and  N3_24 
REMARK   10  A    between atoms: C14_23  and  N6_40 
REMARK       I    between atoms: N3_24  and  C15_26 
REMARK   11  A    between atoms: C15_26  and  C16_28 
REMARK   12  A    between atoms: C16_28  and  N4_30 
REMARK       I    between atoms: N4_30  and  C18_32 
REMARK       I    between atoms: C18_32  and  N5_34 
REMARK   13  A    between atoms: N5_34  and  C19_36 
REMARK   14  A    between atoms: N6_40  and  C23_42 
REMARK   15  A    between atoms: C23_42  and  C25_44 
REMARK   16  A    between atoms: C25_44  and  C26_45 
ROOT
HETATM    1  C14 UNL     1      -9.860  15.811  27.762  1.00  0.00     0.156 C 
ENDROOT
BRANCH   1   2
HETATM    2  C13 UNL     1      -9.979  16.638  26.586  1.00  0.00     0.184 C 
BRANCH   2   3
HETATM    3  N2  UNL     1      -9.561  16.456  25.242  1.00  0.00    -0.347 N 
HETATM    4  C4  UNL     1      -8.802  17.562  24.616  1.00  0.00     0.162 C 
HETATM    5  C5  UNL     1      -8.757  17.566  23.150  1.00  0.00     0.043 C 
HETATM    6  C6  UNL     1      -9.078  16.305  22.427  1.00  0.00    -0.037 C 
HETATM    7  C7  UNL     1      -7.886  15.393  22.258  1.00  0.00     0.010 C 
HETATM    8  C10 UNL     1      -9.547  16.621  21.024  1.00  0.00     0.010 C 
HETATM    9  C11 UNL     1     -10.175  15.520  23.113  1.00  0.00     0.029 C 
HETATM   10  C8  UNL     1      -7.335  15.798  20.899  1.00  0.00     0.001 C 
HETATM   11  C9  UNL     1      -8.580  15.909  20.082  1.00  0.00     0.001 C 
HETATM   12  C12 UNL     1      -9.723  15.244  24.497  1.00  0.00     0.127 C 
BRANCH   4  13
HETATM   13  C3  UNL     1      -7.491  17.624  25.282  1.00  0.00     0.140 C 
BRANCH  13  14
HETATM   14  N1  UNL     1      -6.521  16.618  25.378  1.00  0.00    -0.324 N 
ATOM     15  H1  UNL     1      -6.871  15.749  25.780  1.00  0.00     0.169 HD
BRANCH  14  16
HETATM   16  C2  UNL     1      -5.177  16.570  25.034  1.00  0.00     0.112 C 
HETATM   17  C1  UNL     1      -3.969  16.510  25.852  1.00  0.00     0.097 C 
BRANCH  16  18
HETATM   18  O1  UNL     1      -4.934  16.578  23.747  1.00  0.00    -0.350 OA
ATOM     19  H1  UNL     1      -5.707  16.422  23.216  1.00  0.00     0.219 HD
ENDBRANCH  16  18
ENDBRANCH  14  16
ENDBRANCH  13  14
BRANCH  13  20
HETATM   20  O2  UNL     1      -7.173  18.750  25.860  1.00  0.00    -0.348 OA
ATOM     21  H2  UNL     1      -7.884  19.377  25.933  1.00  0.00     0.219 HD
ENDBRANCH  13  20
ENDBRANCH   4  13
ENDBRANCH   2   3
BRANCH   2  22
HETATM   22  O3  UNL     1     -10.579  17.804  26.761  1.00  0.00    -0.343 OA
ATOM     23  H3  UNL     1     -11.390  17.714  27.247  1.00  0.00     0.219 HD
ENDBRANCH   2  22
ENDBRANCH   1   2
BRANCH   1  24
HETATM   24  N3  UNL     1     -11.150  15.247  28.185  1.00  0.00    -0.308 N 
HETATM   25  C15 UNL     1     -12.127  15.926  28.935  1.00  0.00     0.245 C 
HETATM   26  O4  UNL     1     -11.990  17.089  29.337  1.00  0.00    -0.271 OA
ATOM     27  H3  UNL     1     -11.353  14.286  27.912  1.00  0.00     0.170 HD
BRANCH  25  28
HETATM   28  C16 UNL     1     -13.394  15.196  29.259  1.00  0.00     0.174 C 
HETATM   29  C17 UNL     1     -14.405  15.355  28.164  1.00  0.00     0.042 C 
BRANCH  28  30
HETATM   30  N4  UNL     1     -13.224  13.827  29.584  1.00  0.00    -0.330 N 
HETATM   31  C18 UNL     1     -13.645  13.211  30.792  1.00  0.00     0.317 C 
HETATM   32  O5  UNL     1     -14.181  13.874  31.703  1.00  0.00    -0.247 OA
HETATM   33  N5  UNL     1     -13.444  11.815  30.937  1.00  0.00    -0.335 N 
ATOM     34  H5  UNL     1     -13.017  11.297  30.170  1.00  0.00     0.165 HD
ATOM     35  H4  UNL     1     -12.762  13.236  28.892  1.00  0.00     0.165 HD
BRANCH  33  36
HETATM   36  C19 UNL     1     -13.819  11.109  32.120  1.00  0.00     0.023 C 
HETATM   37  C20 UNL     1     -15.343  11.119  32.256  1.00  0.00     0.037 C 
HETATM   38  C21 UNL     1     -13.458   9.617  31.940  1.00  0.00     0.037 C 
HETATM   39  C22 UNL     1     -13.174  11.666  33.338  1.00  0.00     0.037 C 
ENDBRANCH  33  36
ENDBRANCH  28  30
ENDBRANCH  25  28
ENDBRANCH   1  24
BRANCH   1  40
HETATM   40  N6  UNL     1      -8.962  15.896  28.782  1.00  0.00    -0.368 N 
ATOM     41  H6  UNL     1      -9.057  15.213  29.534  1.00  0.00     0.161 HD
BRANCH  40  42
HETATM   42  C23 UNL     1      -7.923  16.823  28.905  1.00  0.00     0.084 C 
HETATM   43  C24 UNL     1      -6.559  16.295  28.828  1.00  0.00     0.032 C 
BRANCH  42  44
HETATM   44  C25 UNL     1      -8.117  17.802  30.062  1.00  0.00     0.082 C 
BRANCH  44  45
HETATM   45  C26 UNL     1      -8.770  17.062  31.196  1.00  0.00     0.017 A 
HETATM   46  N7  UNL     1     -10.112  16.956  31.413  1.00  0.00    -0.363 N 
HETATM   47  C27 UNL     1     -10.323  16.231  32.520  1.00  0.00     0.006 A 
ATOM     48  H7  UNL     1     -10.840  17.363  30.825  1.00  0.00     0.165 HD
HETATM   49  C28 UNL     1     -11.618  15.842  33.158  1.00  0.00     0.068 C 
HETATM   50  C29 UNL     1      -9.092  15.845  33.054  1.00  0.00     0.033 A 
HETATM   51  C30 UNL     1      -8.152  16.376  32.211  1.00  0.00    -0.037 A 
HETATM   52  C31 UNL     1      -6.650  16.252  32.348  1.00  0.00     0.050 C 
ENDBRANCH  44  45
ENDBRANCH  42  44
ENDBRANCH  40  42
ENDBRANCH   1  40
TORSDOF 16
ENDMDL
MODEL 3
REMARK VINA RESULT: -8.950595395      1.191      1.423
REMARK  16 active torsions:
REMARK  status: ('A' for Active; 'I' for Inactive)
REMARK    1  A    between atoms: C2_2  and  O1_3 
REMARK    2  A    between atoms: C2_2  and  N1_5 
REMARK    3  A    between atoms: N1_5  and  C3_7 
REMARK    4  A    between atoms: C3_7  and  O2_8 
REMARK    5  A    between atoms: C3_7  and  C4_10 
REMARK    6  A    between atoms: N2_19  and  C13_20 
REMARK    7  A    between atoms: C13_20  and  O3_21 
REMARK    8  A    between atoms: C13_20  and  C14_23 
REMARK    9  A    between atoms: C14_23  and  N3_24 
REMARK   10  A    between atoms: C14_23  and  N6_40 
REMARK       I    between atoms: N3_24  and  C15_26 
REMARK   11  A    between atoms: C15_26  and  C16_28 
REMARK   12  A    between atoms: C16_28  and  N4_30 
REMARK       I    between atoms: N4_30  and  C18_32 
REMARK       I    between atoms: C18_32  and  N5_34 
REMARK   13  A    between atoms: N5_34  and  C19_36 
REMARK   14  A    between atoms: N6_40  and  C23_42 
REMARK   15  A    between atoms: C23_42  and  C25_44 
REMARK   16  A    between atoms: C25_44  and  C26_45 
ROOT
HETATM    1  C14 UNL     1      -9.828  15.418  27.881  1.00  0.00     0.156 C 
ENDROOT
BRANCH   1   2
HETATM    2  C13 UNL     1     -10.159  16.185  26.704  1.00  0.00     0.184 C 
BRANCH   2   3
HETATM    3  N2  UNL     1      -9.708  16.119  25.360  1.00  0.00    -0.347 N 
HETATM    4  C4  UNL     1      -8.800  17.192  24.899  1.00  0.00     0.162 C 
HETATM    5  C5  UNL     1      -8.693  17.369  23.447  1.00  0.00     0.043 C 
HETATM    6  C6  UNL     1      -9.127  16.253  22.563  1.00  0.00    -0.037 C 
HETATM    7  C7  UNL     1      -8.044  15.232  22.314  1.00  0.00     0.010 C 
HETATM    8  C10 UNL     1      -9.496  16.792  21.199  1.00  0.00     0.010 C 
HETATM    9  C11 UNL     1     -10.337  15.530  23.114  1.00  0.00     0.029 C 
HETATM   10  C8  UNL     1      -7.392  15.729  21.032  1.00  0.00     0.001 C 
HETATM   11  C9  UNL     1      -8.581  16.088  20.201  1.00  0.00     0.001 C 
HETATM   12  C12 UNL     1      -9.978  15.034  24.465  1.00  0.00     0.127 C 
BRANCH   4  13
HETATM   13  C3  UNL     1      -7.520  17.014  25.603  1.00  0.00     0.140 C 
BRANCH  13  14
HETATM   14  N1  UNL     1      -7.078  17.653  26.770  1.00  0.00    -0.324 N 
ATOM     15  H1  UNL     1      -6.305  17.174  27.230  1.00  0.00     0.169 HD
BRANCH  14  16
HETATM   16  C2  UNL     1      -7.486  18.808  27.423  1.00  0.00     0.112 C 
HETATM   17  C1  UNL     1      -6.852  20.114  27.567  1.00  0.00     0.097 C 
BRANCH  16  18
HETATM   18  O1  UNL     1      -8.648  18.724  28.022  1.00  0.00    -0.350 OA
ATOM     19  H1  UNL     1      -8.956  17.830  28.126  1.00  0.00     0.219 HD
ENDBRANCH  16  18
ENDBRANCH  14  16
ENDBRANCH  13  14
BRANCH  13  20
HETATM   20  O2  UNL     1      -6.678  16.158  25.093  1.00  0.00    -0.348 OA
ATOM     21  H2  UNL     1      -5.774  16.277  25.362  1.00  0.00     0.219 HD
ENDBRANCH  13  20
ENDBRANCH   4  13
ENDBRANCH   2   3
BRANCH   2  22
HETATM   22  O3  UNL     1     -11.044  17.154  26.879  1.00  0.00    -0.343 OA
ATOM     23  H3  UNL     1     -10.642  17.938  27.234  1.00  0.00     0.219 HD
ENDBRANCH   2  22
ENDBRANCH   1   2
BRANCH   1  24
HETATM   24  N3  UNL     1     -10.880  14.458  28.240  1.00  0.00    -0.308 N 
HETATM   25  C15 UNL     1     -11.834  14.641  29.257  1.00  0.00     0.245 C 
HETATM   26  O4  UNL     1     -11.875  15.645  29.979  1.00  0.00    -0.271 OA
ATOM     27  H3  UNL     1     -10.922  13.589  27.708  1.00  0.00     0.170 HD
BRANCH  25  28
HETATM   28  C16 UNL     1     -12.848  13.558  29.470  1.00  0.00     0.174 C 
HETATM   29  C17 UNL     1     -13.059  12.761  28.218  1.00  0.00     0.042 C 
BRANCH  28  30
HETATM   30  N4  UNL     1     -12.578  12.700  30.565  1.00  0.00    -0.330 N 
HETATM   31  C18 UNL     1     -13.048  12.890  31.892  1.00  0.00     0.317 C 
HETATM   32  O5  UNL     1     -13.726  13.891  32.200  1.00  0.00    -0.247 OA
HETATM   33  N5  UNL     1     -12.729  11.907  32.863  1.00  0.00    -0.335 N 
ATOM     34  H5  UNL     1     -12.185  11.093  32.578  1.00  0.00     0.165 HD
ATOM     35  H4  UNL     1     -12.001  11.879  30.386  1.00  0.00     0.165 HD
BRANCH  33  36
HETATM   36  C19 UNL     1     -13.142  12.017  34.225  1.00  0.00     0.023 C 
HETATM   37  C20 UNL     1     -13.283  10.618  34.827  1.00  0.00     0.037 C 
HETATM   38  C21 UNL     1     -12.001  12.672  35.035  1.00  0.00     0.037 C 
HETATM   39  C22 UNL     1     -14.404  12.788  34.372  1.00  0.00     0.037 C 
ENDBRANCH  33  36
ENDBRANCH  28  30
ENDBRANCH  25  28
ENDBRANCH   1  24
BRANCH   1  40
HETATM   40  N6  UNL     1      -9.050  15.771  28.942  1.00  0.00    -0.368 N 
ATOM     41  H6  UNL     1      -9.336  16.599  29.464  1.00  0.00     0.161 HD
BRANCH  40  42
HETATM   42  C23 UNL     1      -7.899  15.115  29.388  1.00  0.00     0.084 C 
HETATM   43  C24 UNL     1      -7.051  14.506  28.361  1.00  0.00     0.032 C 
BRANCH  42  44
HETATM   44  C25 UNL     1      -8.151  14.189  30.577  1.00  0.00     0.082 C 
BRANCH  44  45
HETATM   45  C26 UNL     1      -8.757  15.005  31.684  1.00  0.00     0.017 A 
HETATM   46  N7  UNL     1     -10.029  14.886  32.160  1.00  0.00    -0.363 N 
HETATM   47  C27 UNL     1     -10.219  15.781  33.139  1.00  0.00     0.006 A 
ATOM     48  H7  UNL     1     -10.726  14.221  31.824  1.00  0.00     0.165 HD
HETATM   49  C28 UNL     1     -11.441  16.030  33.964  1.00  0.00     0.068 C 
HETATM   50  C29 UNL     1      -9.044  16.514  33.320  1.00  0.00     0.033 A 
HETATM   51  C30 UNL     1      -8.160  16.009  32.404  1.00  0.00    -0.037 A 
HETATM   52  C31 UNL     1      -6.735  16.467  32.184  1.00  0.00     0.050 C 
ENDBRANCH  44  45
ENDBRANCH  42  44
ENDBRANCH  40  42
ENDBRANCH   1  40
TORSDOF 16
ENDMDL
MODEL 4
REMARK VINA RESULT: -8.915738190      2.850     10.167
REMARK  16 active torsions:
REMARK  status: ('A' for Active; 'I' for Inactive)
REMARK    1  A    between atoms: C2_2  and  O1_3 
REMARK    2  A    between atoms: C2_2  and  N1_5 
REMARK    3  A    between atoms: N1_5  and  C3_7 
REMARK    4  A    between atoms: C3_7  and  O2_8 
REMARK    5  A    between atoms: C3_7  and  C4_10 
REMARK    6  A    between atoms: N2_19  and  C13_20 
REMARK    7  A    between atoms: C13_20  and  O3_21 
REMARK    8  A    between atoms: C13_20  and  C14_23 
REMARK    9  A    between atoms: C14_23  and  N3_24 
REMARK   10  A    between atoms: C14_23  and  N6_40 
REMARK       I    between atoms: N3_24  and  C15_26 
REMARK   11  A    between atoms: C15_26  and  C16_28 
REMARK   12  A    between atoms: C16_28  and  N4_30 
REMARK       I    between atoms: N4_30  and  C18_32 
REMARK       I    between atoms: C18_32  and  N5_34 
REMARK   13  A    between atoms: N5_34  and  C19_36 
REMARK   14  A    between atoms: N6_40  and  C23_42 
REMARK   15  A    between atoms: C23_42  and  C25_44 
REMARK   16  A    between atoms: C25_44  and  C26_45 
ROOT
HETATM    1  C14 UNL     1      -8.783  16.568  25.420  1.00  0.00     0.156 C 
ENDROOT
BRANCH   1   2
HETATM    2  C13 UNL     1      -9.417  15.914  26.540  1.00  0.00     0.184 C 
BRANCH   2   3
HETATM    3  N2  UNL     1      -9.146  15.924  27.933  1.00  0.00    -0.347 N 
HETATM    4  C4  UNL     1      -9.108  17.242  28.604  1.00  0.00     0.162 C 
HETATM    5  C5  UNL     1      -8.416  17.289  29.896  1.00  0.00     0.043 C 
HETATM    6  C6  UNL     1      -8.188  16.013  30.626  1.00  0.00    -0.037 C 
HETATM    7  C7  UNL     1      -9.353  15.605  31.495  1.00  0.00     0.010 C 
HETATM    8  C10 UNL     1      -7.014  16.161  31.568  1.00  0.00     0.010 C 
HETATM    9  C11 UNL     1      -7.882  14.868  29.685  1.00  0.00     0.029 C 
HETATM   10  C8  UNL     1      -9.000  16.209  32.847  1.00  0.00     0.001 C 
HETATM   11  C9  UNL     1      -7.551  15.870  32.966  1.00  0.00     0.001 C 
HETATM   12  C12 UNL     1      -9.021  14.750  28.745  1.00  0.00     0.127 C 
BRANCH   4  13
HETATM   13  C3  UNL     1     -10.482  17.768  28.611  1.00  0.00     0.140 C 
BRANCH  13  14
HETATM   14  N1  UNL     1     -11.603  17.253  29.275  1.00  0.00    -0.324 N 
ATOM     15  H1  UNL     1     -11.703  17.591  30.232  1.00  0.00     0.169 HD
BRANCH  14  16
HETATM   16  C2  UNL     1     -12.604  16.373  28.888  1.00  0.00     0.112 C 
HETATM   17  C1  UNL     1     -12.710  14.921  28.990  1.00  0.00     0.097 C 
BRANCH  16  18
HETATM   18  O1  UNL     1     -13.649  16.934  28.332  1.00  0.00    -0.350 OA
ATOM     19  H1  UNL     1     -13.427  17.652  27.750  1.00  0.00     0.219 HD
ENDBRANCH  16  18
ENDBRANCH  14  16
ENDBRANCH  13  14
BRANCH  13  20
HETATM   20  O2  UNL     1     -10.704  18.852  27.919  1.00  0.00    -0.348 OA
ATOM     21  H2  UNL     1      -9.924  19.333  27.666  1.00  0.00     0.219 HD
ENDBRANCH  13  20
ENDBRANCH   4  13
ENDBRANCH   2   3
BRANCH   2  22
HETATM   22  O3  UNL     1     -10.446  15.136  26.245  1.00  0.00    -0.343 OA
ATOM     23  H3  UNL     1     -10.439  14.874  25.331  1.00  0.00     0.219 HD
ENDBRANCH   2  22
ENDBRANCH   1   2
BRANCH   1  24
HETATM   24  N3  UNL     1      -7.553  17.274  25.806  1.00  0.00    -0.308 N 
HETATM   25  C15 UNL     1      -6.267  16.706  25.839  1.00  0.00     0.245 C 
HETATM   26  O4  UNL     1      -6.037  15.524  25.556  1.00  0.00    -0.271 OA
ATOM     27  H3  UNL     1      -7.640  18.255  26.071  1.00  0.00     0.170 HD
BRANCH  25  28
HETATM   28  C16 UNL     1      -5.123  17.587  26.241  1.00  0.00     0.174 C 
HETATM   29  C17 UNL     1      -4.924  17.569  27.727  1.00  0.00     0.042 C 
BRANCH  28  30
HETATM   30  N4  UNL     1      -3.903  17.317  25.574  1.00  0.00    -0.330 N 
HETATM   31  C18 UNL     1      -3.022  18.297  25.045  1.00  0.00     0.317 C 
HETATM   32  O5  UNL     1      -3.298  19.512  25.103  1.00  0.00    -0.247 OA
HETATM   33  N5  UNL     1      -1.812  17.859  24.449  1.00  0.00    -0.335 N 
ATOM     34  H5  UNL     1      -1.607  16.860  24.429  1.00  0.00     0.165 HD
ATOM     35  H4  UNL     1      -3.635  16.338  25.464  1.00  0.00     0.165 HD
BRANCH  33  36
HETATM   36  C19 UNL     1      -0.871  18.766  23.877  1.00  0.00     0.023 C 
HETATM   37  C20 UNL     1      -0.380  19.736  24.954  1.00  0.00     0.037 C 
HETATM   38  C21 UNL     1       0.391  17.974  23.466  1.00  0.00     0.037 C 
HETATM   39  C22 UNL     1      -1.432  19.504  22.715  1.00  0.00     0.037 C 
ENDBRANCH  33  36
ENDBRANCH  28  30
ENDBRANCH  25  28
ENDBRANCH   1  24
BRANCH   1  40
HETATM   40  N6  UNL     1      -9.351  17.074  24.290  1.00  0.00    -0.368 N 
ATOM     41  H6  UNL     1      -9.676  18.040  24.335  1.00  0.00     0.161 HD
BRANCH  40  42
HETATM   42  C23 UNL     1      -9.534  16.406  23.077  1.00  0.00     0.084 C 
HETATM   43  C24 UNL     1     -10.907  16.025  22.739  1.00  0.00     0.032 C 
BRANCH  42  44
HETATM   44  C25 UNL     1      -8.531  15.278  22.847  1.00  0.00     0.082 C 
BRANCH  44  45
HETATM   45  C26 UNL     1      -7.404  15.817  22.011  1.00  0.00     0.017 A 
HETATM   46  N7  UNL     1      -6.164  16.157  22.464  1.00  0.00    -0.363 N 
HETATM   47  C27 UNL     1      -5.428  16.607  21.439  1.00  0.00     0.006 A 
ATOM     48  H7  UNL     1      -5.847  16.081  23.431  1.00  0.00     0.165 HD
HETATM   49  C28 UNL     1      -4.014  17.091  21.435  1.00  0.00     0.068 C 
HETATM   50  C29 UNL     1      -6.197  16.566  20.273  1.00  0.00     0.033 A 
HETATM   51  C30 UNL     1      -7.414  16.073  20.662  1.00  0.00    -0.037 A 
HETATM   52  C31 UNL     1      -8.614  15.837  19.772  1.00  0.00     0.050 C 
ENDBRANCH  44  45
ENDBRANCH  42  44
ENDBRANCH  40  42
ENDBRANCH   1  40
TORSDOF 16
ENDMDL
MODEL 5
REMARK VINA RESULT: -8.812245459      1.418      1.536
REMARK  16 active torsions:
REMARK  status: ('A' for Active; 'I' for Inactive)
REMARK    1  A    between atoms: C2_2  and  O1_3 
REMARK    2  A    between atoms: C2_2  and  N1_5 
REMARK    3  A    between atoms: N1_5  and  C3_7 
REMARK    4  A    between atoms: C3_7  and  O2_8 
REMARK    5  A    between atoms: C3_7  and  C4_10 
REMARK    6  A    between atoms: N2_19  and  C13_20 
REMARK    7  A    between atoms: C13_20  and  O3_21 
REMARK    8  A    between atoms: C13_20  and  C14_23 
REMARK    9  A    between atoms: C14_23  and  N3_24 
REMARK   10  A    between atoms: C14_23  and  N6_40 
REMARK       I    between atoms: N3_24  and  C15_26 
REMARK   11  A    between atoms: C15_26  and  C16_28 
REMARK   12  A    between atoms: C16_28  and  N4_30 
REMARK       I    between atoms: N4_30  and  C18_32 
REMARK       I    between atoms: C18_32  and  N5_34 
REMARK   13  A    between atoms: N5_34  and  C19_36 
REMARK   14  A    between atoms: N6_40  and  C23_42 
REMARK   15  A    between atoms: C23_42  and  C25_44 
REMARK   16  A    between atoms: C25_44  and  C26_45 
ROOT
HETATM    1  C14 UNL     1     -10.204  15.406  28.475  1.00  0.00     0.156 C 
ENDROOT
BRANCH   1   2
HETATM    2  C13 UNL     1     -10.516  15.949  27.175  1.00  0.00     0.184 C 
BRANCH   2   3
HETATM    3  N2  UNL     1      -9.789  15.995  25.957  1.00  0.00    -0.347 N 
HETATM    4  C4  UNL     1     -10.007  17.170  25.084  1.00  0.00     0.162 C 
HETATM    5  C5  UNL     1      -9.616  17.013  23.680  1.00  0.00     0.043 C 
HETATM    6  C6  UNL     1      -8.677  15.914  23.323  1.00  0.00    -0.037 C 
HETATM    7  C7  UNL     1      -7.225  16.297  23.473  1.00  0.00     0.010 C 
HETATM    8  C10 UNL     1      -8.849  15.543  21.867  1.00  0.00     0.010 C 
HETATM    9  C11 UNL     1      -8.922  14.669  24.147  1.00  0.00     0.029 C 
HETATM   10  C8  UNL     1      -6.856  16.794  22.083  1.00  0.00     0.001 C 
HETATM   11  C9  UNL     1      -7.490  15.762  21.209  1.00  0.00     0.001 C 
HETATM   12  C12 UNL     1      -8.785  15.048  25.573  1.00  0.00     0.127 C 
BRANCH   4  13
HETATM   13  C3  UNL     1      -9.427  18.336  25.768  1.00  0.00     0.140 C 
BRANCH  13  14
HETATM   14  N1  UNL     1      -8.073  18.633  25.973  1.00  0.00    -0.324 N 
ATOM     15  H1  UNL     1      -7.494  18.493  25.146  1.00  0.00     0.169 HD
BRANCH  14  16
HETATM   16  C2  UNL     1      -7.365  19.082  27.080  1.00  0.00     0.112 C 
HETATM   17  C1  UNL     1      -6.305  18.462  27.868  1.00  0.00     0.097 C 
BRANCH  16  18
HETATM   18  O1  UNL     1      -7.698  20.277  27.503  1.00  0.00    -0.350 OA
ATOM     19  H1  UNL     1      -7.779  20.916  26.804  1.00  0.00     0.219 HD
ENDBRANCH  16  18
ENDBRANCH  14  16
ENDBRANCH  13  14
BRANCH  13  20
HETATM   20  O2  UNL     1     -10.262  19.216  26.249  1.00  0.00    -0.348 OA
ATOM     21  H2  UNL     1     -10.196  19.359  27.186  1.00  0.00     0.219 HD
ENDBRANCH  13  20
ENDBRANCH   4  13
ENDBRANCH   2   3
BRANCH   2  22
HETATM   22  O3  UNL     1     -11.697  16.535  27.065  1.00  0.00    -0.343 OA
ATOM     23  H3  UNL     1     -11.754  17.317  27.602  1.00  0.00     0.219 HD
ENDBRANCH   2  22
ENDBRANCH   1   2
BRANCH   1  24
HETATM   24  N3  UNL     1     -11.363  14.760  29.107  1.00  0.00    -0.308 N 
HETATM   25  C15 UNL     1     -12.114  15.299  30.167  1.00  0.00     0.245 C 
HETATM   26  O4  UNL     1     -11.860  16.387  30.698  1.00  0.00    -0.271 OA
ATOM     27  H3  UNL     1     -11.645  13.849  28.747  1.00  0.00     0.170 HD
BRANCH  25  28
HETATM   28  C16 UNL     1     -13.279  14.504  30.674  1.00  0.00     0.174 C 
HETATM   29  C17 UNL     1     -14.522  14.810  29.895  1.00  0.00     0.042 C 
BRANCH  28  30
HETATM   30  N4  UNL     1     -13.062  13.105  30.735  1.00  0.00    -0.330 N 
HETATM   31  C18 UNL     1     -13.695  12.214  31.642  1.00  0.00     0.317 C 
HETATM   32  O5  UNL     1     -14.489  12.632  32.509  1.00  0.00    -0.247 OA
HETATM   33  N5  UNL     1     -13.404  10.831  31.536  1.00  0.00    -0.335 N 
ATOM     34  H5  UNL     1     -12.761  10.518  30.808  1.00  0.00     0.165 HD
ATOM     35  H4  UNL     1     -12.398  12.705  30.072  1.00  0.00     0.165 HD
BRANCH  33  36
HETATM   36  C19 UNL     1     -13.977   9.861  32.411  1.00  0.00     0.023 C 
HETATM   37  C20 UNL     1     -15.476   9.742  32.127  1.00  0.00     0.037 C 
HETATM   38  C21 UNL     1     -13.405   8.471  32.051  1.00  0.00     0.037 C 
HETATM   39  C22 UNL     1     -13.733  10.177  33.843  1.00  0.00     0.037 C 
ENDBRANCH  33  36
ENDBRANCH  28  30
ENDBRANCH  25  28
ENDBRANCH   1  24
BRANCH   1  40
HETATM   40  N6  UNL     1      -9.276  15.826  29.378  1.00  0.00    -0.368 N 
ATOM     41  H6  UNL     1      -9.464  16.712  29.848  1.00  0.00     0.161 HD
BRANCH  40  42
HETATM   42  C23 UNL     1      -8.093  15.170  29.728  1.00  0.00     0.084 C 
HETATM   43  C24 UNL     1      -7.337  14.554  28.634  1.00  0.00     0.032 C 
BRANCH  42  44
HETATM   44  C25 UNL     1      -8.243  14.250  30.937  1.00  0.00     0.082 C 
BRANCH  44  45
HETATM   45  C26 UNL     1      -8.807  15.058  32.072  1.00  0.00     0.017 A 
HETATM   46  N7  UNL     1     -10.005  14.845  32.687  1.00  0.00    -0.363 N 
HETATM   47  C27 UNL     1     -10.178  15.764  33.646  1.00  0.00     0.006 A 
ATOM     48  H7  UNL     1     -10.665  14.103  32.454  1.00  0.00     0.165 HD
HETATM   49  C28 UNL     1     -11.325  15.939  34.588  1.00  0.00     0.068 C 
HETATM   50  C29 UNL     1      -9.067  16.611  33.671  1.00  0.00     0.033 A 
HETATM   51  C30 UNL     1      -8.238  16.147  32.685  1.00  0.00    -0.037 A 
HETATM   52  C31 UNL     1      -6.896  16.723  32.294  1.00  0.00     0.050 C 
ENDBRANCH  44  45
ENDBRANCH  42  44
ENDBRANCH  40  42
ENDBRANCH   1  40
TORSDOF 16
ENDMDL
