MODEL 1
REMARK VINA RESULT: -8.985801924      0.000      0.000
REMARK  11 active torsions:
REMARK  status: ('A' for Active; 'I' for Inactive)
REMARK    1  A    between atoms: C2_2  and  C4_4 
REMARK    2  A    between atoms: C4_4  and  N1_5 
REMARK       I    between atoms: N1_5  and  C5_7 
REMARK    3  A    between atoms: C5_7  and  C6_9 
REMARK       I    between atoms: N2_13  and  C10_14 
REMARK    4  A    between atoms: C10_14  and  C11_16 
REMARK    5  A    between atoms: N3_18  and  C13_20 
REMARK    6  A    between atoms: C13_20  and  N4_22 
REMARK    7  A    between atoms: N4_22  and  C15_25 
REMARK    8  A    between atoms: C15_25  and  C16_26 
REMARK    9  A    between atoms: C15_25  and  C27_42 
REMARK   10  A    between atoms: C16_26  and  O3_27 
REMARK   11  A    between atoms: C25_38  and  C26_39 
ROOT
HETATM    1  N4  UNL     1      -6.298  16.962  25.319  1.00  0.00    -0.043 N 
ATOM      2  H41 UNL     1      -5.682  16.345  25.848  1.00  0.00     0.280 HD
ATOM      3  H42 UNL     1      -6.273  16.441  24.443  1.00  0.00     0.280 HD
ENDROOT
BRANCH   1   4
HETATM    4  C13 UNL     1      -5.777  18.369  25.197  1.00  0.00     0.281 C 
HETATM    5  C14 UNL     1      -6.177  18.812  23.782  1.00  0.00     0.063 C 
BRANCH   4   6
HETATM    6  N3  UNL     1      -4.428  18.416  25.430  1.00  0.00    -0.362 N 
HETATM    7  C11 UNL     1      -3.333  18.474  24.639  1.00  0.00     0.071 C 
HETATM    8  C12 UNL     1      -2.176  19.376  25.042  1.00  0.00     0.074 C 
ATOM      9  H3  UNL     1      -4.198  18.406  26.424  1.00  0.00     0.161 HD
BRANCH   7  10
HETATM   10  C10 UNL     1      -2.916  17.411  23.714  1.00  0.00     0.266 C 
HETATM   11  N2  UNL     1      -2.996  17.561  22.275  1.00  0.00    -0.334 N 
HETATM   12  C6  UNL     1      -2.744  16.543  21.262  1.00  0.00     0.179 C 
HETATM   13  C9  UNL     1      -3.198  18.795  21.552  1.00  0.00     0.127 C 
HETATM   14  C7  UNL     1      -1.634  17.269  20.482  1.00  0.00     0.037 C 
HETATM   15  C8  UNL     1      -2.237  18.669  20.372  1.00  0.00     0.022 C 
HETATM   16  O2  UNL     1      -2.439  16.282  24.087  1.00  0.00    -0.266 OA
BRANCH  12  17
HETATM   17  C5  UNL     1      -3.954  16.468  20.378  1.00  0.00     0.240 C 
HETATM   18  N1  UNL     1      -5.266  16.625  20.884  1.00  0.00    -0.359 N 
ATOM     19  H1  UNL     1      -5.422  16.813  21.874  1.00  0.00     0.162 HD
HETATM   20  O1  UNL     1      -3.764  16.249  19.161  1.00  0.00    -0.271 OA
BRANCH  18  21
HETATM   21  C4  UNL     1      -6.378  16.513  19.974  1.00  0.00     0.126 C 
BRANCH  21  22
HETATM   22  C2  UNL     1      -7.719  16.542  20.635  1.00  0.00    -0.005 C 
HETATM   23  C1  UNL     1      -8.664  15.772  19.698  1.00  0.00     0.011 C 
HETATM   24  C3  UNL     1      -8.316  17.923  20.762  1.00  0.00     0.011 C 
ENDBRANCH  21  22
ENDBRANCH  18  21
ENDBRANCH  12  17
ENDBRANCH   7  10
ENDBRANCH   4   6
ENDBRANCH   1   4
BRANCH   1  25
HETATM   25  C15 UNL     1      -7.681  17.081  25.909  1.00  0.00     0.266 C 
BRANCH  25  26
HETATM   26  C16 UNL     1      -7.604  16.831  27.332  1.00  0.00     0.146 C 
HETATM   27  N5  UNL     1      -8.297  16.346  28.401  1.00  0.00    -0.350 N 
HETATM   28  C17 UNL     1      -7.652  16.379  29.744  1.00  0.00     0.130 C 
HETATM   29  C25 UNL     1      -9.608  15.787  28.436  1.00  0.00     0.175 C 
HETATM   30  C18 UNL     1      -8.501  17.105  30.758  1.00  0.00     0.008 C 
HETATM   31  C19 UNL     1      -7.848  16.944  32.108  1.00  0.00     0.006 C 
HETATM   32  C23 UNL     1      -9.879  16.477  30.856  1.00  0.00    -0.006 C 
HETATM   33  C20 UNL     1      -8.918  16.819  33.169  1.00  0.00     0.000 C 
HETATM   34  C21 UNL     1      -9.658  15.510  33.090  1.00  0.00     0.000 C 
HETATM   35  C22 UNL     1      -9.820  15.159  31.604  1.00  0.00     0.005 C 
HETATM   36  C24 UNL     1     -10.519  16.358  29.517  1.00  0.00     0.039 C 
BRANCH  26  37
HETATM   37  O3  UNL     1      -6.381  17.234  27.769  1.00  0.00    -0.348 OA
ATOM     38  H3  UNL     1      -6.509  17.853  28.478  1.00  0.00     0.219 HD
ENDBRANCH  26  37
BRANCH  29  39
HETATM   39  C26 UNL     1      -9.493  14.308  28.596  1.00  0.00     0.254 C 
HETATM   40  N6  UNL     1     -10.664  13.538  28.739  1.00  0.00    -0.060 NA
HETATM   41  O4  UNL     1      -8.382  13.751  28.607  1.00  0.00    -0.275 OA
ENDBRANCH  29  39
ENDBRANCH  25  26
BRANCH  25  42
HETATM   42  C27 UNL     1      -8.502  16.237  25.004  1.00  0.00     0.024 C 
HETATM   43  C28 UNL     1      -7.833  15.667  23.786  1.00  0.00     0.007 C 
HETATM   44  C29 UNL     1      -8.578  14.346  23.470  1.00  0.00     0.000 C 
HETATM   45  C30 UNL     1     -10.036  14.672  23.434  1.00  0.00     0.000 C 
HETATM   46  C31 UNL     1     -10.293  16.159  23.352  1.00  0.00     0.000 C 
HETATM   47  C32 UNL     1      -9.821  16.893  24.604  1.00  0.00     0.007 C 
ENDBRANCH  25  42
ENDBRANCH   1  25
TORSDOF 11
ENDMDL
MODEL 2
REMARK VINA RESULT: -8.964515092      2.881     10.672
REMARK  11 active torsions:
REMARK  status: ('A' for Active; 'I' for Inactive)
REMARK    1  A    between atoms: C2_2  and  C4_4 
REMARK    2  A    between atoms: C4_4  and  N1_5 
REMARK       I    between atoms: N1_5  and  C5_7 
REMARK    3  A    between atoms: C5_7  and  C6_9 
REMARK       I    between atoms: N2_13  and  C10_14 
REMARK    4  A    between atoms: C10_14  and  C11_16 
REMARK    5  A    between atoms: N3_18  and  C13_20 
REMARK    6  A    between atoms: C13_20  and  N4_22 
REMARK    7  A    between atoms: N4_22  and  C15_25 
REMARK    8  A    between atoms: C15_25  and  C16_26 
REMARK    9  A    between atoms: C15_25  and  C27_42 
REMARK   10  A    between atoms: C16_26  and  O3_27 
REMARK   11  A    between atoms: C25_38  and  C26_39 
ROOT
HETATM    1  N4  UNL     1     -10.314  16.077  29.286  1.00  0.00    -0.043 N 
ATOM      2  H41 UNL     1     -10.370  15.062  29.195  1.00  0.00     0.280 HD
ATOM      3  H42 UNL     1     -10.583  16.129  30.268  1.00  0.00     0.280 HD
ENDROOT
BRANCH   1   4
HETATM    4  C13 UNL     1     -11.251  16.815  28.367  1.00  0.00     0.281 C 
HETATM    5  C14 UNL     1     -11.654  18.073  29.150  1.00  0.00     0.063 C 
BRANCH   4   6
HETATM    6  N3  UNL     1     -12.310  16.025  28.006  1.00  0.00    -0.362 N 
HETATM    7  C11 UNL     1     -13.087  15.131  28.658  1.00  0.00     0.071 C 
HETATM    8  C12 UNL     1     -14.584  15.114  28.384  1.00  0.00     0.074 C 
ATOM      9  H3  UNL     1     -12.572  16.137  27.027  1.00  0.00     0.161 HD
BRANCH   7  10
HETATM   10  C10 UNL     1     -12.607  13.857  29.213  1.00  0.00     0.266 C 
HETATM   11  N2  UNL     1     -13.168  13.278  30.418  1.00  0.00    -0.334 N 
HETATM   12  C6  UNL     1     -12.694  12.104  31.140  1.00  0.00     0.179 C 
HETATM   13  C9  UNL     1     -14.400  13.666  31.062  1.00  0.00     0.127 C 
HETATM   14  C7  UNL     1     -13.986  11.268  31.086  1.00  0.00     0.037 C 
HETATM   15  C8  UNL     1     -15.021  12.329  31.462  1.00  0.00     0.022 C 
HETATM   16  O2  UNL     1     -11.679  13.150  28.687  1.00  0.00    -0.266 OA
BRANCH  12  17
HETATM   17  C5  UNL     1     -12.463  12.504  32.567  1.00  0.00     0.240 C 
HETATM   18  N1  UNL     1     -11.810  13.711  32.913  1.00  0.00    -0.359 N 
ATOM     19  H1  UNL     1     -11.491  14.355  32.189  1.00  0.00     0.162 HD
HETATM   20  O1  UNL     1     -12.864  11.722  33.456  1.00  0.00    -0.271 OA
BRANCH  18  21
HETATM   21  C4  UNL     1     -11.603  14.012  34.306  1.00  0.00     0.126 C 
BRANCH  21  22
HETATM   22  C2  UNL     1     -11.456  15.470  34.605  1.00  0.00    -0.005 C 
HETATM   23  C1  UNL     1     -11.404  16.174  33.240  1.00  0.00     0.011 C 
HETATM   24  C3  UNL     1     -10.162  15.833  35.293  1.00  0.00     0.011 C 
ENDBRANCH  21  22
ENDBRANCH  18  21
ENDBRANCH  12  17
ENDBRANCH   7  10
ENDBRANCH   4   6
ENDBRANCH   1   4
BRANCH   1  25
HETATM   25  C15 UNL     1      -8.939  16.630  29.009  1.00  0.00     0.266 C 
BRANCH  25  26
HETATM   26  C16 UNL     1      -8.481  16.126  27.733  1.00  0.00     0.146 C 
HETATM   27  N5  UNL     1      -8.014  16.498  26.508  1.00  0.00    -0.350 N 
HETATM   28  C17 UNL     1      -7.717  15.438  25.504  1.00  0.00     0.130 C 
HETATM   29  C25 UNL     1      -7.755  17.810  26.012  1.00  0.00     0.175 C 
HETATM   30  C18 UNL     1      -8.462  15.663  24.211  1.00  0.00     0.008 C 
HETATM   31  C19 UNL     1      -7.974  14.642  23.213  1.00  0.00     0.006 C 
HETATM   32  C23 UNL     1      -8.141  17.030  23.636  1.00  0.00    -0.006 C 
HETATM   33  C20 UNL     1      -7.938  15.266  21.837  1.00  0.00     0.000 C 
HETATM   34  C21 UNL     1      -6.846  16.293  21.699  1.00  0.00     0.000 C 
HETATM   35  C22 UNL     1      -6.750  17.050  23.032  1.00  0.00     0.005 C 
HETATM   36  C24 UNL     1      -8.354  18.107  24.643  1.00  0.00     0.039 C 
BRANCH  26  37
HETATM   37  O3  UNL     1      -8.543  14.768  27.766  1.00  0.00    -0.348 OA
ATOM     38  H3  UNL     1      -7.804  14.424  27.279  1.00  0.00     0.219 HD
ENDBRANCH  26  37
BRANCH  29  39
HETATM   39  C26 UNL     1      -6.279  18.026  25.982  1.00  0.00     0.254 C 
HETATM   40  N6  UNL     1      -5.772  19.244  25.488  1.00  0.00    -0.060 NA
HETATM   41  O4  UNL     1      -5.496  17.148  26.382  1.00  0.00    -0.275 OA
ENDBRANCH  29  39
ENDBRANCH  25  26
BRANCH  25  42
HETATM   42  C27 UNL     1      -8.209  16.354  30.273  1.00  0.00     0.024 C 
HETATM   43  C28 UNL     1      -8.624  15.150  31.068  1.00  0.00     0.007 C 
HETATM   44  C29 UNL     1      -7.356  14.683  31.826  1.00  0.00     0.000 C 
HETATM   45  C30 UNL     1      -6.808  15.884  32.528  1.00  0.00     0.000 C 
HETATM   46  C31 UNL     1      -7.799  17.023  32.582  1.00  0.00     0.000 C 
HETATM   47  C32 UNL     1      -8.122  17.570  31.193  1.00  0.00     0.007 C 
ENDBRANCH  25  42
ENDBRANCH   1  25
TORSDOF 11
ENDMDL
MODEL 3
REMARK VINA RESULT: -8.796285697      2.012      9.171
REMARK  11 active torsions:
REMARK  status: ('A' for Active; 'I' for Inactive)
REMARK    1  A    between atoms: C2_2  and  C4_4 
REMARK    2  A    between atoms: C4_4  and  N1_5 
REMARK       I    between atoms: N1_5  and  C5_7 
REMARK    3  A    between atoms: C5_7  and  C6_9 
REMARK       I    between atoms: N2_13  and  C10_14 
REMARK    4  A    between atoms: C10_14  and  C11_16 
REMARK    5  A    between atoms: N3_18  and  C13_20 
REMARK    6  A    between atoms: C13_20  and  N4_22 
REMARK    7  A    between atoms: N4_22  and  C15_25 
REMARK    8  A    between atoms: C15_25  and  C16_26 
REMARK    9  A    between atoms: C15_25  and  C27_42 
REMARK   10  A    between atoms: C16_26  and  O3_27 
REMARK   11  A    between atoms: C25_38  and  C26_39 
ROOT
HETATM    1  N4  UNL     1      -8.103  18.311  24.395  1.00  0.00    -0.043 N 
ATOM      2  H41 UNL     1      -7.814  19.285  24.486  1.00  0.00     0.280 HD
ATOM      3  H42 UNL     1      -8.849  18.466  23.716  1.00  0.00     0.280 HD
ENDROOT
BRANCH   1   4
HETATM    4  C13 UNL     1      -8.583  17.704  25.686  1.00  0.00     0.281 C 
HETATM    5  C14 UNL     1     -10.096  17.525  25.494  1.00  0.00     0.063 C 
BRANCH   4   6
HETATM    6  N3  UNL     1      -8.251  18.495  26.755  1.00  0.00    -0.362 N 
HETATM    7  C11 UNL     1      -7.192  18.556  27.592  1.00  0.00     0.071 C 
HETATM    8  C12 UNL     1      -6.654  19.918  28.007  1.00  0.00     0.074 C 
ATOM      9  H3  UNL     1      -8.963  19.194  26.966  1.00  0.00     0.161 HD
BRANCH   7  10
HETATM   10  C10 UNL     1      -6.813  17.495  28.537  1.00  0.00     0.266 C 
HETATM   11  N2  UNL     1      -7.774  16.870  29.424  1.00  0.00    -0.334 N 
HETATM   12  C6  UNL     1      -7.504  15.914  30.491  1.00  0.00     0.179 C 
HETATM   13  C9  UNL     1      -9.212  16.959  29.330  1.00  0.00     0.127 C 
HETATM   14  C7  UNL     1      -8.401  14.764  29.998  1.00  0.00     0.037 C 
HETATM   15  C8  UNL     1      -9.671  15.534  29.636  1.00  0.00     0.022 C 
HETATM   16  O2  UNL     1      -5.628  17.026  28.652  1.00  0.00    -0.266 OA
BRANCH  12  17
HETATM   17  C5  UNL     1      -8.104  16.456  31.755  1.00  0.00     0.240 C 
HETATM   18  N1  UNL     1      -8.777  15.627  32.684  1.00  0.00    -0.359 N 
ATOM     19  H1  UNL     1      -8.858  14.624  32.521  1.00  0.00     0.162 HD
HETATM   20  O1  UNL     1      -7.995  17.685  31.962  1.00  0.00    -0.271 OA
BRANCH  18  21
HETATM   21  C4  UNL     1      -9.348  16.229  33.862  1.00  0.00     0.126 C 
BRANCH  21  22
HETATM   22  C2  UNL     1     -10.843  16.279  33.864  1.00  0.00    -0.005 C 
HETATM   23  C1  UNL     1     -11.272  15.920  35.296  1.00  0.00     0.011 C 
HETATM   24  C3  UNL     1     -11.498  15.247  32.978  1.00  0.00     0.011 C 
ENDBRANCH  21  22
ENDBRANCH  18  21
ENDBRANCH  12  17
ENDBRANCH   7  10
ENDBRANCH   4   6
ENDBRANCH   1   4
BRANCH   1  25
HETATM   25  C15 UNL     1      -7.009  17.404  23.890  1.00  0.00     0.266 C 
BRANCH  25  26
HETATM   26  C16 UNL     1      -5.758  18.129  23.907  1.00  0.00     0.146 C 
HETATM   27  N5  UNL     1      -4.427  18.029  23.630  1.00  0.00    -0.350 N 
HETATM   28  C17 UNL     1      -3.549  19.200  23.908  1.00  0.00     0.130 C 
HETATM   29  C25 UNL     1      -3.708  16.922  23.091  1.00  0.00     0.175 C 
HETATM   30  C18 UNL     1      -2.396  18.838  24.812  1.00  0.00     0.008 C 
HETATM   31  C19 UNL     1      -1.485  20.036  24.900  1.00  0.00     0.006 C 
HETATM   32  C23 UNL     1      -1.581  17.705  24.217  1.00  0.00    -0.006 C 
HETATM   33  C20 UNL     1      -0.049  19.568  24.977  1.00  0.00     0.000 C 
HETATM   34  C21 UNL     1       0.434  18.980  23.678  1.00  0.00     0.000 C 
HETATM   35  C22 UNL     1      -0.735  18.200  23.059  1.00  0.00     0.005 C 
HETATM   36  C24 UNL     1      -2.443  16.547  23.854  1.00  0.00     0.039 C 
BRANCH  26  37
HETATM   37  O3  UNL     1      -5.998  19.380  24.381  1.00  0.00    -0.348 OA
ATOM     38  H3  UNL     1      -6.483  19.302  25.193  1.00  0.00     0.219 HD
ENDBRANCH  26  37
BRANCH  29  39
HETATM   39  C26 UNL     1      -3.375  17.216  21.666  1.00  0.00     0.254 C 
HETATM   40  N6  UNL     1      -2.722  16.234  20.896  1.00  0.00    -0.060 NA
HETATM   41  O4  UNL     1      -3.664  18.311  21.156  1.00  0.00    -0.275 OA
ENDBRANCH  29  39
ENDBRANCH  25  26
BRANCH  25  42
HETATM   42  C27 UNL     1      -7.585  16.855  22.637  1.00  0.00     0.024 C 
HETATM   43  C28 UNL     1      -8.602  17.690  21.913  1.00  0.00     0.007 C 
HETATM   44  C29 UNL     1      -8.476  17.312  20.416  1.00  0.00     0.000 C 
HETATM   45  C30 UNL     1      -8.550  15.820  20.341  1.00  0.00     0.000 C 
HETATM   46  C31 UNL     1      -9.064  15.203  21.621  1.00  0.00     0.000 C 
HETATM   47  C32 UNL     1      -8.110  15.429  22.791  1.00  0.00     0.007 C 
ENDBRANCH  25  42
ENDBRANCH   1  25
TORSDOF 11
ENDMDL
MODEL 4
REMARK VINA RESULT: -8.783894336      1.962      9.516
REMARK  11 active torsions:
REMARK  status: ('A' for Active; 'I' for Inactive)
REMARK    1  A    between atoms: C2_2  and  C4_4 
REMARK    2  A    between atoms: C4_4  and  N1_5 
REMARK       I    between atoms: N1_5  and  C5_7 
REMARK    3  A    between atoms: C5_7  and  C6_9 
REMARK       I    between atoms: N2_13  and  C10_14 
REMARK    4  A    between atoms: C10_14  and  C11_16 
REMARK    5  A    between atoms: N3_18  and  C13_20 
REMARK    6  A    between atoms: C13_20  and  N4_22 
REMARK    7  A    between atoms: N4_22  and  C15_25 
REMARK    8  A    between atoms: C15_25  and  C16_26 
REMARK    9  A    between atoms: C15_25  and  C27_42 
REMARK   10  A    between atoms: C16_26  and  O3_27 
REMARK   11  A    between atoms: C25_38  and  C26_39 
ROOT
HETATM    1  N4  UNL     1      -7.627  18.653  25.963  1.00  0.00    -0.043 N 
ATOM      2  H41 UNL     1      -7.081  19.246  26.589  1.00  0.00     0.280 HD
ATOM      3  H42 UNL     1      -8.028  19.404  25.401  1.00  0.00     0.280 HD
ENDROOT
BRANCH   1   4
HETATM    4  C13 UNL     1      -8.658  17.818  26.673  1.00  0.00     0.281 C 
HETATM    5  C14 UNL     1      -9.881  18.737  26.805  1.00  0.00     0.063 C 
BRANCH   4   6
HETATM    6  N3  UNL     1      -8.179  17.359  27.872  1.00  0.00    -0.362 N 
HETATM    7  C11 UNL     1      -7.865  16.138  28.359  1.00  0.00     0.071 C 
HETATM    8  C12 UNL     1      -6.618  15.982  29.218  1.00  0.00     0.074 C 
ATOM      9  H3  UNL     1      -8.024  18.107  28.548  1.00  0.00     0.161 HD
BRANCH   7  10
HETATM   10  C10 UNL     1      -8.832  15.053  28.579  1.00  0.00     0.266 C 
HETATM   11  N2  UNL     1     -10.095  15.269  29.257  1.00  0.00    -0.334 N 
HETATM   12  C6  UNL     1     -11.070  14.261  29.655  1.00  0.00     0.179 C 
HETATM   13  C9  UNL     1     -10.707  16.544  29.543  1.00  0.00     0.127 C 
HETATM   14  C7  UNL     1     -12.290  14.813  28.895  1.00  0.00     0.037 C 
HETATM   15  C8  UNL     1     -12.184  16.299  29.237  1.00  0.00     0.022 C 
HETATM   16  O2  UNL     1      -8.659  13.847  28.188  1.00  0.00    -0.266 OA
BRANCH  12  17
HETATM   17  C5  UNL     1     -11.329  14.427  31.124  1.00  0.00     0.240 C 
HETATM   18  N1  UNL     1     -10.299  14.761  32.035  1.00  0.00    -0.359 N 
ATOM     19  H1  UNL     1      -9.345  14.915  31.708  1.00  0.00     0.162 HD
HETATM   20  O1  UNL     1     -12.500  14.250  31.525  1.00  0.00    -0.271 OA
BRANCH  18  21
HETATM   21  C4  UNL     1     -10.623  14.877  33.434  1.00  0.00     0.126 C 
BRANCH  21  22
HETATM   22  C2  UNL     1     -10.391  16.239  34.008  1.00  0.00    -0.005 C 
HETATM   23  C1  UNL     1      -9.196  16.820  33.236  1.00  0.00     0.011 C 
HETATM   24  C3  UNL     1      -9.970  16.236  35.458  1.00  0.00     0.011 C 
ENDBRANCH  21  22
ENDBRANCH  18  21
ENDBRANCH  12  17
ENDBRANCH   7  10
ENDBRANCH   4   6
ENDBRANCH   1   4
BRANCH   1  25
HETATM   25  C15 UNL     1      -6.787  17.688  25.164  1.00  0.00     0.266 C 
BRANCH  25  26
HETATM   26  C16 UNL     1      -5.500  18.293  24.905  1.00  0.00     0.146 C 
HETATM   27  N5  UNL     1      -4.287  18.086  24.321  1.00  0.00    -0.350 N 
HETATM   28  C17 UNL     1      -3.255  19.158  24.416  1.00  0.00     0.130 C 
HETATM   29  C25 UNL     1      -3.827  16.947  23.597  1.00  0.00     0.175 C 
HETATM   30  C18 UNL     1      -1.966  18.647  25.012  1.00  0.00     0.008 C 
HETATM   31  C19 UNL     1      -0.943  19.751  24.916  1.00  0.00     0.006 C 
HETATM   32  C23 UNL     1      -1.429  17.476  24.210  1.00  0.00    -0.006 C 
HETATM   33  C20 UNL     1       0.416  19.150  24.639  1.00  0.00     0.000 C 
HETATM   34  C21 UNL     1       0.523  18.587  23.247  1.00  0.00     0.000 C 
HETATM   35  C22 UNL     1      -0.830  17.949  22.900  1.00  0.00     0.005 C 
HETATM   36  C24 UNL     1      -2.464  16.420  24.030  1.00  0.00     0.039 C 
BRANCH  26  37
HETATM   37  O3  UNL     1      -5.496  19.536  25.457  1.00  0.00    -0.348 OA
ATOM     38  H3  UNL     1      -4.601  19.854  25.468  1.00  0.00     0.219 HD
ENDBRANCH  26  37
BRANCH  29  39
HETATM   39  C26 UNL     1      -3.806  17.281  22.142  1.00  0.00     0.254 C 
HETATM   40  N6  UNL     1      -3.391  16.303  21.218  1.00  0.00    -0.060 NA
HETATM   41  O4  UNL     1      -4.145  18.407  21.740  1.00  0.00    -0.275 OA
ENDBRANCH  29  39
ENDBRANCH  25  26
BRANCH  25  42
HETATM   42  C27 UNL     1      -7.702  17.280  24.067  1.00  0.00     0.024 C 
HETATM   43  C28 UNL     1      -7.578  15.879  23.542  1.00  0.00     0.007 C 
HETATM   44  C29 UNL     1      -8.986  15.492  23.025  1.00  0.00     0.000 C 
HETATM   45  C30 UNL     1      -9.427  16.592  22.113  1.00  0.00     0.000 C 
HETATM   46  C31 UNL     1      -8.288  17.499  21.710  1.00  0.00     0.000 C 
HETATM   47  C32 UNL     1      -7.715  18.265  22.900  1.00  0.00     0.007 C 
ENDBRANCH  25  42
ENDBRANCH   1  25
TORSDOF 11
ENDMDL
MODEL 5
REMARK VINA RESULT: -8.730790393      1.925      5.870
REMARK  11 active torsions:
REMARK  status: ('A' for Active; 'I' for Inactive)
REMARK    1  A    between atoms: C2_2  and  C4_4 
REMARK    2  A    between atoms: C4_4  and  N1_5 
REMARK       I    between atoms: N1_5  and  C5_7 
REMARK    3  A    between atoms: C5_7  and  C6_9 
REMARK       I    between atoms: N2_13  and  C10_14 
REMARK    4  A    between atoms: C10_14  and  C11_16 
REMARK    5  A    between atoms: N3_18  and  C13_20 
REMARK    6  A    between atoms: C13_20  and  N4_22 
REMARK    7  A    between atoms: N4_22  and  C15_25 
REMARK    8  A    between atoms: C15_25  and  C16_26 
REMARK    9  A    between atoms: C15_25  and  C27_42 
REMARK   10  A    between atoms: C16_26  and  O3_27 
REMARK   11  A    between atoms: C25_38  and  C26_39 
ROOT
HETATM    1  N4  UNL     1      -8.615  15.686  28.974  1.00  0.00    -0.043 N 
ATOM      2  H41 UNL     1      -8.855  16.533  28.459  1.00  0.00     0.280 HD
ATOM      3  H42 UNL     1      -9.327  15.776  29.700  1.00  0.00     0.280 HD
ENDROOT
BRANCH   1   4
HETATM    4  C13 UNL     1      -7.208  15.685  29.509  1.00  0.00     0.281 C 
HETATM    5  C14 UNL     1      -7.370  15.546  31.030  1.00  0.00     0.063 C 
BRANCH   4   6
HETATM    6  N3  UNL     1      -6.536  16.815  29.125  1.00  0.00    -0.362 N 
HETATM    7  C11 UNL     1      -6.121  17.311  27.938  1.00  0.00     0.071 C 
HETATM    8  C12 UNL     1      -6.256  18.803  27.671  1.00  0.00     0.074 C 
ATOM      9  H3  UNL     1      -6.293  17.418  29.912  1.00  0.00     0.161 HD
BRANCH   7  10
HETATM   10  C10 UNL     1      -5.110  16.680  27.078  1.00  0.00     0.266 C 
HETATM   11  N2  UNL     1      -4.528  17.362  25.939  1.00  0.00    -0.334 N 
HETATM   12  C6  UNL     1      -3.627  16.804  24.937  1.00  0.00     0.179 C 
HETATM   13  C9  UNL     1      -4.611  18.774  25.652  1.00  0.00     0.127 C 
HETATM   14  C7  UNL     1      -2.453  17.782  25.119  1.00  0.00     0.037 C 
HETATM   15  C8  UNL     1      -3.202  19.114  25.167  1.00  0.00     0.022 C 
HETATM   16  O2  UNL     1      -4.649  15.500  27.260  1.00  0.00    -0.266 OA
BRANCH  12  17
HETATM   17  C5  UNL     1      -4.231  17.054  23.587  1.00  0.00     0.240 C 
HETATM   18  N1  UNL     1      -3.440  17.361  22.455  1.00  0.00    -0.359 N 
ATOM     19  H1  UNL     1      -2.423  17.403  22.527  1.00  0.00     0.162 HD
HETATM   20  O1  UNL     1      -5.477  16.992  23.493  1.00  0.00    -0.271 OA
BRANCH  18  21
HETATM   21  C4  UNL     1      -4.097  17.614  21.198  1.00  0.00     0.126 C 
BRANCH  21  22
HETATM   22  C2  UNL     1      -4.218  16.413  20.315  1.00  0.00    -0.005 C 
HETATM   23  C1  UNL     1      -3.004  16.462  19.373  1.00  0.00     0.011 C 
HETATM   24  C3  UNL     1      -5.428  16.428  19.411  1.00  0.00     0.011 C 
ENDBRANCH  21  22
ENDBRANCH  18  21
ENDBRANCH  12  17
ENDBRANCH   7  10
ENDBRANCH   4   6
ENDBRANCH   1   4
BRANCH   1  25
HETATM   25  C15 UNL     1      -8.749  14.427  28.155  1.00  0.00     0.266 C 
BRANCH  25  26
HETATM   26  C16 UNL     1      -8.365  14.715  26.790  1.00  0.00     0.146 C 
HETATM   27  N5  UNL     1      -8.692  15.448  25.689  1.00  0.00    -0.350 N 
HETATM   28  C17 UNL     1      -7.873  15.287  24.454  1.00  0.00     0.130 C 
HETATM   29  C25 UNL     1      -9.748  16.391  25.525  1.00  0.00     0.175 C 
HETATM   30  C18 UNL     1      -8.721  14.918  23.262  1.00  0.00     0.008 C 
HETATM   31  C19 UNL     1      -7.834  14.938  22.041  1.00  0.00     0.006 C 
HETATM   32  C23 UNL     1      -9.809  15.951  23.034  1.00  0.00    -0.006 C 
HETATM   33  C20 UNL     1      -8.624  15.448  20.858  1.00  0.00     0.000 C 
HETATM   34  C21 UNL     1      -8.938  16.916  20.965  1.00  0.00     0.000 C 
HETATM   35  C22 UNL     1      -9.231  17.222  22.441  1.00  0.00     0.005 C 
HETATM   36  C24 UNL     1     -10.596  16.193  24.274  1.00  0.00     0.039 C 
BRANCH  26  37
HETATM   37  O3  UNL     1      -7.266  13.972  26.492  1.00  0.00    -0.348 OA
ATOM     38  H3  UNL     1      -6.589  14.176  27.126  1.00  0.00     0.219 HD
ENDBRANCH  26  37
BRANCH  29  39
HETATM   39  C26 UNL     1      -9.167  17.766  25.535  1.00  0.00     0.254 C 
HETATM   40  N6  UNL     1      -9.918  18.826  26.082  1.00  0.00    -0.060 NA
HETATM   41  O4  UNL     1      -8.038  17.986  25.067  1.00  0.00    -0.275 OA
ENDBRANCH  29  39
ENDBRANCH  25  26
BRANCH  25  42
HETATM   42  C27 UNL     1     -10.109  13.945  28.505  1.00  0.00     0.024 C 
HETATM   43  C28 UNL     1     -11.277  14.795  28.094  1.00  0.00     0.007 C 
HETATM   44  C29 UNL     1     -12.463  13.819  27.890  1.00  0.00     0.000 C 
HETATM   45  C30 UNL     1     -12.550  12.984  29.127  1.00  0.00     0.000 C 
HETATM   46  C31 UNL     1     -11.747  13.560  30.270  1.00  0.00     0.000 C 
HETATM   47  C32 UNL     1     -10.249  13.561  29.977  1.00  0.00     0.007 C 
ENDBRANCH  25  42
ENDBRANCH   1  25
TORSDOF 11
ENDMDL
