MODEL 1
REMARK VINA RESULT: -9.465039395      0.000      0.000
REMARK  12 active torsions:
REMARK  status: ('A' for Active; 'I' for Inactive)
REMARK    1  A    between atoms: C2_2  and  C4_4 
REMARK    2  A    between atoms: C4_4  and  C5_5 
REMARK    3  A    between atoms: C4_4  and  N3_21 
REMARK    4  A    between atoms: C5_5  and  C6_6 
REMARK    5  A    between atoms: C8_11  and  N2_13 
REMARK       I    between atoms: N3_21  and  C16_23 
REMARK       I    between atoms: C16_23  and  N4_25 
REMARK    6  A    between atoms: N4_25  and  C18_27 
REMARK    7  A    between atoms: C18_27  and  C19_28 
REMARK    8  A    between atoms: N5_32  and  C23_33 
REMARK    9  A    between atoms: C23_33  and  O4_34 
REMARK   10  A    between atoms: C23_33  and  C24_36 
REMARK   11  A    between atoms: C24_36  and  N6_37 
REMARK   12  A    between atoms: C24_36  and  C26_44 
REMARK       I    between atoms: N6_37  and  C25_39 
ROOT
HETATM    1  N3  UNL     1      -8.780  16.283  26.912  1.00  0.00    -0.338 N 
ATOM      2  H3  UNL     1      -9.044  15.298  26.934  1.00  0.00     0.164 HD
HETATM    3  C16 UNL     1      -9.533  17.203  27.696  1.00  0.00     0.318 C 
HETATM    4  O3  UNL     1      -9.180  18.403  27.619  1.00  0.00    -0.247 OA
HETATM    5  N4  UNL     1     -10.611  16.794  28.518  1.00  0.00    -0.337 N 
HETATM    6  C17 UNL     1     -11.284  17.855  29.283  1.00  0.00     0.154 C 
ENDROOT
BRANCH   5   7
HETATM    7  C18 UNL     1     -11.005  15.417  28.551  1.00  0.00     0.152 C 
BRANCH   7   8
HETATM    8  C19 UNL     1     -12.247  15.199  29.332  1.00  0.00     0.104 C 
HETATM    9  C20 UNL     1     -13.211  14.293  28.629  1.00  0.00     0.028 C 
HETATM   10  C21 UNL     1     -12.580  12.944  28.850  1.00  0.00     0.022 C 
HETATM   11  C22 UNL     1     -11.924  13.083  30.232  1.00  0.00     0.125 C 
HETATM   12  N5  UNL     1     -12.002  14.458  30.596  1.00  0.00    -0.357 N 
BRANCH  12  13
HETATM   13  C23 UNL     1     -11.889  15.116  31.821  1.00  0.00     0.137 C 
BRANCH  13  14
HETATM   14  O4  UNL     1     -12.925  15.821  32.212  1.00  0.00    -0.348 OA
ATOM     15  H4  UNL     1     -13.691  15.335  32.496  1.00  0.00     0.219 HD
ENDBRANCH  13  14
BRANCH  13  16
HETATM   16  C24 UNL     1     -10.713  15.095  32.725  1.00  0.00     0.163 C 
BRANCH  16  17
HETATM   17  N6  UNL     1     -11.133  15.616  33.995  1.00  0.00    -0.352 N 
HETATM   18  C25 UNL     1     -11.268  14.979  35.231  1.00  0.00     0.182 C 
HETATM   19  N7  UNL     1     -10.529  15.394  36.241  1.00  0.00    -0.374 N 
HETATM   20  N8  UNL     1     -12.144  13.918  35.559  1.00  0.00    -0.064 NA
ATOM     21  H72 UNL     1      -9.897  16.159  36.004  1.00  0.00     0.158 HD
ATOM     22  H71 UNL     1     -10.628  14.929  37.144  1.00  0.00     0.158 HD
ATOM     23  H6  UNL     1     -11.370  16.608  33.995  1.00  0.00     0.163 HD
ENDBRANCH  16  17
BRANCH  16  24
HETATM   24  C26 UNL     1      -9.487  15.677  32.143  1.00  0.00     0.016 C 
HETATM   25  C27 UNL     1      -8.724  16.652  32.967  1.00  0.00     0.007 C 
HETATM   26  C28 UNL     1      -7.647  17.286  32.115  1.00  0.00     0.000 C 
HETATM   27  C29 UNL     1      -7.703  16.819  30.690  1.00  0.00     0.000 C 
HETATM   28  C30 UNL     1      -7.680  15.314  30.538  1.00  0.00     0.000 C 
HETATM   29  C31 UNL     1      -8.471  14.638  31.648  1.00  0.00     0.007 C 
ENDBRANCH  16  24
ENDBRANCH  13  16
ENDBRANCH  12  13
ENDBRANCH   7   8
ENDBRANCH   5   7
BRANCH   1  30
HETATM   30  C4  UNL     1      -7.654  16.678  26.080  1.00  0.00     0.091 C 
BRANCH  30  31
HETATM   31  C2  UNL     1      -6.539  15.698  26.455  1.00  0.00     0.000 C 
HETATM   32  C1  UNL     1      -5.657  16.265  27.515  1.00  0.00     0.011 C 
HETATM   33  C3  UNL     1      -7.124  14.386  26.927  1.00  0.00     0.011 C 
ENDBRANCH  30  31
BRANCH  30  34
HETATM   34  C5  UNL     1      -7.946  16.614  24.618  1.00  0.00     0.058 C 
BRANCH  34  35
HETATM   35  C6  UNL     1      -7.657  17.902  23.886  1.00  0.00     0.156 C 
HETATM   36  N1  UNL     1      -8.374  17.861  22.620  1.00  0.00    -0.347 N 
HETATM   37  C7  UNL     1      -7.664  17.758  21.407  1.00  0.00     0.246 C 
ATOM     38  H1  UNL     1      -9.393  17.907  22.610  1.00  0.00     0.163 HD
HETATM   39  O1  UNL     1      -8.118  18.308  20.343  1.00  0.00    -0.271 OA
HETATM   40  C8  UNL     1      -6.374  17.038  21.226  1.00  0.00     0.112 C 
HETATM   41  C9  UNL     1      -6.775  15.563  21.052  1.00  0.00     0.049 C 
HETATM   42  C14 UNL     1      -5.573  17.108  22.519  1.00  0.00     0.121 C 
HETATM   43  C15 UNL     1      -6.208  17.990  23.513  1.00  0.00     0.152 C 
HETATM   44  O2  UNL     1      -5.539  18.839  24.070  1.00  0.00    -0.296 OA
BRANCH  40  45
HETATM   45  N2  UNL     1      -5.634  17.391  20.084  1.00  0.00    -0.396 N 
HETATM   46  C10 UNL     1      -5.455  16.433  19.056  1.00  0.00     0.118 C 
HETATM   47  C11 UNL     1      -4.614  17.235  18.049  1.00  0.00     0.021 C 
HETATM   48  C12 UNL     1      -3.630  17.914  18.965  1.00  0.00     0.021 C 
HETATM   49  C13 UNL     1      -4.478  18.188  20.218  1.00  0.00     0.118 C 
ENDBRANCH  40  45
ENDBRANCH  34  35
ENDBRANCH  30  34
ENDBRANCH   1  30
TORSDOF 12
ENDMDL
MODEL 2
REMARK VINA RESULT: -9.451457177      2.513      3.966
REMARK  12 active torsions:
REMARK  status: ('A' for Active; 'I' for Inactive)
REMARK    1  A    between atoms: C2_2  and  C4_4 
REMARK    2  A    between atoms: C4_4  and  C5_5 
REMARK    3  A    between atoms: C4_4  and  N3_21 
REMARK    4  A    between atoms: C5_5  and  C6_6 
REMARK    5  A    between atoms: C8_11  and  N2_13 
REMARK       I    between atoms: N3_21  and  C16_23 
REMARK       I    between atoms: C16_23  and  N4_25 
REMARK    6  A    between atoms: N4_25  and  C18_27 
REMARK    7  A    between atoms: C18_27  and  C19_28 
REMARK    8  A    between atoms: N5_32  and  C23_33 
REMARK    9  A    between atoms: C23_33  and  O4_34 
REMARK   10  A    between atoms: C23_33  and  C24_36 
REMARK   11  A    between atoms: C24_36  and  N6_37 
REMARK   12  A    between atoms: C24_36  and  C26_44 
REMARK       I    between atoms: N6_37  and  C25_39 
ROOT
HETATM    1  N3  UNL     1      -8.642  15.920  29.610  1.00  0.00    -0.338 N 
ATOM      2  H3  UNL     1      -8.717  14.907  29.696  1.00  0.00     0.164 HD
HETATM    3  C16 UNL     1      -9.830  16.667  29.366  1.00  0.00     0.318 C 
HETATM    4  O3  UNL     1      -9.681  17.906  29.250  1.00  0.00    -0.247 OA
HETATM    5  N4  UNL     1     -11.102  16.055  29.262  1.00  0.00    -0.337 N 
HETATM    6  C17 UNL     1     -12.240  16.958  29.024  1.00  0.00     0.154 C 
ENDROOT
BRANCH   5   7
HETATM    7  C18 UNL     1     -11.224  14.632  29.366  1.00  0.00     0.152 C 
BRANCH   7   8
HETATM    8  C19 UNL     1     -12.624  14.196  29.594  1.00  0.00     0.104 C 
HETATM    9  C20 UNL     1     -13.083  13.198  28.576  1.00  0.00     0.028 C 
HETATM   10  C21 UNL     1     -12.391  11.945  29.040  1.00  0.00     0.022 C 
HETATM   11  C22 UNL     1     -12.358  12.104  30.567  1.00  0.00     0.125 C 
HETATM   12  N5  UNL     1     -12.783  13.432  30.858  1.00  0.00    -0.357 N 
BRANCH  12  13
HETATM   13  C23 UNL     1     -13.260  14.034  32.023  1.00  0.00     0.137 C 
BRANCH  13  14
HETATM   14  O4  UNL     1     -14.128  15.007  31.872  1.00  0.00    -0.348 OA
ATOM     15  H4  UNL     1     -14.044  15.751  32.459  1.00  0.00     0.219 HD
ENDBRANCH  13  14
BRANCH  13  16
HETATM   16  C24 UNL     1     -12.885  13.681  33.414  1.00  0.00     0.163 C 
BRANCH  16  17
HETATM   17  N6  UNL     1     -14.099  13.460  34.148  1.00  0.00    -0.352 N 
HETATM   18  C25 UNL     1     -14.875  12.305  34.282  1.00  0.00     0.182 C 
HETATM   19  N7  UNL     1     -15.033  11.785  35.483  1.00  0.00    -0.374 N 
HETATM   20  N8  UNL     1     -15.557  11.606  33.259  1.00  0.00    -0.064 NA
ATOM     21  H72 UNL     1     -14.541  12.290  36.220  1.00  0.00     0.158 HD
ATOM     22  H71 UNL     1     -15.600  10.943  35.581  1.00  0.00     0.158 HD
ATOM     23  H6  UNL     1     -14.451  14.274  34.651  1.00  0.00     0.163 HD
ENDBRANCH  16  17
BRANCH  16  24
HETATM   24  C26 UNL     1     -11.896  14.590  34.027  1.00  0.00     0.016 C 
HETATM   25  C27 UNL     1     -11.211  14.133  35.265  1.00  0.00     0.007 C 
HETATM   26  C28 UNL     1     -10.418  15.283  35.846  1.00  0.00     0.000 C 
HETATM   27  C29 UNL     1     -10.606  16.552  35.067  1.00  0.00     0.000 C 
HETATM   28  C30 UNL     1     -10.325  16.409  33.587  1.00  0.00     0.000 C 
HETATM   29  C31 UNL     1     -10.794  15.058  33.068  1.00  0.00     0.007 C 
ENDBRANCH  16  24
ENDBRANCH  13  16
ENDBRANCH  12  13
ENDBRANCH   7   8
ENDBRANCH   5   7
BRANCH   1  30
HETATM   30  C4  UNL     1      -7.328  16.530  29.744  1.00  0.00     0.091 C 
BRANCH  30  31
HETATM   31  C2  UNL     1      -6.916  16.238  31.189  1.00  0.00     0.000 C 
HETATM   32  C1  UNL     1      -7.441  17.277  32.120  1.00  0.00     0.011 C 
HETATM   33  C3  UNL     1      -7.412  14.875  31.616  1.00  0.00     0.011 C 
ENDBRANCH  30  31
BRANCH  30  34
HETATM   34  C5  UNL     1      -6.322  15.986  28.786  1.00  0.00     0.058 C 
BRANCH  34  35
HETATM   35  C6  UNL     1      -6.045  16.898  27.616  1.00  0.00     0.156 C 
HETATM   36  N1  UNL     1      -7.289  17.575  27.280  1.00  0.00    -0.347 N 
HETATM   37  C7  UNL     1      -7.952  17.279  26.071  1.00  0.00     0.246 C 
ATOM     38  H1  UNL     1      -7.683  18.265  27.920  1.00  0.00     0.163 HD
HETATM   39  O1  UNL     1      -8.621  18.185  25.461  1.00  0.00    -0.271 OA
HETATM   40  C8  UNL     1      -7.955  15.952  25.396  1.00  0.00     0.112 C 
HETATM   41  C9  UNL     1      -9.046  15.149  26.127  1.00  0.00     0.049 C 
HETATM   42  C14 UNL     1      -6.642  15.238  25.685  1.00  0.00     0.121 C 
HETATM   43  C15 UNL     1      -5.687  16.106  26.396  1.00  0.00     0.152 C 
HETATM   44  O2  UNL     1      -4.546  16.198  25.986  1.00  0.00    -0.296 OA
BRANCH  40  45
HETATM   45  N2  UNL     1      -8.306  15.961  24.036  1.00  0.00    -0.396 N 
HETATM   46  C10 UNL     1      -9.365  15.131  23.591  1.00  0.00     0.118 C 
HETATM   47  C11 UNL     1      -9.388  15.461  22.090  1.00  0.00     0.021 C 
HETATM   48  C12 UNL     1      -7.916  15.462  21.768  1.00  0.00     0.021 C 
HETATM   49  C13 UNL     1      -7.297  16.036  23.054  1.00  0.00     0.118 C 
ENDBRANCH  40  45
ENDBRANCH  34  35
ENDBRANCH  30  34
ENDBRANCH   1  30
TORSDOF 12
ENDMDL
MODEL 3
REMARK VINA RESULT: -9.157068993      2.174      2.763
REMARK  12 active torsions:
REMARK  status: ('A' for Active; 'I' for Inactive)
REMARK    1  A    between atoms: C2_2  and  C4_4 
REMARK    2  A    between atoms: C4_4  and  C5_5 
REMARK    3  A    between atoms: C4_4  and  N3_21 
REMARK    4  A    between atoms: C5_5  and  C6_6 
REMARK    5  A    between atoms: C8_11  and  N2_13 
REMARK       I    between atoms: N3_21  and  C16_23 
REMARK       I    between atoms: C16_23  and  N4_25 
REMARK    6  A    between atoms: N4_25  and  C18_27 
REMARK    7  A    between atoms: C18_27  and  C19_28 
REMARK    8  A    between atoms: N5_32  and  C23_33 
REMARK    9  A    between atoms: C23_33  and  O4_34 
REMARK   10  A    between atoms: C23_33  and  C24_36 
REMARK   11  A    between atoms: C24_36  and  N6_37 
REMARK   12  A    between atoms: C24_36  and  C26_44 
REMARK       I    between atoms: N6_37  and  C25_39 
ROOT
HETATM    1  N3  UNL     1      -8.300  16.380  27.228  1.00  0.00    -0.338 N 
ATOM      2  H3  UNL     1      -8.580  15.400  27.208  1.00  0.00     0.164 HD
HETATM    3  C16 UNL     1      -9.162  17.319  27.863  1.00  0.00     0.318 C 
HETATM    4  O3  UNL     1      -8.780  18.512  27.842  1.00  0.00    -0.247 OA
HETATM    5  N4  UNL     1     -10.375  16.933  28.483  1.00  0.00    -0.337 N 
HETATM    6  C17 UNL     1     -11.154  18.011  29.113  1.00  0.00     0.154 C 
ENDROOT
BRANCH   5   7
HETATM    7  C18 UNL     1     -10.793  15.564  28.453  1.00  0.00     0.152 C 
BRANCH   7   8
HETATM    8  C19 UNL     1     -12.083  15.346  29.153  1.00  0.00     0.104 C 
HETATM    9  C20 UNL     1     -13.018  14.480  28.368  1.00  0.00     0.028 C 
HETATM   10  C21 UNL     1     -12.425  13.113  28.584  1.00  0.00     0.022 C 
HETATM   11  C22 UNL     1     -11.850  13.199  30.006  1.00  0.00     0.125 C 
HETATM   12  N5  UNL     1     -11.926  14.564  30.406  1.00  0.00    -0.357 N 
BRANCH  12  13
HETATM   13  C23 UNL     1     -11.874  15.183  31.655  1.00  0.00     0.137 C 
BRANCH  13  14
HETATM   14  O4  UNL     1     -12.914  15.906  32.001  1.00  0.00    -0.348 OA
ATOM     15  H4  UNL     1     -12.739  16.700  32.493  1.00  0.00     0.219 HD
ENDBRANCH  13  14
BRANCH  13  16
HETATM   16  C24 UNL     1     -10.759  15.104  32.630  1.00  0.00     0.163 C 
BRANCH  16  17
HETATM   17  N6  UNL     1     -11.243  15.608  33.885  1.00  0.00    -0.352 N 
HETATM   18  C25 UNL     1     -11.316  14.992  35.137  1.00  0.00     0.182 C 
HETATM   19  N7  UNL     1     -10.635  15.514  36.138  1.00  0.00    -0.374 N 
HETATM   20  N8  UNL     1     -12.070  13.850  35.490  1.00  0.00    -0.064 NA
ATOM     21  H72 UNL     1     -10.090  16.338  35.883  1.00  0.00     0.158 HD
ATOM     22  H71 UNL     1     -10.688  15.065  37.052  1.00  0.00     0.158 HD
ATOM     23  H6  UNL     1     -11.589  16.567  33.857  1.00  0.00     0.163 HD
ENDBRANCH  16  17
BRANCH  16  24
HETATM   24  C26 UNL     1      -9.481  15.660  32.142  1.00  0.00     0.016 C 
HETATM   25  C27 UNL     1      -8.853  16.751  32.933  1.00  0.00     0.007 C 
HETATM   26  C28 UNL     1      -7.690  17.322  32.153  1.00  0.00     0.000 C 
HETATM   27  C29 UNL     1      -7.550  16.692  30.799  1.00  0.00     0.000 C 
HETATM   28  C30 UNL     1      -7.475  15.181  30.832  1.00  0.00     0.000 C 
HETATM   29  C31 UNL     1      -8.388  14.609  31.907  1.00  0.00     0.007 C 
ENDBRANCH  16  24
ENDBRANCH  13  16
ENDBRANCH  12  13
ENDBRANCH   7   8
ENDBRANCH   5   7
BRANCH   1  30
HETATM   30  C4  UNL     1      -7.037  16.750  26.606  1.00  0.00     0.091 C 
BRANCH  30  31
HETATM   31  C2  UNL     1      -6.112  15.563  26.882  1.00  0.00     0.000 C 
HETATM   32  C1  UNL     1      -5.165  15.864  27.993  1.00  0.00     0.011 C 
HETATM   33  C3  UNL     1      -6.919  14.330  27.222  1.00  0.00     0.011 C 
ENDBRANCH  30  31
BRANCH  30  34
HETATM   34  C5  UNL     1      -7.151  17.002  25.139  1.00  0.00     0.058 C 
BRANCH  34  35
HETATM   35  C6  UNL     1      -6.679  18.374  24.722  1.00  0.00     0.156 C 
HETATM   36  N1  UNL     1      -6.027  18.242  23.427  1.00  0.00    -0.347 N 
HETATM   37  C7  UNL     1      -4.634  18.428  23.313  1.00  0.00     0.246 C 
ATOM     38  H1  UNL     1      -6.579  18.014  22.600  1.00  0.00     0.163 HD
HETATM   39  O1  UNL     1      -4.132  18.918  22.242  1.00  0.00    -0.271 OA
HETATM   40  C8  UNL     1      -3.635  18.096  24.366  1.00  0.00     0.112 C 
HETATM   41  C9  UNL     1      -3.390  16.585  24.204  1.00  0.00     0.049 C 
HETATM   42  C14 UNL     1      -4.270  18.276  25.737  1.00  0.00     0.121 C 
HETATM   43  C15 UNL     1      -5.613  18.875  25.648  1.00  0.00     0.152 C 
HETATM   44  O2  UNL     1      -5.889  19.825  26.355  1.00  0.00    -0.296 OA
BRANCH  40  45
HETATM   45  N2  UNL     1      -2.383  18.722  24.237  1.00  0.00    -0.396 N 
HETATM   46  C10 UNL     1      -1.226  17.921  24.076  1.00  0.00     0.118 C 
HETATM   47  C11 UNL     1      -0.133  18.999  23.980  1.00  0.00     0.021 C 
HETATM   48  C12 UNL     1      -0.553  19.939  25.079  1.00  0.00     0.021 C 
HETATM   49  C13 UNL     1      -2.087  19.861  25.014  1.00  0.00     0.118 C 
ENDBRANCH  40  45
ENDBRANCH  34  35
ENDBRANCH  30  34
ENDBRANCH   1  30
TORSDOF 12
ENDMDL
MODEL 4
REMARK VINA RESULT: -9.056241803      2.593     10.707
REMARK  12 active torsions:
REMARK  status: ('A' for Active; 'I' for Inactive)
REMARK    1  A    between atoms: C2_2  and  C4_4 
REMARK    2  A    between atoms: C4_4  and  C5_5 
REMARK    3  A    between atoms: C4_4  and  N3_21 
REMARK    4  A    between atoms: C5_5  and  C6_6 
REMARK    5  A    between atoms: C8_11  and  N2_13 
REMARK       I    between atoms: N3_21  and  C16_23 
REMARK       I    between atoms: C16_23  and  N4_25 
REMARK    6  A    between atoms: N4_25  and  C18_27 
REMARK    7  A    between atoms: C18_27  and  C19_28 
REMARK    8  A    between atoms: N5_32  and  C23_33 
REMARK    9  A    between atoms: C23_33  and  O4_34 
REMARK   10  A    between atoms: C23_33  and  C24_36 
REMARK   11  A    between atoms: C24_36  and  N6_37 
REMARK   12  A    between atoms: C24_36  and  C26_44 
REMARK       I    between atoms: N6_37  and  C25_39 
ROOT
HETATM    1  N3  UNL     1      -8.264  15.694  29.292  1.00  0.00    -0.338 N 
ATOM      2  H3  UNL     1      -7.930  16.654  29.374  1.00  0.00     0.164 HD
HETATM    3  C16 UNL     1      -7.898  14.946  28.137  1.00  0.00     0.318 C 
HETATM    4  O3  UNL     1      -8.350  13.779  28.077  1.00  0.00    -0.247 OA
HETATM    5  N4  UNL     1      -7.072  15.481  27.119  1.00  0.00    -0.337 N 
HETATM    6  C17 UNL     1      -6.765  14.583  25.993  1.00  0.00     0.154 C 
ENDROOT
BRANCH   5   7
HETATM    7  C18 UNL     1      -6.605  16.832  27.209  1.00  0.00     0.152 C 
BRANCH   7   8
HETATM    8  C19 UNL     1      -7.478  17.785  26.481  1.00  0.00     0.104 C 
HETATM    9  C20 UNL     1      -8.111  18.789  27.395  1.00  0.00     0.028 C 
HETATM   10  C21 UNL     1      -6.961  19.721  27.671  1.00  0.00     0.022 C 
HETATM   11  C22 UNL     1      -6.163  19.695  26.359  1.00  0.00     0.125 C 
HETATM   12  N5  UNL     1      -6.716  18.660  25.553  1.00  0.00    -0.357 N 
BRANCH  12  13
HETATM   13  C23 UNL     1      -6.643  18.389  24.186  1.00  0.00     0.137 C 
BRANCH  13  14
HETATM   14  O4  UNL     1      -6.674  19.422  23.376  1.00  0.00    -0.348 OA
ATOM     15  H4  UNL     1      -5.850  19.681  22.980  1.00  0.00     0.219 HD
ENDBRANCH  13  14
BRANCH  13  16
HETATM   16  C24 UNL     1      -6.531  17.050  23.559  1.00  0.00     0.163 C 
BRANCH  16  17
HETATM   17  N6  UNL     1      -5.168  16.877  23.145  1.00  0.00    -0.352 N 
HETATM   18  C25 UNL     1      -3.982  17.325  23.733  1.00  0.00     0.182 C 
HETATM   19  N7  UNL     1      -3.100  16.433  24.138  1.00  0.00    -0.374 N 
HETATM   20  N8  UNL     1      -3.580  18.665  23.940  1.00  0.00    -0.064 NA
ATOM     21  H72 UNL     1      -3.391  15.466  23.989  1.00  0.00     0.158 HD
ATOM     22  H71 UNL     1      -2.235  16.760  24.567  1.00  0.00     0.158 HD
ATOM     23  H6  UNL     1      -5.045  16.342  22.285  1.00  0.00     0.163 HD
ENDBRANCH  16  17
BRANCH  16  24
HETATM   24  C26 UNL     1      -7.572  16.760  22.552  1.00  0.00     0.016 C 
HETATM   25  C27 UNL     1      -7.168  16.006  21.336  1.00  0.00     0.007 C 
HETATM   26  C28 UNL     1      -8.311  16.011  20.346  1.00  0.00     0.000 C 
HETATM   27  C29 UNL     1      -9.476  16.824  20.830  1.00  0.00     0.000 C 
HETATM   28  C30 UNL     1      -9.968  16.430  22.205  1.00  0.00     0.000 C 
HETATM   29  C31 UNL     1      -8.809  16.047  23.114  1.00  0.00     0.007 C 
ENDBRANCH  16  24
ENDBRANCH  13  16
ENDBRANCH  12  13
ENDBRANCH   7   8
ENDBRANCH   5   7
BRANCH   1  30
HETATM   30  C4  UNL     1      -9.091  15.157  30.362  1.00  0.00     0.091 C 
BRANCH  30  31
HETATM   31  C2  UNL     1      -8.241  15.326  31.625  1.00  0.00     0.000 C 
HETATM   32  C1  UNL     1      -7.295  16.471  31.488  1.00  0.00     0.011 C 
HETATM   33  C3  UNL     1      -9.126  15.538  32.833  1.00  0.00     0.011 C 
ENDBRANCH  30  31
BRANCH  30  34
HETATM   34  C5  UNL     1     -10.400  15.858  30.508  1.00  0.00     0.058 C 
BRANCH  34  35
HETATM   35  C6  UNL     1     -11.503  15.260  29.670  1.00  0.00     0.156 C 
HETATM   36  N1  UNL     1     -12.773  15.675  30.249  1.00  0.00    -0.347 N 
HETATM   37  C7  UNL     1     -13.607  14.728  30.877  1.00  0.00     0.246 C 
ATOM     38  H1  UNL     1     -13.060  16.652  30.201  1.00  0.00     0.163 HD
HETATM   39  O1  UNL     1     -14.880  14.862  30.841  1.00  0.00    -0.271 OA
HETATM   40  C8  UNL     1     -13.136  13.526  31.618  1.00  0.00     0.112 C 
HETATM   41  C9  UNL     1     -12.772  14.052  33.018  1.00  0.00     0.049 C 
HETATM   42  C14 UNL     1     -11.834  13.033  31.002  1.00  0.00     0.121 C 
HETATM   43  C15 UNL     1     -11.497  13.765  29.768  1.00  0.00     0.152 C 
HETATM   44  O2  UNL     1     -11.196  13.141  28.769  1.00  0.00    -0.296 OA
BRANCH  40  45
HETATM   45  N2  UNL     1     -14.091  12.512  31.805  1.00  0.00    -0.396 N 
HETATM   46  C10 UNL     1     -14.490  12.176  33.122  1.00  0.00     0.118 C 
HETATM   47  C11 UNL     1     -15.509  11.058  32.845  1.00  0.00     0.021 C 
HETATM   48  C12 UNL     1     -14.792  10.264  31.785  1.00  0.00     0.021 C 
HETATM   49  C13 UNL     1     -14.054  11.358  30.995  1.00  0.00     0.118 C 
ENDBRANCH  40  45
ENDBRANCH  34  35
ENDBRANCH  30  34
ENDBRANCH   1  30
TORSDOF 12
ENDMDL
MODEL 5
REMARK VINA RESULT: -9.053342176      2.510      3.392
REMARK  12 active torsions:
REMARK  status: ('A' for Active; 'I' for Inactive)
REMARK    1  A    between atoms: C2_2  and  C4_4 
REMARK    2  A    between atoms: C4_4  and  C5_5 
REMARK    3  A    between atoms: C4_4  and  N3_21 
REMARK    4  A    between atoms: C5_5  and  C6_6 
REMARK    5  A    between atoms: C8_11  and  N2_13 
REMARK       I    between atoms: N3_21  and  C16_23 
REMARK       I    between atoms: C16_23  and  N4_25 
REMARK    6  A    between atoms: N4_25  and  C18_27 
REMARK    7  A    between atoms: C18_27  and  C19_28 
REMARK    8  A    between atoms: N5_32  and  C23_33 
REMARK    9  A    between atoms: C23_33  and  O4_34 
REMARK   10  A    between atoms: C23_33  and  C24_36 
REMARK   11  A    between atoms: C24_36  and  N6_37 
REMARK   12  A    between atoms: C24_36  and  C26_44 
REMARK       I    between atoms: N6_37  and  C25_39 
ROOT
HETATM    1  N3  UNL     1     -10.416  14.984  26.667  1.00  0.00    -0.338 N 
ATOM      2  H3  UNL     1     -11.361  15.232  26.374  1.00  0.00     0.164 HD
HETATM    3  C16 UNL     1     -10.260  14.157  27.816  1.00  0.00     0.318 C 
HETATM    4  O3  UNL     1      -9.079  13.897  28.144  1.00  0.00    -0.247 OA
HETATM    5  N4  UNL     1     -11.366  13.652  28.542  1.00  0.00    -0.337 N 
HETATM    6  C17 UNL     1     -11.049  12.797  29.697  1.00  0.00     0.154 C 
ENDROOT
BRANCH   5   7
HETATM    7  C18 UNL     1     -12.699  14.002  28.154  1.00  0.00     0.152 C 
BRANCH   7   8
HETATM    8  C19 UNL     1     -13.099  15.346  28.638  1.00  0.00     0.104 C 
HETATM    9  C20 UNL     1     -14.568  15.593  28.484  1.00  0.00     0.028 C 
HETATM   10  C21 UNL     1     -15.137  14.780  29.617  1.00  0.00     0.022 C 
HETATM   11  C22 UNL     1     -14.056  14.884  30.703  1.00  0.00     0.125 C 
HETATM   12  N5  UNL     1     -12.919  15.499  30.105  1.00  0.00    -0.357 N 
BRANCH  12  13
HETATM   13  C23 UNL     1     -11.802  16.138  30.643  1.00  0.00     0.137 C 
BRANCH  13  14
HETATM   14  O4  UNL     1     -11.479  17.301  30.126  1.00  0.00    -0.348 OA
ATOM     15  H4  UNL     1     -11.925  18.064  30.476  1.00  0.00     0.219 HD
ENDBRANCH  13  14
BRANCH  13  16
HETATM   16  C24 UNL     1     -10.944  15.633  31.742  1.00  0.00     0.163 C 
BRANCH  16  17
HETATM   17  N6  UNL     1     -11.561  16.011  32.983  1.00  0.00    -0.352 N 
HETATM   18  C25 UNL     1     -11.586  15.352  34.215  1.00  0.00     0.182 C 
HETATM   19  N7  UNL     1     -11.046  15.947  35.261  1.00  0.00    -0.374 N 
HETATM   20  N8  UNL     1     -12.155  14.091  34.503  1.00  0.00    -0.064 NA
ATOM     21  H72 UNL     1     -10.635  16.857  35.053  1.00  0.00     0.158 HD
ATOM     22  H71 UNL     1     -11.065  15.466  36.160  1.00  0.00     0.158 HD
ATOM     23  H6  UNL     1     -12.059  16.900  32.961  1.00  0.00     0.163 HD
ENDBRANCH  16  17
BRANCH  16  24
HETATM   24  C26 UNL     1      -9.510  15.953  31.591  1.00  0.00     0.016 C 
HETATM   25  C27 UNL     1      -8.933  16.989  32.488  1.00  0.00     0.007 C 
HETATM   26  C28 UNL     1      -7.531  17.320  32.026  1.00  0.00     0.000 C 
HETATM   27  C29 UNL     1      -7.157  16.581  30.775  1.00  0.00     0.000 C 
HETATM   28  C30 UNL     1      -7.343  15.083  30.870  1.00  0.00     0.000 C 
HETATM   29  C31 UNL     1      -8.582  14.734  31.683  1.00  0.00     0.007 C 
ENDBRANCH  16  24
ENDBRANCH  13  16
ENDBRANCH  12  13
ENDBRANCH   7   8
ENDBRANCH   5   7
BRANCH   1  30
HETATM   30  C4  UNL     1      -9.296  15.493  25.891  1.00  0.00     0.091 C 
BRANCH  30  31
HETATM   31  C2  UNL     1      -9.610  15.084  24.450  1.00  0.00     0.000 C 
HETATM   32  C1  UNL     1     -10.243  16.204  23.697  1.00  0.00     0.011 C 
HETATM   33  C3  UNL     1      -8.351  14.640  23.739  1.00  0.00     0.011 C 
ENDBRANCH  30  31
BRANCH  30  34
HETATM   34  C5  UNL     1      -9.126  16.972  25.996  1.00  0.00     0.058 C 
BRANCH  34  35
HETATM   35  C6  UNL     1      -7.954  17.388  26.851  1.00  0.00     0.156 C 
HETATM   36  N1  UNL     1      -7.611  18.757  26.496  1.00  0.00    -0.347 N 
HETATM   37  C7  UNL     1      -6.402  19.034  25.827  1.00  0.00     0.246 C 
ATOM     38  H1  UNL     1      -8.248  19.519  26.731  1.00  0.00     0.163 HD
HETATM   39  O1  UNL     1      -5.786  20.138  26.032  1.00  0.00    -0.271 OA
HETATM   40  C8  UNL     1      -5.731  18.127  24.855  1.00  0.00     0.112 C 
HETATM   41  C9  UNL     1      -6.461  18.379  23.524  1.00  0.00     0.049 C 
HETATM   42  C14 UNL     1      -6.026  16.681  25.230  1.00  0.00     0.121 C 
HETATM   43  C15 UNL     1      -6.737  16.580  26.516  1.00  0.00     0.152 C 
HETATM   44  O2  UNL     1      -6.330  15.807  27.363  1.00  0.00    -0.296 OA
BRANCH  40  45
HETATM   45  N2  UNL     1      -4.369  18.383  24.622  1.00  0.00    -0.396 N 
HETATM   46  C10 UNL     1      -3.909  18.505  23.287  1.00  0.00     0.118 C 
HETATM   47  C11 UNL     1      -2.412  18.772  23.514  1.00  0.00     0.021 C 
HETATM   48  C12 UNL     1      -2.097  17.769  24.593  1.00  0.00     0.021 C 
HETATM   49  C13 UNL     1      -3.392  17.755  25.422  1.00  0.00     0.118 C 
ENDBRANCH  40  45
ENDBRANCH  34  35
ENDBRANCH  30  34
ENDBRANCH   1  30
TORSDOF 12
ENDMDL
