MODEL 1
REMARK VINA RESULT: -9.474069699      0.000      0.000
REMARK  10 active torsions:
REMARK  status: ('A' for Active; 'I' for Inactive)
REMARK    1  A    between atoms: C2_2  and  C3_3 
REMARK    2  A    between atoms: C4_4  and  C5_5 
REMARK    3  A    between atoms: C5_5  and  C7_7 
REMARK    4  A    between atoms: C18_18  and  C19_19 
REMARK       I    between atoms: C19_19  and  N1_21 
REMARK    5  A    between atoms: N1_21  and  C20_23 
REMARK    6  A    between atoms: C29_32  and  C30_33 
REMARK    7  A    between atoms: C32_35  and  C33_36 
REMARK    8  A    between atoms: C33_36  and  C35_38 
REMARK    9  A    between atoms: C35_38  and  O2_39 
REMARK   10  A    between atoms: C35_38  and  N2_41 
ROOT
HETATM    1  C7  UNL     1      -9.582  15.572  28.608  1.00  0.00     0.001 C 
HETATM    2  C8  UNL     1      -9.151  14.321  27.847  1.00  0.00     0.006 C 
HETATM    3  C9  UNL     1     -10.319  13.320  27.993  1.00  0.00     0.006 C 
HETATM    4  C10 UNL     1     -11.129  14.026  29.052  1.00  0.00    -0.000 C 
HETATM    5  C11 UNL     1     -12.320  13.413  29.581  1.00  0.00     0.012 C 
HETATM    6  C12 UNL     1     -12.877  12.204  28.907  1.00  0.00    -0.009 C 
HETATM    7  C13 UNL     1     -13.517  12.243  27.611  1.00  0.00     0.011 C 
HETATM    8  C14 UNL     1     -13.847  11.525  29.860  1.00  0.00    -0.014 C 
HETATM    9  C15 UNL     1     -13.161  10.908  31.043  1.00  0.00     0.010 C 
HETATM   10  C16 UNL     1     -14.922  12.453  30.327  1.00  0.00     0.006 C 
HETATM   11  C17 UNL     1     -14.706  13.881  29.979  1.00  0.00     0.020 C 
HETATM   12  C18 UNL     1     -13.276  14.374  30.185  1.00  0.00     0.045 C 
HETATM   13  C25 UNL     1     -13.253  15.783  29.665  1.00  0.00     0.020 C 
HETATM   14  C26 UNL     1     -11.885  16.316  29.367  1.00  0.00     0.011 C 
HETATM   15  C27 UNL     1     -11.073  15.430  28.509  1.00  0.00    -0.036 C 
HETATM   16  C28 UNL     1     -11.420  15.528  27.050  1.00  0.00     0.016 C 
ENDROOT
BRANCH   1  17
HETATM   17  C5  UNL     1      -8.890  16.801  28.307  1.00  0.00     0.009 C 
HETATM   18  C6  UNL     1      -8.346  17.337  29.660  1.00  0.00     0.014 C 
BRANCH  17  19
HETATM   19  C4  UNL     1      -7.705  16.666  27.466  1.00  0.00    -0.022 C 
HETATM   20  C3  UNL     1      -6.816  17.658  27.252  1.00  0.00     0.003 C 
BRANCH  20  21
HETATM   21  C2  UNL     1      -5.701  17.436  26.426  1.00  0.00    -0.062 C 
HETATM   22  C1  UNL     1      -4.496  16.788  27.161  1.00  0.00     0.048 C 
HETATM   23  C29 UNL     1      -5.525  17.671  25.169  1.00  0.00     0.013 C 
BRANCH  23  24
HETATM   24  C30 UNL     1      -6.383  18.241  24.205  1.00  0.00    -0.065 C 
HETATM   25  C31 UNL     1      -6.342  19.680  23.820  1.00  0.00     0.048 C 
HETATM   26  C32 UNL     1      -7.305  17.492  23.567  1.00  0.00    -0.008 C 
BRANCH  26  27
HETATM   27  C33 UNL     1      -7.560  16.084  23.747  1.00  0.00     0.079 C 
HETATM   28  C34 UNL     1      -9.058  15.912  24.116  1.00  0.00     0.023 C 
BRANCH  27  29
HETATM   29  C35 UNL     1      -7.353  15.241  22.565  1.00  0.00     0.121 C 
BRANCH  29  30
HETATM   30  O2  UNL     1      -7.360  13.945  22.749  1.00  0.00    -0.349 OA
ATOM     31  H2  UNL     1      -8.150  13.478  22.503  1.00  0.00     0.219 HD
ENDBRANCH  29  30
BRANCH  29  32
HETATM   32  N2  UNL     1      -7.147  15.651  21.244  1.00  0.00    -0.355 N 
HETATM   33  C36 UNL     1      -8.308  15.826  20.339  1.00  0.00     0.145 C 
HETATM   34  C37 UNL     1      -8.341  17.288  19.887  1.00  0.00     0.142 C 
HETATM   35  N3  UNL     1      -7.058  17.604  19.242  1.00  0.00    -0.358 N 
HETATM   36  C38 UNL     1      -6.025  16.665  19.381  1.00  0.00     0.235 C 
ATOM     37  H3  UNL     1      -6.926  18.468  18.716  1.00  0.00     0.162 HD
HETATM   38  O3  UNL     1      -5.203  16.424  18.438  1.00  0.00    -0.272 OA
HETATM   39  C39 UNL     1      -5.864  15.908  20.674  1.00  0.00     0.227 C 
ENDBRANCH  29  32
ENDBRANCH  27  29
ENDBRANCH  26  27
ENDBRANCH  23  24
ENDBRANCH  20  21
ENDBRANCH  17  19
ENDBRANCH   1  17
BRANCH  12  40
HETATM   40  C19 UNL     1     -13.123  14.490  31.660  1.00  0.00     0.227 C 
HETATM   41  O1  UNL     1     -14.156  14.798  32.363  1.00  0.00    -0.273 OA
HETATM   42  N1  UNL     1     -11.959  14.303  32.411  1.00  0.00    -0.356 N 
ATOM     43  H1  UNL     1     -11.101  14.054  31.918  1.00  0.00     0.162 HD
BRANCH  42  44
HETATM   44  C20 UNL     1     -11.904  14.443  33.855  1.00  0.00     0.084 C 
HETATM   45  C21 UNL     1     -11.282  15.723  34.311  1.00  0.00     0.025 C 
HETATM   46  C22 UNL     1     -10.153  15.393  35.252  1.00  0.00     0.002 C 
HETATM   47  C23 UNL     1     -10.535  14.039  35.783  1.00  0.00     0.002 C 
HETATM   48  C24 UNL     1     -11.062  13.368  34.508  1.00  0.00     0.025 C 
ENDBRANCH  42  44
ENDBRANCH  12  40
TORSDOF 10
ENDMDL
MODEL 2
REMARK VINA RESULT: -9.368071272      1.322      1.771
REMARK  10 active torsions:
REMARK  status: ('A' for Active; 'I' for Inactive)
REMARK    1  A    between atoms: C2_2  and  C3_3 
REMARK    2  A    between atoms: C4_4  and  C5_5 
REMARK    3  A    between atoms: C5_5  and  C7_7 
REMARK    4  A    between atoms: C18_18  and  C19_19 
REMARK       I    between atoms: C19_19  and  N1_21 
REMARK    5  A    between atoms: N1_21  and  C20_23 
REMARK    6  A    between atoms: C29_32  and  C30_33 
REMARK    7  A    between atoms: C32_35  and  C33_36 
REMARK    8  A    between atoms: C33_36  and  C35_38 
REMARK    9  A    between atoms: C35_38  and  O2_39 
REMARK   10  A    between atoms: C35_38  and  N2_41 
ROOT
HETATM    1  C7  UNL     1      -7.969  15.895  28.032  1.00  0.00     0.001 C 
HETATM    2  C8  UNL     1      -8.209  14.893  26.906  1.00  0.00     0.006 C 
HETATM    3  C9  UNL     1      -9.595  14.270  27.189  1.00  0.00     0.006 C 
HETATM    4  C10 UNL     1      -9.828  14.790  28.586  1.00  0.00    -0.000 C 
HETATM    5  C11 UNL     1     -11.006  14.400  29.317  1.00  0.00     0.012 C 
HETATM    6  C12 UNL     1     -12.102  13.685  28.601  1.00  0.00    -0.009 C 
HETATM    7  C13 UNL     1     -12.962  14.322  27.629  1.00  0.00     0.011 C 
HETATM    8  C14 UNL     1     -13.007  13.035  29.634  1.00  0.00    -0.014 C 
HETATM    9  C15 UNL     1     -12.343  11.899  30.355  1.00  0.00     0.010 C 
HETATM   10  C16 UNL     1     -13.534  14.023  30.625  1.00  0.00     0.006 C 
HETATM   11  C17 UNL     1     -12.899  15.364  30.564  1.00  0.00     0.020 C 
HETATM   12  C18 UNL     1     -11.381  15.339  30.402  1.00  0.00     0.045 C 
HETATM   13  C25 UNL     1     -10.967  16.775  30.241  1.00  0.00     0.020 C 
HETATM   14  C26 UNL     1      -9.604  16.968  29.646  1.00  0.00     0.011 C 
HETATM   15  C27 UNL     1      -9.390  16.219  28.392  1.00  0.00    -0.036 C 
HETATM   16  C28 UNL     1     -10.001  16.881  27.189  1.00  0.00     0.016 C 
ENDROOT
BRANCH   1  17
HETATM   17  C5  UNL     1      -6.966  16.908  27.813  1.00  0.00     0.009 C 
HETATM   18  C6  UNL     1      -5.856  16.656  28.872  1.00  0.00     0.014 C 
BRANCH  17  19
HETATM   19  C4  UNL     1      -6.270  16.838  26.532  1.00  0.00    -0.022 C 
HETATM   20  C3  UNL     1      -5.254  17.654  26.182  1.00  0.00     0.003 C 
BRANCH  20  21
HETATM   21  C2  UNL     1      -4.642  17.513  24.925  1.00  0.00    -0.062 C 
HETATM   22  C1  UNL     1      -3.226  16.876  24.985  1.00  0.00     0.048 C 
HETATM   23  C29 UNL     1      -5.067  17.813  23.743  1.00  0.00     0.013 C 
BRANCH  23  24
HETATM   24  C30 UNL     1      -6.279  18.393  23.316  1.00  0.00    -0.065 C 
HETATM   25  C31 UNL     1      -6.444  19.854  23.064  1.00  0.00     0.048 C 
HETATM   26  C32 UNL     1      -7.376  17.638  23.106  1.00  0.00    -0.008 C 
BRANCH  26  27
HETATM   27  C33 UNL     1      -7.495  16.210  23.273  1.00  0.00     0.079 C 
HETATM   28  C34 UNL     1      -8.992  15.880  23.513  1.00  0.00     0.023 C 
BRANCH  27  29
HETATM   29  C35 UNL     1      -7.099  15.396  22.118  1.00  0.00     0.121 C 
BRANCH  29  30
HETATM   30  O2  UNL     1      -7.066  14.099  22.287  1.00  0.00    -0.349 OA
ATOM     31  H2  UNL     1      -6.212  13.700  22.408  1.00  0.00     0.219 HD
ENDBRANCH  29  30
BRANCH  29  32
HETATM   32  N2  UNL     1      -6.748  15.837  20.838  1.00  0.00    -0.355 N 
HETATM   33  C36 UNL     1      -7.809  16.159  19.855  1.00  0.00     0.145 C 
HETATM   34  C37 UNL     1      -7.667  17.634  19.471  1.00  0.00     0.142 C 
HETATM   35  N3  UNL     1      -6.313  17.849  18.943  1.00  0.00    -0.358 N 
HETATM   36  C38 UNL     1      -5.386  16.809  19.119  1.00  0.00     0.235 C 
ATOM     37  H3  UNL     1      -6.057  18.716  18.471  1.00  0.00     0.162 HD
HETATM   38  O3  UNL     1      -4.516  16.528  18.232  1.00  0.00    -0.272 OA
HETATM   39  C39 UNL     1      -5.404  15.990  20.383  1.00  0.00     0.227 C 
ENDBRANCH  29  32
ENDBRANCH  27  29
ENDBRANCH  26  27
ENDBRANCH  23  24
ENDBRANCH  20  21
ENDBRANCH  17  19
ENDBRANCH   1  17
BRANCH  12  40
HETATM   40  C19 UNL     1     -10.864  14.920  31.732  1.00  0.00     0.227 C 
HETATM   41  O1  UNL     1      -9.915  14.052  31.777  1.00  0.00    -0.273 OA
HETATM   42  N1  UNL     1     -11.292  15.361  32.988  1.00  0.00    -0.356 N 
ATOM     43  H1  UNL     1     -12.041  16.052  33.027  1.00  0.00     0.162 HD
BRANCH  42  44
HETATM   44  C20 UNL     1     -10.729  14.888  34.240  1.00  0.00     0.084 C 
HETATM   45  C21 UNL     1     -11.756  14.488  35.248  1.00  0.00     0.025 C 
HETATM   46  C22 UNL     1     -11.499  15.255  36.519  1.00  0.00     0.002 C 
HETATM   47  C23 UNL     1     -10.034  15.584  36.428  1.00  0.00     0.002 C 
HETATM   48  C24 UNL     1      -9.913  15.952  34.943  1.00  0.00     0.025 C 
ENDBRANCH  42  44
ENDBRANCH  12  40
TORSDOF 10
ENDMDL
MODEL 3
REMARK VINA RESULT: -9.117726816      1.781      2.765
REMARK  10 active torsions:
REMARK  status: ('A' for Active; 'I' for Inactive)
REMARK    1  A    between atoms: C2_2  and  C3_3 
REMARK    2  A    between atoms: C4_4  and  C5_5 
REMARK    3  A    between atoms: C5_5  and  C7_7 
REMARK    4  A    between atoms: C18_18  and  C19_19 
REMARK       I    between atoms: C19_19  and  N1_21 
REMARK    5  A    between atoms: N1_21  and  C20_23 
REMARK    6  A    between atoms: C29_32  and  C30_33 
REMARK    7  A    between atoms: C32_35  and  C33_36 
REMARK    8  A    between atoms: C33_36  and  C35_38 
REMARK    9  A    between atoms: C35_38  and  O2_39 
REMARK   10  A    between atoms: C35_38  and  N2_41 
ROOT
HETATM    1  C7  UNL     1      -7.417  16.144  27.623  1.00  0.00     0.001 C 
HETATM    2  C8  UNL     1      -7.778  15.178  26.497  1.00  0.00     0.006 C 
HETATM    3  C9  UNL     1      -9.182  14.634  26.845  1.00  0.00     0.006 C 
HETATM    4  C10 UNL     1      -9.308  15.143  28.260  1.00  0.00    -0.000 C 
HETATM    5  C11 UNL     1     -10.467  14.811  29.048  1.00  0.00     0.012 C 
HETATM    6  C12 UNL     1     -11.641  14.175  28.382  1.00  0.00    -0.009 C 
HETATM    7  C13 UNL     1     -12.511  14.880  27.467  1.00  0.00     0.011 C 
HETATM    8  C14 UNL     1     -12.528  13.562  29.453  1.00  0.00    -0.014 C 
HETATM    9  C15 UNL     1     -11.896  12.376  30.120  1.00  0.00     0.010 C 
HETATM   10  C16 UNL     1     -12.941  14.561  30.485  1.00  0.00     0.006 C 
HETATM   11  C17 UNL     1     -12.229  15.863  30.410  1.00  0.00     0.020 C 
HETATM   12  C18 UNL     1     -10.726  15.751  30.166  1.00  0.00     0.045 C 
HETATM   13  C25 UNL     1     -10.235  17.161  30.004  1.00  0.00     0.020 C 
HETATM   14  C26 UNL     1      -8.897  17.283  29.339  1.00  0.00     0.011 C 
HETATM   15  C27 UNL     1      -8.795  16.546  28.064  1.00  0.00    -0.036 C 
HETATM   16  C28 UNL     1      -9.428  17.264  26.906  1.00  0.00     0.016 C 
ENDROOT
BRANCH   1  17
HETATM   17  C5  UNL     1      -6.368  17.099  27.366  1.00  0.00     0.009 C 
HETATM   18  C6  UNL     1      -5.187  16.708  28.298  1.00  0.00     0.014 C 
BRANCH  17  19
HETATM   19  C4  UNL     1      -5.799  17.061  26.022  1.00  0.00    -0.022 C 
HETATM   20  C3  UNL     1      -4.672  17.710  25.663  1.00  0.00     0.003 C 
BRANCH  20  21
HETATM   21  C2  UNL     1      -4.197  17.616  24.344  1.00  0.00    -0.062 C 
HETATM   22  C1  UNL     1      -2.751  17.057  24.238  1.00  0.00     0.048 C 
HETATM   23  C29 UNL     1      -4.765  17.904  23.221  1.00  0.00     0.013 C 
BRANCH  23  24
HETATM   24  C30 UNL     1      -6.046  18.422  22.940  1.00  0.00    -0.065 C 
HETATM   25  C31 UNL     1      -6.496  19.776  23.374  1.00  0.00     0.048 C 
HETATM   26  C32 UNL     1      -6.950  17.702  22.245  1.00  0.00    -0.008 C 
BRANCH  26  27
HETATM   27  C33 UNL     1      -6.780  16.374  21.711  1.00  0.00     0.079 C 
HETATM   28  C34 UNL     1      -7.872  15.463  22.334  1.00  0.00     0.023 C 
BRANCH  27  29
HETATM   29  C35 UNL     1      -6.948  16.242  20.259  1.00  0.00     0.121 C 
BRANCH  29  30
HETATM   30  O2  UNL     1      -8.093  15.775  19.832  1.00  0.00    -0.349 OA
ATOM     31  H2  UNL     1      -8.357  16.016  18.951  1.00  0.00     0.219 HD
ENDBRANCH  29  30
BRANCH  29  32
HETATM   32  N2  UNL     1      -6.025  16.559  19.257  1.00  0.00    -0.355 N 
HETATM   33  C36 UNL     1      -4.580  16.623  19.581  1.00  0.00     0.145 C 
HETATM   34  C37 UNL     1      -3.857  15.578  18.728  1.00  0.00     0.142 C 
HETATM   35  N3  UNL     1      -4.140  15.857  17.313  1.00  0.00    -0.358 N 
HETATM   36  C38 UNL     1      -5.150  16.791  17.035  1.00  0.00     0.235 C 
ATOM     37  H3  UNL     1      -3.625  15.392  16.565  1.00  0.00     0.162 HD
HETATM   38  O3  UNL     1      -5.065  17.603  16.057  1.00  0.00    -0.272 OA
HETATM   39  C39 UNL     1      -6.378  16.853  17.906  1.00  0.00     0.227 C 
ENDBRANCH  29  32
ENDBRANCH  27  29
ENDBRANCH  26  27
ENDBRANCH  23  24
ENDBRANCH  20  21
ENDBRANCH  17  19
ENDBRANCH   1  17
BRANCH  12  40
HETATM   40  C19 UNL     1     -10.166  15.278  31.460  1.00  0.00     0.227 C 
HETATM   41  O1  UNL     1      -9.329  14.300  31.447  1.00  0.00    -0.273 OA
HETATM   42  N1  UNL     1     -10.442  15.773  32.738  1.00  0.00    -0.356 N 
ATOM     43  H1  UNL     1     -11.097  16.551  32.822  1.00  0.00     0.162 HD
BRANCH  42  44
HETATM   44  C20 UNL     1      -9.848  15.240  33.950  1.00  0.00     0.084 C 
HETATM   45  C21 UNL     1     -10.690  14.210  34.630  1.00  0.00     0.025 C 
HETATM   46  C22 UNL     1     -10.907  14.639  36.057  1.00  0.00     0.002 C 
HETATM   47  C23 UNL     1      -9.727  15.531  36.329  1.00  0.00     0.002 C 
HETATM   48  C24 UNL     1      -9.640  16.305  35.007  1.00  0.00     0.025 C 
ENDBRANCH  42  44
ENDBRANCH  12  40
TORSDOF 10
ENDMDL
MODEL 4
REMARK VINA RESULT: -9.051430385      1.246      2.122
REMARK  10 active torsions:
REMARK  status: ('A' for Active; 'I' for Inactive)
REMARK    1  A    between atoms: C2_2  and  C3_3 
REMARK    2  A    between atoms: C4_4  and  C5_5 
REMARK    3  A    between atoms: C5_5  and  C7_7 
REMARK    4  A    between atoms: C18_18  and  C19_19 
REMARK       I    between atoms: C19_19  and  N1_21 
REMARK    5  A    between atoms: N1_21  and  C20_23 
REMARK    6  A    between atoms: C29_32  and  C30_33 
REMARK    7  A    between atoms: C32_35  and  C33_36 
REMARK    8  A    between atoms: C33_36  and  C35_38 
REMARK    9  A    between atoms: C35_38  and  O2_39 
REMARK   10  A    between atoms: C35_38  and  N2_41 
ROOT
HETATM    1  C7  UNL     1      -9.759  15.837  28.305  1.00  0.00     0.001 C 
HETATM    2  C8  UNL     1      -9.233  14.594  27.591  1.00  0.00     0.006 C 
HETATM    3  C9  UNL     1     -10.306  13.503  27.805  1.00  0.00     0.006 C 
HETATM    4  C10 UNL     1     -11.158  14.184  28.847  1.00  0.00    -0.000 C 
HETATM    5  C11 UNL     1     -12.282  13.496  29.427  1.00  0.00     0.012 C 
HETATM    6  C12 UNL     1     -12.741  12.213  28.819  1.00  0.00    -0.009 C 
HETATM    7  C13 UNL     1     -13.403  12.137  27.535  1.00  0.00     0.011 C 
HETATM    8  C14 UNL     1     -13.632  11.497  29.820  1.00  0.00    -0.014 C 
HETATM    9  C15 UNL     1     -12.876  10.997  31.015  1.00  0.00     0.010 C 
HETATM   10  C16 UNL     1     -14.777  12.349  30.267  1.00  0.00     0.006 C 
HETATM   11  C17 UNL     1     -14.693  13.772  29.852  1.00  0.00     0.020 C 
HETATM   12  C18 UNL     1     -13.308  14.397  30.008  1.00  0.00     0.045 C 
HETATM   13  C25 UNL     1     -13.417  15.777  29.425  1.00  0.00     0.020 C 
HETATM   14  C26 UNL     1     -12.105  16.413  29.076  1.00  0.00     0.011 C 
HETATM   15  C27 UNL     1     -11.234  15.562  28.242  1.00  0.00    -0.036 C 
HETATM   16  C28 UNL     1     -11.612  15.563  26.787  1.00  0.00     0.016 C 
ENDROOT
BRANCH   1  17
HETATM   17  C5  UNL     1      -9.183  17.106  27.935  1.00  0.00     0.009 C 
HETATM   18  C6  UNL     1      -8.209  17.492  29.083  1.00  0.00     0.014 C 
BRANCH  17  19
HETATM   19  C4  UNL     1      -8.347  17.093  26.739  1.00  0.00    -0.022 C 
HETATM   20  C3  UNL     1      -8.704  17.654  25.565  1.00  0.00     0.003 C 
BRANCH  20  21
HETATM   21  C2  UNL     1      -7.834  17.592  24.463  1.00  0.00    -0.062 C 
HETATM   22  C1  UNL     1      -6.529  18.415  24.650  1.00  0.00     0.048 C 
HETATM   23  C29 UNL     1      -7.937  16.962  23.342  1.00  0.00     0.013 C 
BRANCH  23  24
HETATM   24  C30 UNL     1      -8.962  16.134  22.838  1.00  0.00    -0.065 C 
HETATM   25  C31 UNL     1     -10.104  15.649  23.665  1.00  0.00     0.048 C 
HETATM   26  C32 UNL     1      -8.961  15.731  21.551  1.00  0.00    -0.008 C 
BRANCH  26  27
HETATM   27  C33 UNL     1      -7.983  16.050  20.540  1.00  0.00     0.079 C 
HETATM   28  C34 UNL     1      -8.013  17.584  20.312  1.00  0.00     0.023 C 
BRANCH  27  29
HETATM   29  C35 UNL     1      -6.590  15.734  20.875  1.00  0.00     0.121 C 
BRANCH  29  30
HETATM   30  O2  UNL     1      -6.378  14.653  21.581  1.00  0.00    -0.349 OA
ATOM     31  H2  UNL     1      -5.543  14.586  22.029  1.00  0.00     0.219 HD
ENDBRANCH  29  30
BRANCH  29  32
HETATM   32  N2  UNL     1      -5.441  16.451  20.528  1.00  0.00    -0.355 N 
HETATM   33  C36 UNL     1      -4.853  16.289  19.178  1.00  0.00     0.145 C 
HETATM   34  C37 UNL     1      -4.877  17.653  18.483  1.00  0.00     0.142 C 
HETATM   35  N3  UNL     1      -4.141  18.613  19.317  1.00  0.00    -0.358 N 
HETATM   36  C38 UNL     1      -3.805  18.204  20.617  1.00  0.00     0.235 C 
ATOM     37  H3  UNL     1      -3.887  19.537  18.968  1.00  0.00     0.162 HD
HETATM   38  O3  UNL     1      -2.703  18.537  21.162  1.00  0.00    -0.272 OA
HETATM   39  C39 UNL     1      -4.758  17.345  21.406  1.00  0.00     0.227 C 
ENDBRANCH  29  32
ENDBRANCH  27  29
ENDBRANCH  26  27
ENDBRANCH  23  24
ENDBRANCH  20  21
ENDBRANCH  17  19
ENDBRANCH   1  17
BRANCH  12  40
HETATM   40  C19 UNL     1     -13.142  14.592  31.472  1.00  0.00     0.227 C 
HETATM   41  O1  UNL     1     -14.196  14.667  32.206  1.00  0.00    -0.273 OA
HETATM   42  N1  UNL     1     -11.944  14.713  32.183  1.00  0.00    -0.356 N 
ATOM     43  H1  UNL     1     -11.067  14.661  31.664  1.00  0.00     0.162 HD
BRANCH  42  44
HETATM   44  C20 UNL     1     -11.880  14.908  33.620  1.00  0.00     0.084 C 
HETATM   45  C21 UNL     1     -10.829  15.881  34.048  1.00  0.00     0.025 C 
HETATM   46  C22 UNL     1      -9.938  15.204  35.056  1.00  0.00     0.002 C 
HETATM   47  C23 UNL     1     -10.823  14.131  35.629  1.00  0.00     0.002 C 
HETATM   48  C24 UNL     1     -11.530  13.635  34.360  1.00  0.00     0.025 C 
ENDBRANCH  42  44
ENDBRANCH  12  40
TORSDOF 10
ENDMDL
MODEL 5
REMARK VINA RESULT: -9.024978746      1.714      2.576
REMARK  10 active torsions:
REMARK  status: ('A' for Active; 'I' for Inactive)
REMARK    1  A    between atoms: C2_2  and  C3_3 
REMARK    2  A    between atoms: C4_4  and  C5_5 
REMARK    3  A    between atoms: C5_5  and  C7_7 
REMARK    4  A    between atoms: C18_18  and  C19_19 
REMARK       I    between atoms: C19_19  and  N1_21 
REMARK    5  A    between atoms: N1_21  and  C20_23 
REMARK    6  A    between atoms: C29_32  and  C30_33 
REMARK    7  A    between atoms: C32_35  and  C33_36 
REMARK    8  A    between atoms: C33_36  and  C35_38 
REMARK    9  A    between atoms: C35_38  and  O2_39 
REMARK   10  A    between atoms: C35_38  and  N2_41 
ROOT
HETATM    1  C7  UNL     1      -7.484  16.179  27.638  1.00  0.00     0.001 C 
HETATM    2  C8  UNL     1      -7.827  15.218  26.502  1.00  0.00     0.006 C 
HETATM    3  C9  UNL     1      -9.227  14.656  26.837  1.00  0.00     0.006 C 
HETATM    4  C10 UNL     1      -9.368  15.152  28.255  1.00  0.00    -0.000 C 
HETATM    5  C11 UNL     1     -10.528  14.801  29.033  1.00  0.00     0.012 C 
HETATM    6  C12 UNL     1     -11.691  14.158  28.355  1.00  0.00    -0.009 C 
HETATM    7  C13 UNL     1     -12.562  14.861  27.440  1.00  0.00     0.011 C 
HETATM    8  C14 UNL     1     -12.578  13.527  29.415  1.00  0.00    -0.014 C 
HETATM    9  C15 UNL     1     -11.937  12.343  30.076  1.00  0.00     0.010 C 
HETATM   10  C16 UNL     1     -13.008  14.514  30.452  1.00  0.00     0.006 C 
HETATM   11  C17 UNL     1     -12.310  15.824  30.392  1.00  0.00     0.020 C 
HETATM   12  C18 UNL     1     -10.804  15.730  30.157  1.00  0.00     0.045 C 
HETATM   13  C25 UNL     1     -10.327  17.147  30.009  1.00  0.00     0.020 C 
HETATM   14  C26 UNL     1      -8.986  17.288  29.354  1.00  0.00     0.011 C 
HETATM   15  C27 UNL     1      -8.869  16.562  28.074  1.00  0.00    -0.036 C 
HETATM   16  C28 UNL     1      -9.501  17.283  26.917  1.00  0.00     0.016 C 
ENDROOT
BRANCH   1  17
HETATM   17  C5  UNL     1      -6.443  17.147  27.395  1.00  0.00     0.009 C 
HETATM   18  C6  UNL     1      -5.255  16.747  28.313  1.00  0.00     0.014 C 
BRANCH  17  19
HETATM   19  C4  UNL     1      -5.881  17.141  26.048  1.00  0.00    -0.022 C 
HETATM   20  C3  UNL     1      -4.664  17.634  25.737  1.00  0.00     0.003 C 
BRANCH  20  21
HETATM   21  C2  UNL     1      -4.204  17.586  24.411  1.00  0.00    -0.062 C 
HETATM   22  C1  UNL     1      -2.754  17.045  24.271  1.00  0.00     0.048 C 
HETATM   23  C29 UNL     1      -4.788  17.903  23.304  1.00  0.00     0.013 C 
BRANCH  23  24
HETATM   24  C30 UNL     1      -6.077  18.417  23.054  1.00  0.00    -0.065 C 
HETATM   25  C31 UNL     1      -6.498  19.796  23.434  1.00  0.00     0.048 C 
HETATM   26  C32 UNL     1      -7.017  17.669  22.441  1.00  0.00    -0.008 C 
BRANCH  26  27
HETATM   27  C33 UNL     1      -6.881  16.312  21.972  1.00  0.00     0.079 C 
HETATM   28  C34 UNL     1      -8.084  15.495  22.512  1.00  0.00     0.023 C 
BRANCH  27  29
HETATM   29  C35 UNL     1      -6.912  16.132  20.517  1.00  0.00     0.121 C 
BRANCH  29  30
HETATM   30  O2  UNL     1      -8.030  15.697  19.994  1.00  0.00    -0.349 OA
ATOM     31  H2  UNL     1      -8.035  15.534  19.058  1.00  0.00     0.219 HD
ENDBRANCH  29  30
BRANCH  29  32
HETATM   32  N2  UNL     1      -5.883  16.372  19.601  1.00  0.00    -0.355 N 
HETATM   33  C36 UNL     1      -6.205  16.908  18.257  1.00  0.00     0.145 C 
HETATM   34  C37 UNL     1      -5.500  18.258  18.103  1.00  0.00     0.142 C 
HETATM   35  N3  UNL     1      -4.059  18.055  18.309  1.00  0.00    -0.358 N 
HETATM   36  C38 UNL     1      -3.656  16.814  18.827  1.00  0.00     0.235 C 
ATOM     37  H3  UNL     1      -3.381  18.784  18.086  1.00  0.00     0.162 HD
HETATM   38  O3  UNL     1      -2.581  16.245  18.448  1.00  0.00    -0.272 OA
HETATM   39  C39 UNL     1      -4.503  16.118  19.860  1.00  0.00     0.227 C 
ENDBRANCH  29  32
ENDBRANCH  27  29
ENDBRANCH  26  27
ENDBRANCH  23  24
ENDBRANCH  20  21
ENDBRANCH  17  19
ENDBRANCH   1  17
BRANCH  12  40
HETATM   40  C19 UNL     1     -10.247  15.252  31.450  1.00  0.00     0.227 C 
HETATM   41  O1  UNL     1      -9.433  14.256  31.438  1.00  0.00    -0.273 OA
HETATM   42  N1  UNL     1     -10.504  15.762  32.726  1.00  0.00    -0.356 N 
ATOM     43  H1  UNL     1     -11.140  16.555  32.810  1.00  0.00     0.162 HD
BRANCH  42  44
HETATM   44  C20 UNL     1      -9.915  15.224  33.939  1.00  0.00     0.084 C 
HETATM   45  C21 UNL     1     -10.785  14.233  34.641  1.00  0.00     0.025 C 
HETATM   46  C22 UNL     1     -10.970  14.688  36.065  1.00  0.00     0.002 C 
HETATM   47  C23 UNL     1      -9.755  15.540  36.312  1.00  0.00     0.002 C 
HETATM   48  C24 UNL     1      -9.657  16.294  34.979  1.00  0.00     0.025 C 
ENDBRANCH  42  44
ENDBRANCH  12  40
TORSDOF 10
ENDMDL
