MODEL 1
REMARK VINA RESULT: -8.117654120      0.000      0.000
REMARK  8 active torsions:
REMARK  status: ('A' for Active; 'I' for Inactive)
REMARK    1  A    between atoms: C2_2  and  C4_4 
REMARK    2  A    between atoms: C7_7  and  C8_8 
REMARK    3  A    between atoms: C22_24  and  C23_25 
REMARK       I    between atoms: C23_25  and  N2_27 
REMARK    4  A    between atoms: N2_27  and  C24_29 
REMARK    5  A    between atoms: C24_29  and  C25_30 
REMARK    6  A    between atoms: C25_30  and  C26_31 
REMARK    7  A    between atoms: C26_31  and  N3_32 
REMARK    8  A    between atoms: N3_32  and  C28_34 
ROOT
HETATM    1  C8  UNL     1      -6.152  19.319  27.071  1.00  0.00     0.237 C 
HETATM    2  O1  UNL     1      -6.800  19.814  28.019  1.00  0.00    -0.280 OA
HETATM    3  C9  UNL     1      -5.386  20.285  26.295  1.00  0.00     0.139 C 
HETATM    4  N1  UNL     1      -4.789  21.055  25.666  1.00  0.00    -0.188 NA
ENDROOT
BRANCH   1   5
HETATM    5  C7  UNL     1      -6.117  17.875  26.709  1.00  0.00     0.040 C 
HETATM    6  C6  UNL     1      -4.659  17.683  26.228  1.00  0.00     0.019 C 
HETATM    7  C5  UNL     1      -4.762  16.509  25.280  1.00  0.00     0.010 C 
HETATM    8  C4  UNL     1      -5.977  16.954  24.474  1.00  0.00     0.019 C 
HETATM    9  C39 UNL     1      -6.878  17.534  25.503  1.00  0.00     0.015 C 
HETATM   10  C14 UNL     1      -8.137  16.692  25.736  1.00  0.00     0.000 C 
HETATM   11  C12 UNL     1      -8.032  15.599  26.723  1.00  0.00    -0.032 C 
HETATM   12  C15 UNL     1      -9.360  17.550  25.800  1.00  0.00     0.006 C 
HETATM   13  C11 UNL     1      -7.032  15.774  27.808  1.00  0.00     0.011 C 
HETATM   14  C13 UNL     1      -7.717  14.225  26.090  1.00  0.00     0.016 C 
HETATM   15  C37 UNL     1      -9.467  15.326  27.240  1.00  0.00    -0.032 C 
HETATM   16  C10 UNL     1      -6.333  17.063  27.931  1.00  0.00     0.020 C 
HETATM   17  C17 UNL     1      -9.903  16.510  28.028  1.00  0.00     0.003 C 
HETATM   18  C36 UNL     1      -9.484  14.126  28.158  1.00  0.00     0.011 C 
HETATM   19  C38 UNL     1     -10.336  14.980  26.072  1.00  0.00     0.016 C 
HETATM   20  C16 UNL     1     -10.121  17.625  27.044  1.00  0.00     0.006 C 
HETATM   21  C18 UNL     1     -10.963  16.310  29.047  1.00  0.00    -0.035 C 
HETATM   22  C19 UNL     1     -11.956  17.470  28.918  1.00  0.00     0.016 C 
HETATM   23  C20 UNL     1     -10.362  16.490  30.438  1.00  0.00     0.011 C 
HETATM   24  C34 UNL     1     -11.724  15.023  28.915  1.00  0.00     0.003 C 
HETATM   25  C21 UNL     1     -10.769  15.446  31.418  1.00  0.00     0.015 C 
HETATM   26  C22 UNL     1     -12.253  15.160  31.389  1.00  0.00     0.086 C 
HETATM   27  C31 UNL     1     -12.676  14.693  30.025  1.00  0.00    -0.031 C 
HETATM   28  C32 UNL     1     -12.887  13.190  30.122  1.00  0.00     0.016 C 
HETATM   29  C33 UNL     1     -14.070  15.276  29.765  1.00  0.00     0.016 C 
HETATM   30  C35 UNL     1     -10.890  13.833  28.596  1.00  0.00     0.007 C 
BRANCH   8  31
HETATM   31  C2  UNL     1      -5.461  17.796  23.408  1.00  0.00    -0.089 C 
HETATM   32  C1  UNL     1      -4.352  17.652  22.760  1.00  0.00     0.014 C 
HETATM   33  C3  UNL     1      -6.326  18.980  23.011  1.00  0.00     0.043 C 
ENDBRANCH   8  31
BRANCH  26  34
HETATM   34  C23 UNL     1     -12.536  14.196  32.485  1.00  0.00     0.222 C 
HETATM   35  O2  UNL     1     -13.725  13.986  32.905  1.00  0.00    -0.273 OA
HETATM   36  N2  UNL     1     -11.506  13.456  33.126  1.00  0.00    -0.361 N 
ATOM     37  H2  UNL     1     -10.544  13.596  32.818  1.00  0.00     0.162 HD
BRANCH  36  38
HETATM   38  C24 UNL     1     -11.755  12.521  34.183  1.00  0.00     0.124 C 
BRANCH  38  39
HETATM   39  C25 UNL     1     -11.278  13.026  35.526  1.00  0.00     0.050 C 
BRANCH  39  40
HETATM   40  C26 UNL     1     -10.238  14.096  35.303  1.00  0.00     0.274 C 
BRANCH  40  41
HETATM   41  N3  UNL     1     -10.874  15.382  35.541  1.00  0.00     0.088 N 
HETATM   42  C27 UNL     1     -11.658  15.244  36.757  1.00  0.00     0.310 C 
BRANCH  41  43
HETATM   43  C28 UNL     1      -9.882  16.436  35.673  1.00  0.00     0.214 C 
HETATM   44  C29 UNL     1      -9.109  16.454  34.361  1.00  0.00     0.042 C 
HETATM   45  C30 UNL     1      -8.986  16.071  36.827  1.00  0.00     0.042 C 
ENDBRANCH  41  43
ENDBRANCH  40  41
ENDBRANCH  39  40
ENDBRANCH  38  39
ENDBRANCH  36  38
ENDBRANCH  26  34
ENDBRANCH   1   5
TORSDOF 8
ENDMDL
MODEL 2
REMARK VINA RESULT: -8.044482353      2.188      4.314
REMARK  8 active torsions:
REMARK  status: ('A' for Active; 'I' for Inactive)
REMARK    1  A    between atoms: C2_2  and  C4_4 
REMARK    2  A    between atoms: C7_7  and  C8_8 
REMARK    3  A    between atoms: C22_24  and  C23_25 
REMARK       I    between atoms: C23_25  and  N2_27 
REMARK    4  A    between atoms: N2_27  and  C24_29 
REMARK    5  A    between atoms: C24_29  and  C25_30 
REMARK    6  A    between atoms: C25_30  and  C26_31 
REMARK    7  A    between atoms: C26_31  and  N3_32 
REMARK    8  A    between atoms: N3_32  and  C28_34 
ROOT
HETATM    1  C8  UNL     1      -6.096  16.031  27.172  1.00  0.00     0.237 C 
HETATM    2  O1  UNL     1      -5.582  16.085  28.311  1.00  0.00    -0.280 OA
HETATM    3  C9  UNL     1      -5.243  16.529  26.102  1.00  0.00     0.139 C 
HETATM    4  N1  UNL     1      -4.572  16.940  25.250  1.00  0.00    -0.188 NA
ENDROOT
BRANCH   1   5
HETATM    5  C7  UNL     1      -7.457  15.513  26.861  1.00  0.00     0.040 C 
HETATM    6  C6  UNL     1      -7.283  14.938  25.435  1.00  0.00     0.019 C 
HETATM    7  C5  UNL     1      -8.678  15.023  24.859  1.00  0.00     0.010 C 
HETATM    8  C4  UNL     1      -9.027  16.448  25.272  1.00  0.00     0.019 C 
HETATM    9  C39 UNL     1      -8.467  16.553  26.644  1.00  0.00     0.015 C 
HETATM   10  C14 UNL     1      -9.551  16.654  27.724  1.00  0.00     0.000 C 
HETATM   11  C12 UNL     1     -10.085  15.382  28.249  1.00  0.00    -0.032 C 
HETATM   12  C15 UNL     1      -9.225  17.718  28.722  1.00  0.00     0.006 C 
HETATM   13  C11 UNL     1      -9.179  14.206  28.200  1.00  0.00     0.011 C 
HETATM   14  C13 UNL     1     -11.388  14.926  27.552  1.00  0.00     0.016 C 
HETATM   15  C37 UNL     1     -10.638  15.682  29.665  1.00  0.00    -0.032 C 
HETATM   16  C10 UNL     1      -7.778  14.404  27.792  1.00  0.00     0.020 C 
HETATM   17  C17 UNL     1      -9.485  16.003  30.548  1.00  0.00     0.003 C 
HETATM   18  C36 UNL     1     -11.333  14.467  30.234  1.00  0.00     0.011 C 
HETATM   19  C38 UNL     1     -11.676  16.754  29.554  1.00  0.00     0.016 C 
HETATM   20  C16 UNL     1      -8.970  17.346  30.111  1.00  0.00     0.006 C 
HETATM   21  C18 UNL     1      -9.655  15.802  32.009  1.00  0.00    -0.035 C 
HETATM   22  C19 UNL     1      -9.060  17.024  32.717  1.00  0.00     0.016 C 
HETATM   23  C20 UNL     1      -8.771  14.645  32.462  1.00  0.00     0.011 C 
HETATM   24  C34 UNL     1     -11.079  15.647  32.457  1.00  0.00     0.003 C 
HETATM   25  C21 UNL     1      -9.449  13.681  33.373  1.00  0.00     0.015 C 
HETATM   26  C22 UNL     1     -10.232  14.364  34.472  1.00  0.00     0.086 C 
HETATM   27  C31 UNL     1     -11.288  15.260  33.890  1.00  0.00    -0.031 C 
HETATM   28  C32 UNL     1     -12.617  14.541  34.063  1.00  0.00     0.016 C 
HETATM   29  C33 UNL     1     -11.380  16.491  34.799  1.00  0.00     0.016 C 
HETATM   30  C35 UNL     1     -11.922  14.794  31.577  1.00  0.00     0.007 C 
BRANCH   8  31
HETATM   31  C2  UNL     1      -8.516  17.304  24.216  1.00  0.00    -0.089 C 
HETATM   32  C1  UNL     1      -7.801  18.374  24.347  1.00  0.00     0.014 C 
HETATM   33  C3  UNL     1      -8.863  16.895  22.794  1.00  0.00     0.043 C 
ENDBRANCH   8  31
BRANCH  26  34
HETATM   34  C23 UNL     1     -10.753  13.297  35.367  1.00  0.00     0.222 C 
HETATM   35  O2  UNL     1     -10.814  13.453  36.634  1.00  0.00    -0.273 OA
HETATM   36  N2  UNL     1     -11.212  12.048  34.867  1.00  0.00    -0.361 N 
ATOM     37  H2  UNL     1     -11.180  11.886  33.861  1.00  0.00     0.162 HD
BRANCH  36  38
HETATM   38  C24 UNL     1     -11.720  11.006  35.710  1.00  0.00     0.124 C 
BRANCH  38  39
HETATM   39  C25 UNL     1     -12.734  10.134  35.005  1.00  0.00     0.050 C 
BRANCH  39  40
HETATM   40  C26 UNL     1     -13.680  11.017  34.230  1.00  0.00     0.274 C 
BRANCH  40  41
HETATM   41  N3  UNL     1     -13.616  10.609  32.835  1.00  0.00     0.088 N 
HETATM   42  C27 UNL     1     -13.364   9.177  32.827  1.00  0.00     0.310 C 
BRANCH  41  43
HETATM   43  C28 UNL     1     -14.853  10.928  32.143  1.00  0.00     0.214 C 
HETATM   44  C29 UNL     1     -15.162   9.728  31.257  1.00  0.00     0.042 C 
HETATM   45  C30 UNL     1     -14.604  12.163  31.318  1.00  0.00     0.042 C 
ENDBRANCH  41  43
ENDBRANCH  40  41
ENDBRANCH  39  40
ENDBRANCH  38  39
ENDBRANCH  36  38
ENDBRANCH  26  34
ENDBRANCH   1   5
TORSDOF 8
ENDMDL
MODEL 3
REMARK VINA RESULT: -7.944000131      2.291      4.138
REMARK  8 active torsions:
REMARK  status: ('A' for Active; 'I' for Inactive)
REMARK    1  A    between atoms: C2_2  and  C4_4 
REMARK    2  A    between atoms: C7_7  and  C8_8 
REMARK    3  A    between atoms: C22_24  and  C23_25 
REMARK       I    between atoms: C23_25  and  N2_27 
REMARK    4  A    between atoms: N2_27  and  C24_29 
REMARK    5  A    between atoms: C24_29  and  C25_30 
REMARK    6  A    between atoms: C25_30  and  C26_31 
REMARK    7  A    between atoms: C26_31  and  N3_32 
REMARK    8  A    between atoms: N3_32  and  C28_34 
ROOT
HETATM    1  C8  UNL     1      -6.131  16.100  27.233  1.00  0.00     0.237 C 
HETATM    2  O1  UNL     1      -5.606  16.129  28.368  1.00  0.00    -0.280 OA
HETATM    3  C9  UNL     1      -5.318  16.692  26.179  1.00  0.00     0.139 C 
HETATM    4  N1  UNL     1      -4.680  17.176  25.341  1.00  0.00    -0.188 NA
ENDROOT
BRANCH   1   5
HETATM    5  C7  UNL     1      -7.467  15.527  26.912  1.00  0.00     0.040 C 
HETATM    6  C6  UNL     1      -7.259  14.964  25.486  1.00  0.00     0.019 C 
HETATM    7  C5  UNL     1      -8.653  14.991  24.900  1.00  0.00     0.010 C 
HETATM    8  C4  UNL     1      -9.064  16.399  25.315  1.00  0.00     0.019 C 
HETATM    9  C39 UNL     1      -8.518  16.524  26.691  1.00  0.00     0.015 C 
HETATM   10  C14 UNL     1      -9.612  16.577  27.763  1.00  0.00     0.000 C 
HETATM   11  C12 UNL     1     -10.096  15.283  28.282  1.00  0.00    -0.032 C 
HETATM   12  C15 UNL     1      -9.338  17.651  28.766  1.00  0.00     0.006 C 
HETATM   13  C11 UNL     1      -9.141  14.146  28.237  1.00  0.00     0.011 C 
HETATM   14  C13 UNL     1     -11.374  14.774  27.575  1.00  0.00     0.016 C 
HETATM   15  C37 UNL     1     -10.670  15.556  29.695  1.00  0.00    -0.032 C 
HETATM   16  C10 UNL     1      -7.747  14.403  27.839  1.00  0.00     0.020 C 
HETATM   17  C17 UNL     1      -9.537  15.922  30.586  1.00  0.00     0.003 C 
HETATM   18  C36 UNL     1     -11.318  14.311  30.257  1.00  0.00     0.011 C 
HETATM   19  C38 UNL     1     -11.752  16.583  29.580  1.00  0.00     0.016 C 
HETATM   20  C16 UNL     1      -9.076  17.287  30.156  1.00  0.00     0.006 C 
HETATM   21  C18 UNL     1      -9.709  15.711  32.045  1.00  0.00    -0.035 C 
HETATM   22  C19 UNL     1      -9.170  16.955  32.760  1.00  0.00     0.016 C 
HETATM   23  C20 UNL     1      -8.780  14.591  32.502  1.00  0.00     0.011 C 
HETATM   24  C34 UNL     1     -11.128  15.495  32.484  1.00  0.00     0.003 C 
HETATM   25  C21 UNL     1      -9.423  13.598  33.407  1.00  0.00     0.015 C 
HETATM   26  C22 UNL     1     -10.241  14.244  34.501  1.00  0.00     0.086 C 
HETATM   27  C31 UNL     1     -11.331  15.097  33.915  1.00  0.00    -0.031 C 
HETATM   28  C32 UNL     1     -12.629  14.322  34.077  1.00  0.00     0.016 C 
HETATM   29  C33 UNL     1     -11.479  16.320  34.825  1.00  0.00     0.016 C 
HETATM   30  C35 UNL     1     -11.929  14.610  31.596  1.00  0.00     0.007 C 
BRANCH   8  31
HETATM   31  C2  UNL     1      -8.583  17.279  24.263  1.00  0.00    -0.089 C 
HETATM   32  C1  UNL     1      -7.904  18.371  24.402  1.00  0.00     0.014 C 
HETATM   33  C3  UNL     1      -8.914  16.866  22.840  1.00  0.00     0.043 C 
ENDBRANCH   8  31
BRANCH  26  34
HETATM   34  C23 UNL     1     -10.724  13.154  35.390  1.00  0.00     0.222 C 
HETATM   35  O2  UNL     1     -10.764  11.937  35.000  1.00  0.00    -0.273 OA
HETATM   36  N2  UNL     1     -11.165  13.400  36.718  1.00  0.00    -0.361 N 
ATOM     37  H2  UNL     1     -11.148  14.360  37.066  1.00  0.00     0.162 HD
BRANCH  36  38
HETATM   38  C24 UNL     1     -11.632  12.366  37.593  1.00  0.00     0.124 C 
BRANCH  38  39
HETATM   39  C25 UNL     1     -13.112  12.478  37.882  1.00  0.00     0.050 C 
BRANCH  39  40
HETATM   40  C26 UNL     1     -13.878  11.807  36.769  1.00  0.00     0.274 C 
BRANCH  40  41
HETATM   41  N3  UNL     1     -13.498  10.403  36.760  1.00  0.00     0.088 N 
HETATM   42  C27 UNL     1     -14.213   9.768  37.855  1.00  0.00     0.310 C 
BRANCH  41  43
HETATM   43  C28 UNL     1     -13.828   9.783  35.488  1.00  0.00     0.214 C 
HETATM   44  C29 UNL     1     -12.628   8.923  35.115  1.00  0.00     0.042 C 
HETATM   45  C30 UNL     1     -14.038  10.889  34.488  1.00  0.00     0.042 C 
ENDBRANCH  41  43
ENDBRANCH  40  41
ENDBRANCH  39  40
ENDBRANCH  38  39
ENDBRANCH  36  38
ENDBRANCH  26  34
ENDBRANCH   1   5
TORSDOF 8
ENDMDL
MODEL 4
REMARK VINA RESULT: -7.740675869      2.662     10.332
REMARK  8 active torsions:
REMARK  status: ('A' for Active; 'I' for Inactive)
REMARK    1  A    between atoms: C2_2  and  C4_4 
REMARK    2  A    between atoms: C7_7  and  C8_8 
REMARK    3  A    between atoms: C22_24  and  C23_25 
REMARK       I    between atoms: C23_25  and  N2_27 
REMARK    4  A    between atoms: N2_27  and  C24_29 
REMARK    5  A    between atoms: C24_29  and  C25_30 
REMARK    6  A    between atoms: C25_30  and  C26_31 
REMARK    7  A    between atoms: C26_31  and  N3_32 
REMARK    8  A    between atoms: N3_32  and  C28_34 
ROOT
HETATM    1  C8  UNL     1     -13.357  14.483  28.920  1.00  0.00     0.237 C 
HETATM    2  O1  UNL     1     -13.384  15.150  27.862  1.00  0.00    -0.280 OA
HETATM    3  C9  UNL     1     -14.666  14.058  29.397  1.00  0.00     0.139 C 
HETATM    4  N1  UNL     1     -15.708  13.732  29.788  1.00  0.00    -0.188 NA
ENDROOT
BRANCH   1   5
HETATM    5  C7  UNL     1     -12.131  14.116  29.680  1.00  0.00     0.040 C 
HETATM    6  C6  UNL     1     -12.572  12.842  30.438  1.00  0.00     0.019 C 
HETATM    7  C5  UNL     1     -11.666  12.833  31.650  1.00  0.00     0.010 C 
HETATM    8  C4  UNL     1     -11.814  14.289  32.075  1.00  0.00     0.019 C 
HETATM    9  C39 UNL     1     -11.807  15.025  30.784  1.00  0.00     0.015 C 
HETATM   10  C14 UNL     1     -10.546  15.874  30.590  1.00  0.00     0.000 C 
HETATM   11  C12 UNL     1      -9.378  15.201  29.989  1.00  0.00    -0.032 C 
HETATM   12  C15 UNL     1     -10.883  17.237  30.075  1.00  0.00     0.006 C 
HETATM   13  C11 UNL     1      -9.659  14.054  29.088  1.00  0.00     0.011 C 
HETATM   14  C13 UNL     1      -8.371  14.666  31.033  1.00  0.00     0.016 C 
HETATM   15  C37 UNL     1      -8.513  16.307  29.335  1.00  0.00    -0.032 C 
HETATM   16  C10 UNL     1     -11.055  13.761  28.723  1.00  0.00     0.020 C 
HETATM   17  C17 UNL     1      -9.271  16.856  28.178  1.00  0.00     0.003 C 
HETATM   18  C36 UNL     1      -7.219  15.731  28.808  1.00  0.00     0.011 C 
HETATM   19  C38 UNL     1      -8.139  17.304  30.386  1.00  0.00     0.016 C 
HETATM   20  C16 UNL     1     -10.419  17.640  28.750  1.00  0.00     0.006 C 
HETATM   21  C18 UNL     1      -8.499  17.511  27.093  1.00  0.00    -0.035 C 
HETATM   22  C19 UNL     1      -9.234  18.801  26.713  1.00  0.00     0.016 C 
HETATM   23  C20 UNL     1      -8.580  16.655  25.833  1.00  0.00     0.011 C 
HETATM   24  C34 UNL     1      -7.086  17.864  27.456  1.00  0.00     0.003 C 
HETATM   25  C21 UNL     1      -7.277  16.468  25.138  1.00  0.00     0.015 C 
HETATM   26  C22 UNL     1      -6.499  17.756  24.993  1.00  0.00     0.086 C 
HETATM   27  C31 UNL     1      -6.214  18.357  26.340  1.00  0.00    -0.031 C 
HETATM   28  C32 UNL     1      -4.749  18.081  26.642  1.00  0.00     0.016 C 
HETATM   29  C33 UNL     1      -6.309  19.878  26.180  1.00  0.00     0.016 C 
HETATM   30  C35 UNL     1      -6.363  16.826  28.239  1.00  0.00     0.007 C 
BRANCH   8  31
HETATM   31  C2  UNL     1     -12.990  14.337  32.928  1.00  0.00    -0.089 C 
HETATM   32  C1  UNL     1     -13.922  15.233  32.931  1.00  0.00     0.014 C 
HETATM   33  C3  UNL     1     -13.138  13.204  33.928  1.00  0.00     0.043 C 
ENDBRANCH   8  31
BRANCH  26  34
HETATM   34  C23 UNL     1      -5.288  17.449  24.186  1.00  0.00     0.222 C 
HETATM   35  O2  UNL     1      -4.303  16.798  24.675  1.00  0.00    -0.273 OA
HETATM   36  N2  UNL     1      -5.158  17.860  22.832  1.00  0.00    -0.361 N 
ATOM     37  H2  UNL     1      -5.924  18.382  22.406  1.00  0.00     0.162 HD
BRANCH  36  38
HETATM   38  C24 UNL     1      -4.002  17.575  22.035  1.00  0.00     0.124 C 
BRANCH  38  39
HETATM   39  C25 UNL     1      -4.333  17.424  20.567  1.00  0.00     0.050 C 
BRANCH  39  40
HETATM   40  C26 UNL     1      -5.458  16.429  20.422  1.00  0.00     0.274 C 
BRANCH  40  41
HETATM   41  N3  UNL     1      -6.633  17.160  19.972  1.00  0.00     0.088 N 
HETATM   42  C27 UNL     1      -6.721  16.969  18.533  1.00  0.00     0.310 C 
BRANCH  41  43
HETATM   43  C28 UNL     1      -7.831  16.679  20.639  1.00  0.00     0.214 C 
HETATM   44  C29 UNL     1      -7.395  15.488  21.482  1.00  0.00     0.042 C 
HETATM   45  C30 UNL     1      -8.807  16.263  19.571  1.00  0.00     0.042 C 
ENDBRANCH  41  43
ENDBRANCH  40  41
ENDBRANCH  39  40
ENDBRANCH  38  39
ENDBRANCH  36  38
ENDBRANCH  26  34
ENDBRANCH   1   5
TORSDOF 8
ENDMDL
MODEL 5
REMARK VINA RESULT: -7.605177681      2.565      4.170
REMARK  8 active torsions:
REMARK  status: ('A' for Active; 'I' for Inactive)
REMARK    1  A    between atoms: C2_2  and  C4_4 
REMARK    2  A    between atoms: C7_7  and  C8_8 
REMARK    3  A    between atoms: C22_24  and  C23_25 
REMARK       I    between atoms: C23_25  and  N2_27 
REMARK    4  A    between atoms: N2_27  and  C24_29 
REMARK    5  A    between atoms: C24_29  and  C25_30 
REMARK    6  A    between atoms: C25_30  and  C26_31 
REMARK    7  A    between atoms: C26_31  and  N3_32 
REMARK    8  A    between atoms: N3_32  and  C28_34 
ROOT
HETATM    1  C8  UNL     1      -6.175  16.089  27.357  1.00  0.00     0.237 C 
HETATM    2  O1  UNL     1      -5.684  16.170  28.505  1.00  0.00    -0.280 OA
HETATM    3  C9  UNL     1      -5.334  16.638  26.302  1.00  0.00     0.139 C 
HETATM    4  N1  UNL     1      -4.673  17.090  25.463  1.00  0.00    -0.188 NA
ENDROOT
BRANCH   1   5
HETATM    5  C7  UNL     1      -7.498  15.494  27.022  1.00  0.00     0.040 C 
HETATM    6  C6  UNL     1      -7.267  14.937  25.597  1.00  0.00     0.019 C 
HETATM    7  C5  UNL     1      -8.656  14.942  24.998  1.00  0.00     0.010 C 
HETATM    8  C4  UNL     1      -9.094  16.342  25.410  1.00  0.00     0.019 C 
HETATM    9  C39 UNL     1      -8.563  16.475  26.792  1.00  0.00     0.015 C 
HETATM   10  C14 UNL     1      -9.668  16.508  27.853  1.00  0.00     0.000 C 
HETATM   11  C12 UNL     1     -10.137  15.205  28.365  1.00  0.00    -0.032 C 
HETATM   12  C15 UNL     1      -9.421  17.585  28.860  1.00  0.00     0.006 C 
HETATM   13  C11 UNL     1      -9.162  14.084  28.328  1.00  0.00     0.011 C 
HETATM   14  C13 UNL     1     -11.399  14.677  27.646  1.00  0.00     0.016 C 
HETATM   15  C37 UNL     1     -10.729  15.467  29.773  1.00  0.00    -0.032 C 
HETATM   16  C10 UNL     1      -7.769  14.365  27.944  1.00  0.00     0.020 C 
HETATM   17  C17 UNL     1      -9.611  15.850  30.676  1.00  0.00     0.003 C 
HETATM   18  C36 UNL     1     -11.361  14.211  30.327  1.00  0.00     0.011 C 
HETATM   19  C38 UNL     1     -11.826  16.477  29.649  1.00  0.00     0.016 C 
HETATM   20  C16 UNL     1      -9.168  17.223  30.252  1.00  0.00     0.006 C 
HETATM   21  C18 UNL     1      -9.793  15.634  32.133  1.00  0.00    -0.035 C 
HETATM   22  C19 UNL     1      -9.281  16.885  32.855  1.00  0.00     0.016 C 
HETATM   23  C20 UNL     1      -8.851  14.528  32.598  1.00  0.00     0.011 C 
HETATM   24  C34 UNL     1     -11.212  15.395  32.558  1.00  0.00     0.003 C 
HETATM   25  C21 UNL     1      -9.486  13.523  33.494  1.00  0.00     0.015 C 
HETATM   26  C22 UNL     1     -10.325  14.154  34.582  1.00  0.00     0.086 C 
HETATM   27  C31 UNL     1     -11.423  14.990  33.986  1.00  0.00    -0.031 C 
HETATM   28  C32 UNL     1     -12.710  14.195  34.135  1.00  0.00     0.016 C 
HETATM   29  C33 UNL     1     -11.600  16.210  34.897  1.00  0.00     0.016 C 
HETATM   30  C35 UNL     1     -11.990  14.498  31.661  1.00  0.00     0.007 C 
BRANCH   8  31
HETATM   31  C2  UNL     1      -8.616  17.232  24.365  1.00  0.00    -0.089 C 
HETATM   32  C1  UNL     1      -7.960  18.336  24.511  1.00  0.00     0.014 C 
HETATM   33  C3  UNL     1      -8.924  16.814  22.937  1.00  0.00     0.043 C 
ENDBRANCH   8  31
BRANCH  26  34
HETATM   34  C23 UNL     1     -10.798  13.055  35.465  1.00  0.00     0.222 C 
HETATM   35  O2  UNL     1     -10.879  11.849  35.051  1.00  0.00    -0.273 OA
HETATM   36  N2  UNL     1     -11.186  13.282  36.813  1.00  0.00    -0.361 N 
ATOM     37  H2  UNL     1     -11.135  14.233  37.180  1.00  0.00     0.162 HD
BRANCH  36  38
HETATM   38  C24 UNL     1     -11.643  12.239  37.682  1.00  0.00     0.124 C 
BRANCH  38  39
HETATM   39  C25 UNL     1     -13.049  12.480  38.184  1.00  0.00     0.050 C 
BRANCH  39  40
HETATM   40  C26 UNL     1     -12.994  13.437  39.349  1.00  0.00     0.274 C 
BRANCH  40  41
HETATM   41  N3  UNL     1     -14.311  13.453  39.966  1.00  0.00     0.088 N 
HETATM   42  C27 UNL     1     -14.101  13.557  41.401  1.00  0.00     0.310 C 
BRANCH  41  43
HETATM   43  C28 UNL     1     -15.104  14.565  39.470  1.00  0.00     0.214 C 
HETATM   44  C29 UNL     1     -15.108  15.608  40.579  1.00  0.00     0.042 C 
HETATM   45  C30 UNL     1     -16.493  14.046  39.206  1.00  0.00     0.042 C 
ENDBRANCH  41  43
ENDBRANCH  40  41
ENDBRANCH  39  40
ENDBRANCH  38  39
ENDBRANCH  36  38
ENDBRANCH  26  34
ENDBRANCH   1   5
TORSDOF 8
ENDMDL
