MODEL 1
REMARK VINA RESULT: -10.093321433      0.000      0.000
REMARK  9 active torsions:
REMARK  status: ('A' for Active; 'I' for Inactive)
REMARK    1  A    between atoms: C2_2  and  N1_3 
REMARK    2  A    between atoms: N1_3  and  C3_4 
REMARK    3  A    between atoms: N1_3  and  C5_6 
REMARK    4  A    between atoms: C5_6  and  C6_7 
REMARK    5  A    between atoms: C6_7  and  N2_8 
REMARK       I    between atoms: N2_8  and  C7_10 
REMARK    6  A    between atoms: C7_10  and  C8_12 
REMARK    7  A    between atoms: C19_23  and  C20_24 
REMARK    8  A    between atoms: C27_31  and  C28_32 
REMARK       I    between atoms: C28_32  and  N3_34 
REMARK    9  A    between atoms: N3_34  and  C29_36 
ROOT
HETATM    1  C8  UNL     1      -7.934  16.748  24.755  1.00  0.00     0.045 C 
HETATM    2  C9  UNL     1      -7.735  18.093  24.038  1.00  0.00     0.020 C 
HETATM    3  C10 UNL     1      -6.350  18.644  24.218  1.00  0.00     0.006 C 
HETATM    4  C11 UNL     1      -6.283  18.959  25.702  1.00  0.00    -0.014 C 
HETATM    5  C12 UNL     1      -5.127  19.870  26.022  1.00  0.00     0.010 C 
HETATM    6  C13 UNL     1      -6.184  17.653  26.409  1.00  0.00    -0.009 C 
HETATM    7  C14 UNL     1      -4.679  17.318  26.421  1.00  0.00     0.011 C 
HETATM    8  C15 UNL     1      -7.012  16.535  25.885  1.00  0.00     0.012 C 
HETATM    9  C16 UNL     1      -7.749  15.766  26.926  1.00  0.00    -0.000 C 
HETATM   10  C17 UNL     1      -6.999  15.349  28.138  1.00  0.00     0.006 C 
HETATM   11  C18 UNL     1      -8.175  14.588  28.777  1.00  0.00     0.006 C 
HETATM   12  C19 UNL     1      -9.362  15.463  28.582  1.00  0.00    -0.001 C 
HETATM   13  C36 UNL     1      -9.028  16.305  27.405  1.00  0.00    -0.036 C 
HETATM   14  C37 UNL     1      -9.215  17.740  27.657  1.00  0.00     0.016 C 
HETATM   15  C38 UNL     1      -9.945  16.029  26.194  1.00  0.00     0.011 C 
HETATM   16  C39 UNL     1      -9.388  16.618  24.962  1.00  0.00     0.020 C 
ENDROOT
BRANCH  12  17
HETATM   17  C20 UNL     1      -9.925  16.068  29.794  1.00  0.00    -0.000 C 
HETATM   18  C21 UNL     1      -9.346  17.328  30.314  1.00  0.00     0.006 C 
HETATM   19  C22 UNL     1      -8.464  16.948  31.510  1.00  0.00     0.006 C 
HETATM   20  C23 UNL     1      -8.729  15.526  31.844  1.00  0.00     0.004 C 
HETATM   21  C24 UNL     1      -9.603  15.425  33.089  1.00  0.00    -0.030 C 
HETATM   22  C34 UNL     1      -9.939  15.161  31.029  1.00  0.00    -0.023 C 
HETATM   23  C25 UNL     1      -9.254  16.521  34.068  1.00  0.00     0.016 C 
HETATM   24  C26 UNL     1      -9.603  14.109  33.795  1.00  0.00     0.016 C 
HETATM   25  C27 UNL     1     -10.748  15.716  32.166  1.00  0.00     0.095 C 
HETATM   26  C35 UNL     1     -10.145  13.729  30.687  1.00  0.00     0.017 C 
BRANCH  25  27
HETATM   27  C28 UNL     1     -12.044  15.171  32.476  1.00  0.00     0.223 C 
HETATM   28  O2  UNL     1     -12.772  15.680  33.350  1.00  0.00    -0.273 OA
HETATM   29  N3  UNL     1     -12.555  14.034  31.808  1.00  0.00    -0.356 N 
ATOM     30  H3  UNL     1     -11.960  13.617  31.092  1.00  0.00     0.162 HD
BRANCH  29  31
HETATM   31  C29 UNL     1     -13.824  13.408  32.034  1.00  0.00     0.084 C 
HETATM   32  C30 UNL     1     -14.185  12.661  30.771  1.00  0.00     0.025 C 
HETATM   33  C31 UNL     1     -15.242  11.697  31.264  1.00  0.00     0.002 C 
HETATM   34  C32 UNL     1     -14.535  11.123  32.493  1.00  0.00     0.002 C 
HETATM   35  C33 UNL     1     -13.696  12.239  33.022  1.00  0.00     0.025 C 
ENDBRANCH  29  31
ENDBRANCH  25  27
ENDBRANCH  12  17
BRANCH   1  36
HETATM   36  C7  UNL     1      -7.559  15.777  23.643  1.00  0.00     0.226 C 
HETATM   37  N2  UNL     1      -6.892  16.239  22.474  1.00  0.00    -0.359 N 
ATOM     38  H2  UNL     1      -6.680  17.234  22.404  1.00  0.00     0.162 HD
HETATM   39  O1  UNL     1      -7.822  14.567  23.729  1.00  0.00    -0.273 OA
BRANCH  37  40
HETATM   40  C6  UNL     1      -6.493  15.371  21.368  1.00  0.00     0.152 C 
BRANCH  40  41
HETATM   41  C5  UNL     1      -5.982  16.087  20.188  1.00  0.00     0.292 C 
BRANCH  41  42
HETATM   42  N1  UNL     1      -6.908  17.017  19.626  1.00  0.00     0.089 N 
BRANCH  42  43
HETATM   43  C2  UNL     1      -8.023  16.545  18.903  1.00  0.00     0.268 C 
HETATM   44  C1  UNL     1      -9.267  16.195  19.656  1.00  0.00     0.037 C 
ENDBRANCH  42  43
BRANCH  42  45
HETATM   45  C3  UNL     1      -6.152  17.891  18.672  1.00  0.00     0.268 C 
HETATM   46  C4  UNL     1      -5.870  17.013  17.474  1.00  0.00     0.037 C 
ENDBRANCH  42  45
ENDBRANCH  41  42
ENDBRANCH  40  41
ENDBRANCH  37  40
ENDBRANCH   1  36
TORSDOF 9
ENDMDL
MODEL 2
REMARK VINA RESULT: -10.046414614      4.719      8.156
REMARK  9 active torsions:
REMARK  status: ('A' for Active; 'I' for Inactive)
REMARK    1  A    between atoms: C2_2  and  N1_3 
REMARK    2  A    between atoms: N1_3  and  C3_4 
REMARK    3  A    between atoms: N1_3  and  C5_6 
REMARK    4  A    between atoms: C5_6  and  C6_7 
REMARK    5  A    between atoms: C6_7  and  N2_8 
REMARK       I    between atoms: N2_8  and  C7_10 
REMARK    6  A    between atoms: C7_10  and  C8_12 
REMARK    7  A    between atoms: C19_23  and  C20_24 
REMARK    8  A    between atoms: C27_31  and  C28_32 
REMARK       I    between atoms: C28_32  and  N3_34 
REMARK    9  A    between atoms: N3_34  and  C29_36 
ROOT
HETATM    1  C8  UNL     1      -1.025  18.501  24.116  1.00  0.00     0.045 C 
HETATM    2  C9  UNL     1       0.246  17.795  24.613  1.00  0.00     0.020 C 
HETATM    3  C10 UNL     1       0.805  16.834  23.603  1.00  0.00     0.006 C 
HETATM    4  C11 UNL     1      -0.256  15.751  23.520  1.00  0.00    -0.014 C 
HETATM    5  C12 UNL     1       0.276  14.507  22.858  1.00  0.00     0.010 C 
HETATM    6  C13 UNL     1      -1.405  16.338  22.776  1.00  0.00    -0.009 C 
HETATM    7  C14 UNL     1      -1.072  16.116  21.288  1.00  0.00     0.011 C 
HETATM    8  C15 UNL     1      -1.754  17.751  23.077  1.00  0.00     0.012 C 
HETATM    9  C16 UNL     1      -3.208  18.002  23.279  1.00  0.00    -0.000 C 
HETATM   10  C17 UNL     1      -4.154  17.418  22.293  1.00  0.00     0.006 C 
HETATM   11  C18 UNL     1      -5.416  18.024  22.933  1.00  0.00     0.006 C 
HETATM   12  C19 UNL     1      -5.245  17.830  24.398  1.00  0.00    -0.001 C 
HETATM   13  C36 UNL     1      -3.778  17.724  24.603  1.00  0.00    -0.036 C 
HETATM   14  C37 UNL     1      -3.393  16.537  25.375  1.00  0.00     0.016 C 
HETATM   15  C38 UNL     1      -3.205  18.895  25.430  1.00  0.00     0.011 C 
HETATM   16  C39 UNL     1      -1.735  18.945  25.330  1.00  0.00     0.020 C 
ENDROOT
BRANCH  12  17
HETATM   17  C20 UNL     1      -6.157  16.872  25.033  1.00  0.00    -0.000 C 
HETATM   18  C21 UNL     1      -7.053  16.052  24.187  1.00  0.00     0.006 C 
HETATM   19  C22 UNL     1      -8.448  16.684  24.280  1.00  0.00     0.006 C 
HETATM   20  C23 UNL     1      -8.422  17.697  25.365  1.00  0.00     0.004 C 
HETATM   21  C24 UNL     1      -9.124  17.164  26.608  1.00  0.00    -0.030 C 
HETATM   22  C34 UNL     1      -7.114  17.469  26.070  1.00  0.00    -0.023 C 
HETATM   23  C25 UNL     1     -10.302  16.302  26.220  1.00  0.00     0.016 C 
HETATM   24  C26 UNL     1      -9.560  18.180  27.613  1.00  0.00     0.016 C 
HETATM   25  C27 UNL     1      -7.842  16.433  26.875  1.00  0.00     0.095 C 
HETATM   26  C35 UNL     1      -6.514  18.607  26.814  1.00  0.00     0.017 C 
BRANCH  25  27
HETATM   27  C28 UNL     1      -7.466  16.168  28.239  1.00  0.00     0.223 C 
HETATM   28  O2  UNL     1      -6.271  16.147  28.593  1.00  0.00    -0.273 OA
HETATM   29  N3  UNL     1      -8.429  15.920  29.244  1.00  0.00    -0.356 N 
ATOM     30  H3  UNL     1      -9.407  15.938  28.955  1.00  0.00     0.162 HD
BRANCH  29  31
HETATM   31  C29 UNL     1      -8.172  15.645  30.627  1.00  0.00     0.084 C 
HETATM   32  C30 UNL     1      -8.719  16.807  31.423  1.00  0.00     0.025 C 
HETATM   33  C31 UNL     1      -8.823  16.218  32.812  1.00  0.00     0.002 C 
HETATM   34  C32 UNL     1      -9.546  14.906  32.498  1.00  0.00     0.002 C 
HETATM   35  C33 UNL     1      -9.068  14.508  31.141  1.00  0.00     0.025 C 
ENDBRANCH  29  31
ENDBRANCH  25  27
ENDBRANCH  12  17
BRANCH   1  36
HETATM   36  C7  UNL     1      -0.426  19.746  23.475  1.00  0.00     0.226 C 
HETATM   37  N2  UNL     1       0.363  20.646  24.243  1.00  0.00    -0.359 N 
ATOM     38  H2  UNL     1       0.508  20.435  25.231  1.00  0.00     0.162 HD
HETATM   39  O1  UNL     1      -0.609  20.003  22.274  1.00  0.00    -0.273 OA
BRANCH  37  40
HETATM   40  C6  UNL     1       0.977  21.856  23.702  1.00  0.00     0.152 C 
BRANCH  40  41
HETATM   41  C5  UNL     1       1.659  22.692  24.702  1.00  0.00     0.292 C 
BRANCH  41  42
HETATM   42  N1  UNL     1       0.839  23.052  25.815  1.00  0.00     0.089 N 
BRANCH  42  43
HETATM   43  C2  UNL     1       0.556  24.410  26.065  1.00  0.00     0.268 C 
HETATM   44  C1  UNL     1      -0.316  25.147  25.098  1.00  0.00     0.037 C 
ENDBRANCH  42  43
BRANCH  42  45
HETATM   45  C3  UNL     1       1.513  22.548  27.056  1.00  0.00     0.268 C 
HETATM   46  C4  UNL     1       1.497  23.716  28.015  1.00  0.00     0.037 C 
ENDBRANCH  42  45
ENDBRANCH  41  42
ENDBRANCH  40  41
ENDBRANCH  37  40
ENDBRANCH   1  36
TORSDOF 9
ENDMDL
MODEL 3
REMARK VINA RESULT: -9.964849704      0.651      1.074
REMARK  9 active torsions:
REMARK  status: ('A' for Active; 'I' for Inactive)
REMARK    1  A    between atoms: C2_2  and  N1_3 
REMARK    2  A    between atoms: N1_3  and  C3_4 
REMARK    3  A    between atoms: N1_3  and  C5_6 
REMARK    4  A    between atoms: C5_6  and  C6_7 
REMARK    5  A    between atoms: C6_7  and  N2_8 
REMARK       I    between atoms: N2_8  and  C7_10 
REMARK    6  A    between atoms: C7_10  and  C8_12 
REMARK    7  A    between atoms: C19_23  and  C20_24 
REMARK    8  A    between atoms: C27_31  and  C28_32 
REMARK       I    between atoms: C28_32  and  N3_34 
REMARK    9  A    between atoms: N3_34  and  C29_36 
ROOT
HETATM    1  C8  UNL     1      -7.966  16.729  24.710  1.00  0.00     0.045 C 
HETATM    2  C9  UNL     1      -7.768  18.072  23.991  1.00  0.00     0.020 C 
HETATM    3  C10 UNL     1      -6.380  18.619  24.160  1.00  0.00     0.006 C 
HETATM    4  C11 UNL     1      -6.302  18.936  25.644  1.00  0.00    -0.014 C 
HETATM    5  C12 UNL     1      -5.142  19.844  25.954  1.00  0.00     0.010 C 
HETATM    6  C13 UNL     1      -6.202  17.631  26.352  1.00  0.00    -0.009 C 
HETATM    7  C14 UNL     1      -4.698  17.292  26.353  1.00  0.00     0.011 C 
HETATM    8  C15 UNL     1      -7.037  16.515  25.835  1.00  0.00     0.012 C 
HETATM    9  C16 UNL     1      -7.769  15.749  26.881  1.00  0.00    -0.000 C 
HETATM   10  C17 UNL     1      -7.012  15.332  28.089  1.00  0.00     0.006 C 
HETATM   11  C18 UNL     1      -8.185  14.575  28.737  1.00  0.00     0.006 C 
HETATM   12  C19 UNL     1      -9.371  15.453  28.549  1.00  0.00    -0.001 C 
HETATM   13  C36 UNL     1      -9.043  16.293  27.369  1.00  0.00    -0.036 C 
HETATM   14  C37 UNL     1      -9.224  17.728  27.620  1.00  0.00     0.016 C 
HETATM   15  C38 UNL     1      -9.969  16.018  26.164  1.00  0.00     0.011 C 
HETATM   16  C39 UNL     1      -9.419  16.603  24.928  1.00  0.00     0.020 C 
ENDROOT
BRANCH  12  17
HETATM   17  C20 UNL     1      -9.924  16.061  29.765  1.00  0.00    -0.000 C 
HETATM   18  C21 UNL     1      -9.335  17.318  30.281  1.00  0.00     0.006 C 
HETATM   19  C22 UNL     1      -8.448  16.933  31.472  1.00  0.00     0.006 C 
HETATM   20  C23 UNL     1      -8.719  15.512  31.807  1.00  0.00     0.004 C 
HETATM   21  C24 UNL     1      -9.587  15.416  33.057  1.00  0.00    -0.030 C 
HETATM   22  C34 UNL     1      -9.936  15.154  31.000  1.00  0.00    -0.023 C 
HETATM   23  C25 UNL     1      -9.227  16.510  34.034  1.00  0.00     0.016 C 
HETATM   24  C26 UNL     1      -9.591  14.100  33.764  1.00  0.00     0.016 C 
HETATM   25  C27 UNL     1     -10.735  15.713  32.140  1.00  0.00     0.095 C 
HETATM   26  C35 UNL     1     -10.152  13.724  30.658  1.00  0.00     0.017 C 
BRANCH  25  27
HETATM   27  C28 UNL     1     -12.033  15.176  32.458  1.00  0.00     0.223 C 
HETATM   28  O2  UNL     1     -12.766  15.707  33.315  1.00  0.00    -0.273 OA
HETATM   29  N3  UNL     1     -12.540  14.022  31.817  1.00  0.00    -0.356 N 
ATOM     30  H3  UNL     1     -11.941  13.588  31.115  1.00  0.00     0.162 HD
BRANCH  29  31
HETATM   31  C29 UNL     1     -13.810  13.401  32.052  1.00  0.00     0.084 C 
HETATM   32  C30 UNL     1     -14.205  12.694  30.776  1.00  0.00     0.025 C 
HETATM   33  C31 UNL     1     -15.260  11.726  31.264  1.00  0.00     0.002 C 
HETATM   34  C32 UNL     1     -14.532  11.110  32.461  1.00  0.00     0.002 C 
HETATM   35  C33 UNL     1     -13.671  12.203  33.003  1.00  0.00     0.025 C 
ENDBRANCH  29  31
ENDBRANCH  25  27
ENDBRANCH  12  17
BRANCH   1  36
HETATM   36  C7  UNL     1      -7.601  15.756  23.597  1.00  0.00     0.226 C 
HETATM   37  N2  UNL     1      -7.042  16.229  22.378  1.00  0.00    -0.359 N 
ATOM     38  H2  UNL     1      -6.900  17.233  22.272  1.00  0.00     0.162 HD
HETATM   39  O1  UNL     1      -7.780  14.534  23.727  1.00  0.00    -0.273 OA
BRANCH  37  40
HETATM   40  C6  UNL     1      -6.660  15.360  21.267  1.00  0.00     0.152 C 
BRANCH  40  41
HETATM   41  C5  UNL     1      -5.587  15.899  20.415  1.00  0.00     0.292 C 
BRANCH  41  42
HETATM   42  N1  UNL     1      -5.626  17.318  20.260  1.00  0.00     0.089 N 
BRANCH  42  43
HETATM   43  C2  UNL     1      -6.201  17.879  19.101  1.00  0.00     0.268 C 
HETATM   44  C1  UNL     1      -6.149  17.097  17.827  1.00  0.00     0.037 C 
ENDBRANCH  42  43
BRANCH  42  45
HETATM   45  C3  UNL     1      -4.212  17.815  20.287  1.00  0.00     0.268 C 
HETATM   46  C4  UNL     1      -3.745  17.596  21.708  1.00  0.00     0.037 C 
ENDBRANCH  42  45
ENDBRANCH  41  42
ENDBRANCH  40  41
ENDBRANCH  37  40
ENDBRANCH   1  36
TORSDOF 9
ENDMDL
MODEL 4
REMARK VINA RESULT: -9.889627493      0.839      1.330
REMARK  9 active torsions:
REMARK  status: ('A' for Active; 'I' for Inactive)
REMARK    1  A    between atoms: C2_2  and  N1_3 
REMARK    2  A    between atoms: N1_3  and  C3_4 
REMARK    3  A    between atoms: N1_3  and  C5_6 
REMARK    4  A    between atoms: C5_6  and  C6_7 
REMARK    5  A    between atoms: C6_7  and  N2_8 
REMARK       I    between atoms: N2_8  and  C7_10 
REMARK    6  A    between atoms: C7_10  and  C8_12 
REMARK    7  A    between atoms: C19_23  and  C20_24 
REMARK    8  A    between atoms: C27_31  and  C28_32 
REMARK       I    between atoms: C28_32  and  N3_34 
REMARK    9  A    between atoms: N3_34  and  C29_36 
ROOT
HETATM    1  C8  UNL     1      -7.983  16.783  24.715  1.00  0.00     0.045 C 
HETATM    2  C9  UNL     1      -7.774  18.133  24.010  1.00  0.00     0.020 C 
HETATM    3  C10 UNL     1      -6.379  18.662  24.179  1.00  0.00     0.006 C 
HETATM    4  C11 UNL     1      -6.290  18.961  25.665  1.00  0.00    -0.014 C 
HETATM    5  C12 UNL     1      -5.118  19.852  25.979  1.00  0.00     0.010 C 
HETATM    6  C13 UNL     1      -6.201  17.646  26.358  1.00  0.00    -0.009 C 
HETATM    7  C14 UNL     1      -4.701  17.290  26.347  1.00  0.00     0.011 C 
HETATM    8  C15 UNL     1      -7.051  16.546  25.832  1.00  0.00     0.012 C 
HETATM    9  C16 UNL     1      -7.787  15.777  26.874  1.00  0.00    -0.000 C 
HETATM   10  C17 UNL     1      -7.028  15.337  28.073  1.00  0.00     0.006 C 
HETATM   11  C18 UNL     1      -8.206  14.586  28.718  1.00  0.00     0.006 C 
HETATM   12  C19 UNL     1      -9.383  15.480  28.547  1.00  0.00    -0.001 C 
HETATM   13  C36 UNL     1      -9.052  16.329  27.374  1.00  0.00    -0.036 C 
HETATM   14  C37 UNL     1      -9.215  17.763  27.643  1.00  0.00     0.016 C 
HETATM   15  C38 UNL     1      -9.987  16.078  26.172  1.00  0.00     0.011 C 
HETATM   16  C39 UNL     1      -9.437  16.672  24.939  1.00  0.00     0.020 C 
ENDROOT
BRANCH  12  17
HETATM   17  C20 UNL     1      -9.923  16.080  29.772  1.00  0.00    -0.000 C 
HETATM   18  C21 UNL     1      -9.324  17.330  30.293  1.00  0.00     0.006 C 
HETATM   19  C22 UNL     1      -8.429  16.932  31.474  1.00  0.00     0.006 C 
HETATM   20  C23 UNL     1      -8.703  15.509  31.800  1.00  0.00     0.004 C 
HETATM   21  C24 UNL     1      -9.560  15.406  33.056  1.00  0.00    -0.030 C 
HETATM   22  C34 UNL     1      -9.928  15.163  31.000  1.00  0.00    -0.023 C 
HETATM   23  C25 UNL     1      -9.187  16.491  34.039  1.00  0.00     0.016 C 
HETATM   24  C26 UNL     1      -9.563  14.085  33.752  1.00  0.00     0.016 C 
HETATM   25  C27 UNL     1     -10.715  15.716  32.152  1.00  0.00     0.095 C 
HETATM   26  C35 UNL     1     -10.153  13.736  30.649  1.00  0.00     0.017 C 
BRANCH  25  27
HETATM   27  C28 UNL     1     -12.012  15.181  32.476  1.00  0.00     0.223 C 
HETATM   28  O2  UNL     1     -12.735  15.707  33.345  1.00  0.00    -0.273 OA
HETATM   29  N3  UNL     1     -12.530  14.036  31.829  1.00  0.00    -0.356 N 
ATOM     30  H3  UNL     1     -11.939  13.605  31.118  1.00  0.00     0.162 HD
BRANCH  29  31
HETATM   31  C29 UNL     1     -13.801  13.418  32.070  1.00  0.00     0.084 C 
HETATM   32  C30 UNL     1     -14.216  12.735  30.788  1.00  0.00     0.025 C 
HETATM   33  C31 UNL     1     -15.271  11.765  31.273  1.00  0.00     0.002 C 
HETATM   34  C32 UNL     1     -14.531  11.125  32.450  1.00  0.00     0.002 C 
HETATM   35  C33 UNL     1     -13.657  12.203  32.999  1.00  0.00     0.025 C 
ENDBRANCH  29  31
ENDBRANCH  25  27
ENDBRANCH  12  17
BRANCH   1  36
HETATM   36  C7  UNL     1      -7.635  15.819  23.589  1.00  0.00     0.226 C 
HETATM   37  N2  UNL     1      -7.180  16.308  22.334  1.00  0.00    -0.359 N 
ATOM     38  H2  UNL     1      -7.099  17.317  22.212  1.00  0.00     0.162 HD
HETATM   39  O1  UNL     1      -7.739  14.590  23.739  1.00  0.00    -0.273 OA
BRANCH  37  40
HETATM   40  C6  UNL     1      -6.819  15.448  21.208  1.00  0.00     0.152 C 
BRANCH  40  41
HETATM   41  C5  UNL     1      -6.077  16.130  20.136  1.00  0.00     0.292 C 
BRANCH  41  42
HETATM   42  N1  UNL     1      -4.663  16.162  20.337  1.00  0.00     0.089 N 
BRANCH  42  43
HETATM   43  C2  UNL     1      -4.037  17.369  20.709  1.00  0.00     0.268 C 
HETATM   44  C1  UNL     1      -3.570  17.526  22.122  1.00  0.00     0.037 C 
ENDBRANCH  42  43
BRANCH  42  45
HETATM   45  C3  UNL     1      -4.013  15.753  19.050  1.00  0.00     0.268 C 
HETATM   46  C4  UNL     1      -4.761  16.506  17.974  1.00  0.00     0.037 C 
ENDBRANCH  42  45
ENDBRANCH  41  42
ENDBRANCH  40  41
ENDBRANCH  37  40
ENDBRANCH   1  36
TORSDOF 9
ENDMDL
MODEL 5
REMARK VINA RESULT: -9.754944605      2.328     11.091
REMARK  9 active torsions:
REMARK  status: ('A' for Active; 'I' for Inactive)
REMARK    1  A    between atoms: C2_2  and  N1_3 
REMARK    2  A    between atoms: N1_3  and  C3_4 
REMARK    3  A    between atoms: N1_3  and  C5_6 
REMARK    4  A    between atoms: C5_6  and  C6_7 
REMARK    5  A    between atoms: C6_7  and  N2_8 
REMARK       I    between atoms: N2_8  and  C7_10 
REMARK    6  A    between atoms: C7_10  and  C8_12 
REMARK    7  A    between atoms: C19_23  and  C20_24 
REMARK    8  A    between atoms: C27_31  and  C28_32 
REMARK       I    between atoms: C28_32  and  N3_34 
REMARK    9  A    between atoms: N3_34  and  C29_36 
ROOT
HETATM    1  C8  UNL     1     -10.462  15.249  30.954  1.00  0.00     0.045 C 
HETATM    2  C9  UNL     1     -11.810  15.628  31.586  1.00  0.00     0.020 C 
HETATM    3  C10 UNL     1     -12.874  14.597  31.337  1.00  0.00     0.006 C 
HETATM    4  C11 UNL     1     -13.093  14.668  29.836  1.00  0.00    -0.014 C 
HETATM    5  C12 UNL     1     -14.379  13.996  29.434  1.00  0.00     0.010 C 
HETATM    6  C13 UNL     1     -11.904  14.035  29.204  1.00  0.00    -0.009 C 
HETATM    7  C14 UNL     1     -12.224  12.527  29.172  1.00  0.00     0.011 C 
HETATM    8  C15 UNL     1     -10.580  14.323  29.814  1.00  0.00     0.012 C 
HETATM    9  C16 UNL     1      -9.509  14.673  28.839  1.00  0.00    -0.000 C 
HETATM   10  C17 UNL     1      -9.365  13.818  27.633  1.00  0.00     0.006 C 
HETATM   11  C18 UNL     1      -8.145  14.570  27.071  1.00  0.00     0.006 C 
HETATM   12  C19 UNL     1      -8.459  16.013  27.247  1.00  0.00    -0.001 C 
HETATM   13  C36 UNL     1      -9.437  16.060  28.363  1.00  0.00    -0.036 C 
HETATM   14  C37 UNL     1     -10.645  16.827  28.034  1.00  0.00     0.016 C 
HETATM   15  C38 UNL     1      -8.883  16.779  29.613  1.00  0.00     0.011 C 
HETATM   16  C39 UNL     1      -9.727  16.517  30.793  1.00  0.00     0.020 C 
ENDROOT
BRANCH  12  17
HETATM   17  C20 UNL     1      -8.697  16.777  26.017  1.00  0.00    -0.000 C 
HETATM   18  C21 UNL     1     -10.087  17.006  25.561  1.00  0.00     0.006 C 
HETATM   19  C22 UNL     1     -10.343  16.024  24.411  1.00  0.00     0.006 C 
HETATM   20  C23 UNL     1      -9.044  15.413  24.031  1.00  0.00     0.004 C 
HETATM   21  C24 UNL     1      -8.528  16.026  22.734  1.00  0.00    -0.030 C 
HETATM   22  C34 UNL     1      -8.011  16.225  24.763  1.00  0.00    -0.023 C 
HETATM   23  C25 UNL     1      -9.676  16.334  21.802  1.00  0.00     0.016 C 
HETATM   24  C26 UNL     1      -7.486  15.247  21.999  1.00  0.00     0.016 C 
HETATM   25  C27 UNL     1      -8.063  17.164  23.593  1.00  0.00     0.095 C 
HETATM   26  C35 UNL     1      -6.702  15.585  25.060  1.00  0.00     0.017 C 
BRANCH  25  27
HETATM   27  C28 UNL     1      -6.893  17.902  23.194  1.00  0.00     0.223 C 
HETATM   28  O2  UNL     1      -6.981  19.031  22.674  1.00  0.00    -0.273 OA
HETATM   29  N3  UNL     1      -5.589  17.385  23.370  1.00  0.00    -0.356 N 
ATOM     30  H3  UNL     1      -5.516  16.461  23.796  1.00  0.00     0.162 HD
BRANCH  29  31
HETATM   31  C29 UNL     1      -4.358  18.026  23.011  1.00  0.00     0.084 C 
HETATM   32  C30 UNL     1      -3.321  17.603  24.025  1.00  0.00     0.025 C 
HETATM   33  C31 UNL     1      -2.028  17.929  23.310  1.00  0.00     0.002 C 
HETATM   34  C32 UNL     1      -2.296  17.276  21.952  1.00  0.00     0.002 C 
HETATM   35  C33 UNL     1      -3.767  17.411  21.734  1.00  0.00     0.025 C 
ENDBRANCH  29  31
ENDBRANCH  25  27
ENDBRANCH  12  17
BRANCH   1  36
HETATM   36  C7  UNL     1      -9.807  14.504  32.110  1.00  0.00     0.226 C 
HETATM   37  N2  UNL     1     -10.588  14.036  33.203  1.00  0.00    -0.359 N 
ATOM     38  H2  UNL     1     -11.591  14.220  33.189  1.00  0.00     0.162 HD
HETATM   39  O1  UNL     1      -8.585  14.286  32.125  1.00  0.00    -0.273 OA
BRANCH  37  40
HETATM   40  C6  UNL     1     -10.037  13.308  34.344  1.00  0.00     0.152 C 
BRANCH  40  41
HETATM   41  C5  UNL     1     -10.590  13.712  35.647  1.00  0.00     0.292 C 
BRANCH  41  42
HETATM   42  N1  UNL     1     -10.798  15.119  35.779  1.00  0.00     0.089 N 
BRANCH  42  43
HETATM   43  C2  UNL     1      -9.721  15.954  36.139  1.00  0.00     0.268 C 
HETATM   44  C1  UNL     1      -8.991  16.684  35.056  1.00  0.00     0.037 C 
ENDBRANCH  42  43
BRANCH  42  45
HETATM   45  C3  UNL     1     -11.837  15.325  36.839  1.00  0.00     0.268 C 
HETATM   46  C4  UNL     1     -12.245  13.934  37.267  1.00  0.00     0.037 C 
ENDBRANCH  42  45
ENDBRANCH  41  42
ENDBRANCH  40  41
ENDBRANCH  37  40
ENDBRANCH   1  36
TORSDOF 9
ENDMDL
