MODEL 1
REMARK VINA RESULT: -7.287411193      0.000      0.000
REMARK  11 active torsions:
REMARK  status: ('A' for Active; 'I' for Inactive)
REMARK    1  A    between atoms: C2_2  and  C3_3 
REMARK    2  A    between atoms: C2_2  and  C8_12 
REMARK    3  A    between atoms: C3_3  and  C4_4 
REMARK    4  A    between atoms: C4_4  and  N1_5 
REMARK    5  A    between atoms: C4_4  and  C5_9 
REMARK    6  A    between atoms: C25_29  and  C27_31 
REMARK    7  A    between atoms: C27_31  and  O1_32 
REMARK    8  A    between atoms: C27_31  and  C28_34 
REMARK    9  A    between atoms: C28_34  and  C29_35 
REMARK   10  A    between atoms: C29_35  and  N2_36 
REMARK   11  A    between atoms: N2_36  and  C30_39 
ROOT
HETATM    1  C8  UNL     1      -2.475  17.449  22.229  1.00  0.00     0.021 C 
HETATM    2  C9  UNL     1      -2.180  17.199  20.734  1.00  0.00     0.010 C 
HETATM    3  C10 UNL     1      -3.466  16.511  20.319  1.00  0.00     0.011 C 
HETATM    4  C11 UNL     1      -4.427  17.536  20.997  1.00  0.00    -0.030 C 
HETATM    5  C12 UNL     1      -3.999  18.811  20.344  1.00  0.00     0.016 C 
HETATM    6  C13 UNL     1      -3.967  17.266  22.374  1.00  0.00     0.032 C 
HETATM    7  C14 UNL     1      -4.569  18.059  23.511  1.00  0.00     0.128 C 
HETATM    8  C15 UNL     1      -5.450  19.196  23.034  1.00  0.00     0.033 C 
HETATM    9  C16 UNL     1      -6.640  18.828  22.240  1.00  0.00     0.008 C 
HETATM   10  C17 UNL     1      -6.724  17.435  21.736  1.00  0.00    -0.001 C 
HETATM   11  C18 UNL     1      -8.067  16.849  21.526  1.00  0.00    -0.004 C 
HETATM   12  C19 UNL     1      -8.958  16.738  22.710  1.00  0.00     0.015 C 
HETATM   13  C20 UNL     1      -8.438  15.357  23.063  1.00  0.00    -0.040 C 
HETATM   14  C21 UNL     1      -9.677  14.440  23.204  1.00  0.00     0.015 C 
HETATM   15  C22 UNL     1      -7.542  15.189  24.167  1.00  0.00     0.010 C 
HETATM   16  C23 UNL     1      -7.479  16.298  25.212  1.00  0.00     0.004 C 
HETATM   17  C24 UNL     1      -6.245  16.217  26.069  1.00  0.00     0.040 C 
HETATM   18  C25 UNL     1      -5.219  17.356  25.737  1.00  0.00     0.083 C 
HETATM   19  C26 UNL     1      -4.000  16.812  26.503  1.00  0.00     0.049 C 
HETATM   20  O2  UNL     1      -5.076  17.292  24.462  1.00  0.00    -0.372 OA
HETATM   21  C35 UNL     1      -7.970  15.311  21.656  1.00  0.00    -0.002 C 
HETATM   22  C36 UNL     1      -6.627  14.887  21.275  1.00  0.00     0.006 C 
HETATM   23  C37 UNL     1      -6.005  15.746  20.160  1.00  0.00     0.011 C 
HETATM   24  C38 UNL     1      -5.787  17.178  20.552  1.00  0.00    -0.032 C 
HETATM   25  C39 UNL     1      -6.227  18.012  19.352  1.00  0.00     0.016 C 
ENDROOT
BRANCH  18  26
HETATM   26  C27 UNL     1      -5.673  18.532  26.497  1.00  0.00     0.153 C 
BRANCH  26  27
HETATM   27  O1  UNL     1      -6.493  19.448  25.852  1.00  0.00    -0.393 OA
ATOM     28  H1  UNL     1      -6.123  20.292  25.621  1.00  0.00     0.210 HD
ENDBRANCH  26  27
BRANCH  26  29
HETATM   29  C28 UNL     1      -6.362  18.157  27.784  1.00  0.00     0.062 C 
BRANCH  29  30
HETATM   30  C29 UNL     1      -7.811  18.702  27.770  1.00  0.00     0.237 C 
BRANCH  30  31
HETATM   31  N2  UNL     1      -8.466  18.099  28.911  1.00  0.00    -0.046 N 
ATOM     32  H22 UNL     1      -7.963  18.301  29.775  1.00  0.00     0.279 HD
ATOM     33  H21 UNL     1      -9.347  18.569  29.122  1.00  0.00     0.279 HD
BRANCH  31  34
HETATM   34  C30 UNL     1      -8.662  16.671  28.737  1.00  0.00     0.387 C 
HETATM   35  C31 UNL     1      -8.424  15.852  29.986  1.00  0.00     0.091 C 
HETATM   36  C32 UNL     1      -9.710  15.162  29.583  1.00  0.00     0.243 C 
HETATM   37  N3  UNL     1     -10.068  16.347  28.826  1.00  0.00    -0.046 N 
HETATM   38  C33 UNL     1     -10.815  17.295  29.629  1.00  0.00     0.274 C 
HETATM   39  C34 UNL     1     -10.645  16.051  27.540  1.00  0.00     0.274 C 
ENDBRANCH  31  34
ENDBRANCH  30  31
ENDBRANCH  29  30
ENDBRANCH  26  29
ENDBRANCH  18  26
BRANCH   1  40
HETATM   40  C2  UNL     1      -1.600  16.501  22.915  1.00  0.00    -0.083 C 
HETATM   41  C1  UNL     1      -1.284  15.296  22.541  1.00  0.00     0.015 C 
BRANCH  40  42
HETATM   42  C3  UNL     1      -1.019  17.000  24.215  1.00  0.00     0.066 C 
BRANCH  42  43
HETATM   43  C4  UNL     1       0.010  18.053  24.072  1.00  0.00     0.190 C 
BRANCH  43  44
HETATM   44  N1  UNL     1       1.297  17.359  24.407  1.00  0.00    -0.074 N 
ATOM     45  H13 UNL     1       1.972  17.338  23.643  1.00  0.00     0.274 HD
ATOM     46  H12 UNL     1       1.888  17.868  25.065  1.00  0.00     0.274 HD
ATOM     47  H11 UNL     1       1.006  16.437  24.732  1.00  0.00     0.274 HD
ENDBRANCH  43  44
BRANCH  43  48
HETATM   48  C5  UNL     1      -0.103  19.106  25.165  1.00  0.00     0.008 C 
HETATM   49  C6  UNL     1      -1.586  19.348  25.421  1.00  0.00     0.011 C 
HETATM   50  C7  UNL     1       0.439  20.442  24.676  1.00  0.00     0.011 C 
ENDBRANCH  43  48
ENDBRANCH  42  43
ENDBRANCH  40  42
ENDBRANCH   1  40
TORSDOF 11
ENDMDL
MODEL 2
REMARK VINA RESULT: -7.277913459      9.128     12.626
REMARK  11 active torsions:
REMARK  status: ('A' for Active; 'I' for Inactive)
REMARK    1  A    between atoms: C2_2  and  C3_3 
REMARK    2  A    between atoms: C2_2  and  C8_12 
REMARK    3  A    between atoms: C3_3  and  C4_4 
REMARK    4  A    between atoms: C4_4  and  N1_5 
REMARK    5  A    between atoms: C4_4  and  C5_9 
REMARK    6  A    between atoms: C25_29  and  C27_31 
REMARK    7  A    between atoms: C27_31  and  O1_32 
REMARK    8  A    between atoms: C27_31  and  C28_34 
REMARK    9  A    between atoms: C28_34  and  C29_35 
REMARK   10  A    between atoms: C29_35  and  N2_36 
REMARK   11  A    between atoms: N2_36  and  C30_39 
ROOT
HETATM    1  C8  UNL     1     -10.162  15.262  31.842  1.00  0.00     0.021 C 
HETATM    2  C9  UNL     1      -9.861  15.545  30.354  1.00  0.00     0.010 C 
HETATM    3  C10 UNL     1     -10.578  14.375  29.708  1.00  0.00     0.011 C 
HETATM    4  C11 UNL     1     -11.906  14.532  30.515  1.00  0.00    -0.030 C 
HETATM    5  C12 UNL     1     -12.284  15.938  30.179  1.00  0.00     0.016 C 
HETATM    6  C13 UNL     1     -11.297  14.266  31.833  1.00  0.00     0.032 C 
HETATM    7  C14 UNL     1     -12.172  14.332  33.064  1.00  0.00     0.128 C 
HETATM    8  C15 UNL     1     -13.558  14.874  32.773  1.00  0.00     0.033 C 
HETATM    9  C16 UNL     1     -14.392  14.098  31.834  1.00  0.00     0.008 C 
HETATM   10  C17 UNL     1     -13.725  13.034  31.042  1.00  0.00    -0.001 C 
HETATM   11  C18 UNL     1     -14.535  11.872  30.614  1.00  0.00    -0.004 C 
HETATM   12  C19 UNL     1     -15.152  11.039  31.678  1.00  0.00     0.015 C 
HETATM   13  C20 UNL     1     -13.941  10.129  31.771  1.00  0.00    -0.040 C 
HETATM   14  C21 UNL     1     -14.464   8.680  31.623  1.00  0.00     0.015 C 
HETATM   15  C22 UNL     1     -13.041  10.244  32.877  1.00  0.00     0.010 C 
HETATM   16  C23 UNL     1     -13.539  10.949  34.135  1.00  0.00     0.004 C 
HETATM   17  C24 UNL     1     -12.418  11.372  35.045  1.00  0.00     0.040 C 
HETATM   18  C25 UNL     1     -12.207  12.926  35.037  1.00  0.00     0.083 C 
HETATM   19  C26 UNL     1     -10.849  12.987  35.760  1.00  0.00     0.049 C 
HETATM   20  O2  UNL     1     -12.121  13.229  33.792  1.00  0.00    -0.372 OA
HETATM   21  C35 UNL     1     -13.603  10.653  30.424  1.00  0.00    -0.002 C 
HETATM   22  C36 UNL     1     -12.272  11.127  30.063  1.00  0.00     0.006 C 
HETATM   23  C37 UNL     1     -12.286  12.402  29.203  1.00  0.00     0.011 C 
HETATM   24  C38 UNL     1     -12.868  13.595  29.904  1.00  0.00    -0.032 C 
HETATM   25  C39 UNL     1     -13.758  14.289  28.877  1.00  0.00     0.016 C 
ENDROOT
BRANCH  18  26
HETATM   26  C27 UNL     1     -13.189  13.465  35.992  1.00  0.00     0.153 C 
BRANCH  26  27
HETATM   27  O1  UNL     1     -14.295  12.684  36.299  1.00  0.00    -0.393 OA
ATOM     28  H1  UNL     1     -14.897  13.005  36.960  1.00  0.00     0.210 HD
ENDBRANCH  26  27
BRANCH  26  29
HETATM   29  C28 UNL     1     -12.560  13.869  37.301  1.00  0.00     0.062 C 
BRANCH  29  30
HETATM   30  C29 UNL     1     -13.465  13.409  38.470  1.00  0.00     0.237 C 
BRANCH  30  31
HETATM   31  N2  UNL     1     -14.232  14.575  38.852  1.00  0.00    -0.046 N 
ATOM     32  H22 UNL     1     -13.701  15.176  39.483  1.00  0.00     0.279 HD
ATOM     33  H21 UNL     1     -14.341  15.218  38.068  1.00  0.00     0.279 HD
BRANCH  31  34
HETATM   34  C30 UNL     1     -15.519  14.220  39.424  1.00  0.00     0.387 C 
HETATM   35  C31 UNL     1     -15.442  13.615  40.808  1.00  0.00     0.091 C 
HETATM   36  C32 UNL     1     -16.586  14.562  41.108  1.00  0.00     0.243 C 
HETATM   37  N3  UNL     1     -16.147  15.388  39.998  1.00  0.00    -0.046 N 
HETATM   38  C33 UNL     1     -15.190  16.392  40.419  1.00  0.00     0.274 C 
HETATM   39  C34 UNL     1     -17.231  15.882  39.190  1.00  0.00     0.274 C 
ENDBRANCH  31  34
ENDBRANCH  30  31
ENDBRANCH  29  30
ENDBRANCH  26  29
ENDBRANCH  18  26
BRANCH   1  40
HETATM   40  C2  UNL     1      -8.874  14.824  32.375  1.00  0.00    -0.083 C 
HETATM   41  C1  UNL     1      -8.313  13.659  32.244  1.00  0.00     0.015 C 
BRANCH  40  42
HETATM   42  C3  UNL     1      -8.135  15.865  33.181  1.00  0.00     0.066 C 
BRANCH  42  43
HETATM   43  C4  UNL     1      -8.991  16.708  34.043  1.00  0.00     0.190 C 
BRANCH  43  44
HETATM   44  N1  UNL     1      -8.111  17.862  34.422  1.00  0.00    -0.074 N 
ATOM     45  H13 UNL     1      -7.261  17.594  34.917  1.00  0.00     0.274 HD
ATOM     46  H12 UNL     1      -7.644  18.308  33.632  1.00  0.00     0.274 HD
ATOM     47  H11 UNL     1      -8.725  18.482  34.950  1.00  0.00     0.274 HD
ENDBRANCH  43  44
BRANCH  43  48
HETATM   48  C5  UNL     1      -9.276  16.043  35.382  1.00  0.00     0.008 C 
HETATM   49  C6  UNL     1     -10.706  16.393  35.776  1.00  0.00     0.011 C 
HETATM   50  C7  UNL     1      -8.404  16.647  36.473  1.00  0.00     0.011 C 
ENDBRANCH  43  48
ENDBRANCH  42  43
ENDBRANCH  40  42
ENDBRANCH   1  40
TORSDOF 11
ENDMDL
MODEL 3
REMARK VINA RESULT: -7.275657946      1.335      1.990
REMARK  11 active torsions:
REMARK  status: ('A' for Active; 'I' for Inactive)
REMARK    1  A    between atoms: C2_2  and  C3_3 
REMARK    2  A    between atoms: C2_2  and  C8_12 
REMARK    3  A    between atoms: C3_3  and  C4_4 
REMARK    4  A    between atoms: C4_4  and  N1_5 
REMARK    5  A    between atoms: C4_4  and  C5_9 
REMARK    6  A    between atoms: C25_29  and  C27_31 
REMARK    7  A    between atoms: C27_31  and  O1_32 
REMARK    8  A    between atoms: C27_31  and  C28_34 
REMARK    9  A    between atoms: C28_34  and  C29_35 
REMARK   10  A    between atoms: C29_35  and  N2_36 
REMARK   11  A    between atoms: N2_36  and  C30_39 
ROOT
HETATM    1  C8  UNL     1      -2.757  17.516  23.136  1.00  0.00     0.021 C 
HETATM    2  C9  UNL     1      -2.224  17.298  21.703  1.00  0.00     0.010 C 
HETATM    3  C10 UNL     1      -3.405  16.575  21.085  1.00  0.00     0.011 C 
HETATM    4  C11 UNL     1      -4.495  17.559  21.615  1.00  0.00    -0.030 C 
HETATM    5  C12 UNL     1      -4.014  18.856  21.050  1.00  0.00     0.016 C 
HETATM    6  C13 UNL     1      -4.246  17.282  23.044  1.00  0.00     0.032 C 
HETATM    7  C14 UNL     1      -5.045  18.037  24.081  1.00  0.00     0.128 C 
HETATM    8  C15 UNL     1      -5.879  19.153  23.483  1.00  0.00     0.033 C 
HETATM    9  C16 UNL     1      -6.918  18.759  22.509  1.00  0.00     0.008 C 
HETATM   10  C17 UNL     1      -6.874  17.372  21.984  1.00  0.00    -0.001 C 
HETATM   11  C18 UNL     1      -8.147  16.746  21.560  1.00  0.00    -0.004 C 
HETATM   12  C19 UNL     1      -9.207  16.589  22.589  1.00  0.00     0.015 C 
HETATM   13  C20 UNL     1      -8.702  15.220  23.006  1.00  0.00    -0.040 C 
HETATM   14  C21 UNL     1      -9.916  14.262  22.942  1.00  0.00     0.015 C 
HETATM   15  C22 UNL     1      -7.984  15.064  24.234  1.00  0.00     0.010 C 
HETATM   16  C23 UNL     1      -8.123  16.158  25.287  1.00  0.00     0.004 C 
HETATM   17  C24 UNL     1      -7.036  16.104  26.326  1.00  0.00     0.040 C 
HETATM   18  C25 UNL     1      -6.011  17.280  26.170  1.00  0.00     0.083 C 
HETATM   19  C26 UNL     1      -4.908  16.764  27.112  1.00  0.00     0.049 C 
HETATM   20  O2  UNL     1      -5.667  17.240  24.933  1.00  0.00    -0.372 OA
HETATM   21  C35 UNL     1      -8.019  15.211  21.688  1.00  0.00    -0.002 C 
HETATM   22  C36 UNL     1      -6.620  14.836  21.518  1.00  0.00     0.006 C 
HETATM   23  C37 UNL     1      -5.861  15.731  20.522  1.00  0.00     0.011 C 
HETATM   24  C38 UNL     1      -5.756  17.163  20.959  1.00  0.00    -0.032 C 
HETATM   25  C39 UNL     1      -6.031  18.001  19.713  1.00  0.00     0.016 C 
ENDROOT
BRANCH  18  26
HETATM   26  C27 UNL     1      -6.617  18.429  26.861  1.00  0.00     0.153 C 
BRANCH  26  27
HETATM   27  O1  UNL     1      -7.582  19.162  26.184  1.00  0.00    -0.393 OA
ATOM     28  H1  UNL     1      -7.489  20.108  26.162  1.00  0.00     0.210 HD
ENDBRANCH  26  27
BRANCH  26  29
HETATM   29  C28 UNL     1      -7.209  18.053  28.196  1.00  0.00     0.062 C 
BRANCH  29  30
HETATM   30  C29 UNL     1      -8.745  18.244  28.150  1.00  0.00     0.237 C 
BRANCH  30  31
HETATM   31  N2  UNL     1      -9.235  17.777  29.428  1.00  0.00    -0.046 N 
ATOM     32  H22 UNL     1      -9.081  18.472  30.159  1.00  0.00     0.279 HD
ATOM     33  H21 UNL     1     -10.255  17.748  29.445  1.00  0.00     0.279 HD
BRANCH  31  34
HETATM   34  C30 UNL     1      -8.668  16.493  29.796  1.00  0.00     0.387 C 
HETATM   35  C31 UNL     1      -8.478  16.298  31.284  1.00  0.00     0.091 C 
HETATM   36  C32 UNL     1      -9.084  14.935  31.018  1.00  0.00     0.243 C 
HETATM   37  N3  UNL     1      -9.700  15.481  29.823  1.00  0.00    -0.046 N 
HETATM   38  C33 UNL     1     -11.015  16.027  30.095  1.00  0.00     0.274 C 
HETATM   39  C34 UNL     1      -9.630  14.597  28.689  1.00  0.00     0.274 C 
ENDBRANCH  31  34
ENDBRANCH  30  31
ENDBRANCH  29  30
ENDBRANCH  26  29
ENDBRANCH  18  26
BRANCH   1  40
HETATM   40  C2  UNL     1      -1.968  16.586  23.940  1.00  0.00    -0.083 C 
HETATM   41  C1  UNL     1      -2.234  16.142  25.134  1.00  0.00     0.015 C 
BRANCH  40  42
HETATM   42  C3  UNL     1      -0.692  16.109  23.290  1.00  0.00     0.066 C 
BRANCH  42  43
HETATM   43  C4  UNL     1       0.274  15.471  24.211  1.00  0.00     0.190 C 
BRANCH  43  44
HETATM   44  N1  UNL     1       1.563  16.191  23.949  1.00  0.00    -0.074 N 
ATOM     45  H13 UNL     1       2.245  15.648  23.418  1.00  0.00     0.274 HD
ATOM     46  H12 UNL     1       1.486  16.957  23.280  1.00  0.00     0.274 HD
ATOM     47  H11 UNL     1       1.885  16.474  24.874  1.00  0.00     0.274 HD
ENDBRANCH  43  44
BRANCH  43  48
HETATM   48  C5  UNL     1       0.591  14.042  23.798  1.00  0.00     0.008 C 
HETATM   49  C6  UNL     1       0.146  13.871  22.350  1.00  0.00     0.011 C 
HETATM   50  C7  UNL     1      -0.253  13.056  24.592  1.00  0.00     0.011 C 
ENDBRANCH  43  48
ENDBRANCH  42  43
ENDBRANCH  40  42
ENDBRANCH   1  40
TORSDOF 11
ENDMDL
MODEL 4
REMARK VINA RESULT: -7.227180401      9.189     12.669
REMARK  11 active torsions:
REMARK  status: ('A' for Active; 'I' for Inactive)
REMARK    1  A    between atoms: C2_2  and  C3_3 
REMARK    2  A    between atoms: C2_2  and  C8_12 
REMARK    3  A    between atoms: C3_3  and  C4_4 
REMARK    4  A    between atoms: C4_4  and  N1_5 
REMARK    5  A    between atoms: C4_4  and  C5_9 
REMARK    6  A    between atoms: C25_29  and  C27_31 
REMARK    7  A    between atoms: C27_31  and  O1_32 
REMARK    8  A    between atoms: C27_31  and  C28_34 
REMARK    9  A    between atoms: C28_34  and  C29_35 
REMARK   10  A    between atoms: C29_35  and  N2_36 
REMARK   11  A    between atoms: N2_36  and  C30_39 
ROOT
HETATM    1  C8  UNL     1     -10.294  15.224  31.850  1.00  0.00     0.021 C 
HETATM    2  C9  UNL     1      -9.966  15.534  30.374  1.00  0.00     0.010 C 
HETATM    3  C10 UNL     1     -10.615  14.340  29.699  1.00  0.00     0.011 C 
HETATM    4  C11 UNL     1     -11.969  14.431  30.471  1.00  0.00    -0.030 C 
HETATM    5  C12 UNL     1     -12.399  15.823  30.136  1.00  0.00     0.016 C 
HETATM    6  C13 UNL     1     -11.385  14.180  31.803  1.00  0.00     0.032 C 
HETATM    7  C14 UNL     1     -12.294  14.196  33.011  1.00  0.00     0.128 C 
HETATM    8  C15 UNL     1     -13.693  14.680  32.687  1.00  0.00     0.033 C 
HETATM    9  C16 UNL     1     -14.468  13.877  31.719  1.00  0.00     0.008 C 
HETATM   10  C17 UNL     1     -13.735  12.851  30.936  1.00  0.00    -0.001 C 
HETATM   11  C18 UNL     1     -14.481  11.659  30.477  1.00  0.00    -0.004 C 
HETATM   12  C19 UNL     1     -15.089  10.790  31.517  1.00  0.00     0.015 C 
HETATM   13  C20 UNL     1     -13.843   9.933  31.635  1.00  0.00    -0.040 C 
HETATM   14  C21 UNL     1     -14.297   8.463  31.460  1.00  0.00     0.015 C 
HETATM   15  C22 UNL     1     -12.978  10.076  32.766  1.00  0.00     0.010 C 
HETATM   16  C23 UNL     1     -13.540  10.747  34.015  1.00  0.00     0.004 C 
HETATM   17  C24 UNL     1     -12.463  11.210  34.959  1.00  0.00     0.040 C 
HETATM   18  C25 UNL     1     -12.319  12.771  34.970  1.00  0.00     0.083 C 
HETATM   19  C26 UNL     1     -10.985  12.884  35.730  1.00  0.00     0.049 C 
HETATM   20  O2  UNL     1     -12.214  13.089  33.730  1.00  0.00    -0.372 OA
HETATM   21  C35 UNL     1     -13.492  10.483  30.302  1.00  0.00    -0.002 C 
HETATM   22  C36 UNL     1     -12.173  11.018  29.981  1.00  0.00     0.006 C 
HETATM   23  C37 UNL     1     -12.220  12.300  29.132  1.00  0.00     0.011 C 
HETATM   24  C38 UNL     1     -12.872  13.459  29.827  1.00  0.00    -0.032 C 
HETATM   25  C39 UNL     1     -13.765  14.124  28.782  1.00  0.00     0.016 C 
ENDROOT
BRANCH  18  26
HETATM   26  C27 UNL     1     -13.349  13.257  35.902  1.00  0.00     0.153 C 
BRANCH  26  27
HETATM   27  O1  UNL     1     -14.573  12.603  35.921  1.00  0.00    -0.393 OA
ATOM     28  H1  UNL     1     -14.762  12.032  36.657  1.00  0.00     0.210 HD
ENDBRANCH  26  27
BRANCH  26  29
HETATM   29  C28 UNL     1     -12.859  13.312  37.327  1.00  0.00     0.062 C 
BRANCH  29  30
HETATM   30  C29 UNL     1     -13.781  12.448  38.222  1.00  0.00     0.237 C 
BRANCH  30  31
HETATM   31  N2  UNL     1     -13.044  11.231  38.482  1.00  0.00    -0.046 N 
ATOM     32  H22 UNL     1     -12.387  11.028  37.728  1.00  0.00     0.279 HD
ATOM     33  H21 UNL     1     -12.379  11.358  39.245  1.00  0.00     0.279 HD
BRANCH  31  34
HETATM   34  C30 UNL     1     -13.921  10.102  38.733  1.00  0.00     0.387 C 
HETATM   35  C31 UNL     1     -14.607   9.559  37.500  1.00  0.00     0.091 C 
HETATM   36  C32 UNL     1     -14.205   8.213  38.067  1.00  0.00     0.243 C 
HETATM   37  N3  UNL     1     -13.152   8.881  38.810  1.00  0.00    -0.046 N 
HETATM   38  C33 UNL     1     -11.917   8.946  38.054  1.00  0.00     0.274 C 
HETATM   39  C34 UNL     1     -13.015   8.403  40.161  1.00  0.00     0.274 C 
ENDBRANCH  31  34
ENDBRANCH  30  31
ENDBRANCH  29  30
ENDBRANCH  26  29
ENDBRANCH  18  26
BRANCH   1  40
HETATM   40  C2  UNL     1      -9.003  14.838  32.415  1.00  0.00    -0.083 C 
HETATM   41  C1  UNL     1      -8.424  13.675  32.354  1.00  0.00     0.015 C 
BRANCH  40  42
HETATM   42  C3  UNL     1      -8.284  15.934  33.163  1.00  0.00     0.066 C 
BRANCH  42  43
HETATM   43  C4  UNL     1      -9.129  16.703  34.103  1.00  0.00     0.190 C 
BRANCH  43  44
HETATM   44  N1  UNL     1      -8.264  17.855  34.518  1.00  0.00    -0.074 N 
ATOM     45  H13 UNL     1      -8.020  18.491  33.758  1.00  0.00     0.274 HD
ATOM     46  H12 UNL     1      -8.739  18.548  35.096  1.00  0.00     0.274 HD
ATOM     47  H11 UNL     1      -7.460  17.415  34.968  1.00  0.00     0.274 HD
ENDBRANCH  43  44
BRANCH  43  48
HETATM   48  C5  UNL     1      -9.348  15.953  35.409  1.00  0.00     0.008 C 
HETATM   49  C6  UNL     1     -10.787  16.203  35.847  1.00  0.00     0.011 C 
HETATM   50  C7  UNL     1      -8.488  16.547  36.515  1.00  0.00     0.011 C 
ENDBRANCH  43  48
ENDBRANCH  42  43
ENDBRANCH  40  42
ENDBRANCH   1  40
TORSDOF 11
ENDMDL
MODEL 5
REMARK VINA RESULT: -7.213157758      8.501     15.327
REMARK  11 active torsions:
REMARK  status: ('A' for Active; 'I' for Inactive)
REMARK    1  A    between atoms: C2_2  and  C3_3 
REMARK    2  A    between atoms: C2_2  and  C8_12 
REMARK    3  A    between atoms: C3_3  and  C4_4 
REMARK    4  A    between atoms: C4_4  and  N1_5 
REMARK    5  A    between atoms: C4_4  and  C5_9 
REMARK    6  A    between atoms: C25_29  and  C27_31 
REMARK    7  A    between atoms: C27_31  and  O1_32 
REMARK    8  A    between atoms: C27_31  and  C28_34 
REMARK    9  A    between atoms: C28_34  and  C29_35 
REMARK   10  A    between atoms: C29_35  and  N2_36 
REMARK   11  A    between atoms: N2_36  and  C30_39 
ROOT
HETATM    1  C8  UNL     1     -11.693  11.389  36.467  1.00  0.00     0.021 C 
HETATM    2  C9  UNL     1     -11.562  11.044  37.966  1.00  0.00     0.010 C 
HETATM    3  C10 UNL     1     -12.896  10.359  38.201  1.00  0.00     0.011 C 
HETATM    4  C11 UNL     1     -12.828   9.435  36.945  1.00  0.00    -0.030 C 
HETATM    5  C12 UNL     1     -11.545   8.709  37.188  1.00  0.00     0.016 C 
HETATM    6  C13 UNL     1     -12.834  10.538  35.963  1.00  0.00     0.032 C 
HETATM    7  C14 UNL     1     -12.737  10.202  34.492  1.00  0.00     0.128 C 
HETATM    8  C15 UNL     1     -12.441   8.737  34.241  1.00  0.00     0.033 C 
HETATM    9  C16 UNL     1     -13.442   7.763  34.722  1.00  0.00     0.008 C 
HETATM   10  C17 UNL     1     -14.491   8.259  35.647  1.00  0.00    -0.001 C 
HETATM   11  C18 UNL     1     -15.802   7.573  35.646  1.00  0.00    -0.004 C 
HETATM   12  C19 UNL     1     -16.572   7.570  34.375  1.00  0.00     0.015 C 
HETATM   13  C20 UNL     1     -17.280   8.868  34.716  1.00  0.00    -0.040 C 
HETATM   14  C21 UNL     1     -18.796   8.602  34.556  1.00  0.00     0.015 C 
HETATM   15  C22 UNL     1     -16.897  10.085  34.068  1.00  0.00     0.010 C 
HETATM   16  C23 UNL     1     -16.116   9.986  32.762  1.00  0.00     0.004 C 
HETATM   17  C24 UNL     1     -15.425  11.272  32.400  1.00  0.00     0.040 C 
HETATM   18  C25 UNL     1     -13.870  11.179  32.586  1.00  0.00     0.083 C 
HETATM   19  C26 UNL     1     -13.525  12.674  32.468  1.00  0.00     0.049 C 
HETATM   20  O2  UNL     1     -13.720  10.726  33.779  1.00  0.00    -0.372 OA
HETATM   21  C35 UNL     1     -16.890   8.566  36.116  1.00  0.00    -0.002 C 
HETATM   22  C36 UNL     1     -16.280   9.550  37.004  1.00  0.00     0.006 C 
HETATM   23  C37 UNL     1     -15.140   8.977  37.864  1.00  0.00     0.011 C 
HETATM   24  C38 UNL     1     -13.963   8.500  37.064  1.00  0.00    -0.032 C 
HETATM   25  C39 UNL     1     -13.540   7.175  37.692  1.00  0.00     0.016 C 
ENDROOT
BRANCH  18  26
HETATM   26  C27 UNL     1     -13.360  10.555  31.355  1.00  0.00     0.153 C 
BRANCH  26  27
HETATM   27  O1  UNL     1     -13.685   9.227  31.114  1.00  0.00    -0.393 OA
ATOM     28  H1  UNL     1     -14.512   9.041  30.684  1.00  0.00     0.210 HD
ENDBRANCH  26  27
BRANCH  26  29
HETATM   29  C28 UNL     1     -13.735  11.329  30.117  1.00  0.00     0.062 C 
BRANCH  29  30
HETATM   30  C29 UNL     1     -12.460  11.625  29.289  1.00  0.00     0.237 C 
BRANCH  30  31
HETATM   31  N2  UNL     1     -12.552  13.020  28.916  1.00  0.00    -0.046 N 
ATOM     32  H22 UNL     1     -12.819  13.124  27.937  1.00  0.00     0.279 HD
ATOM     33  H21 UNL     1     -13.359  13.467  29.352  1.00  0.00     0.279 HD
BRANCH  31  34
HETATM   34  C30 UNL     1     -11.329  13.746  29.208  1.00  0.00     0.387 C 
HETATM   35  C31 UNL     1     -10.517  14.117  27.988  1.00  0.00     0.091 C 
HETATM   36  C32 UNL     1     -10.411  15.466  28.668  1.00  0.00     0.243 C 
HETATM   37  N3  UNL     1     -11.618  15.148  29.409  1.00  0.00    -0.046 N 
HETATM   38  C33 UNL     1     -12.810  15.583  28.708  1.00  0.00     0.274 C 
HETATM   39  C34 UNL     1     -11.555  15.529  30.796  1.00  0.00     0.274 C 
ENDBRANCH  31  34
ENDBRANCH  30  31
ENDBRANCH  29  30
ENDBRANCH  26  29
ENDBRANCH  18  26
BRANCH   1  40
HETATM   40  C2  UNL     1     -11.870  12.839  36.464  1.00  0.00    -0.083 C 
HETATM   41  C1  UNL     1     -12.914  13.515  36.847  1.00  0.00     0.015 C 
BRANCH  40  42
HETATM   42  C3  UNL     1     -10.692  13.622  35.935  1.00  0.00     0.066 C 
BRANCH  42  43
HETATM   43  C4  UNL     1     -10.960  14.390  34.701  1.00  0.00     0.190 C 
BRANCH  43  44
HETATM   44  N1  UNL     1     -10.093  13.739  33.665  1.00  0.00    -0.074 N 
ATOM     45  H13 UNL     1      -9.160  13.491  33.997  1.00  0.00     0.274 HD
ATOM     46  H12 UNL     1     -10.378  12.792  33.417  1.00  0.00     0.274 HD
ATOM     47  H11 UNL     1     -10.098  14.396  32.885  1.00  0.00     0.274 HD
ENDBRANCH  43  44
BRANCH  43  48
HETATM   48  C5  UNL     1     -10.396  15.801  34.779  1.00  0.00     0.008 C 
HETATM   49  C6  UNL     1      -9.285  15.911  33.741  1.00  0.00     0.011 C 
HETATM   50  C7  UNL     1      -9.712  16.029  36.119  1.00  0.00     0.011 C 
ENDBRANCH  43  48
ENDBRANCH  42  43
ENDBRANCH  40  42
ENDBRANCH   1  40
TORSDOF 11
ENDMDL
