MODEL 1
REMARK VINA RESULT: -11.298039513      0.000      0.000
REMARK  8 active torsions:
REMARK  status: ('A' for Active; 'I' for Inactive)
REMARK    1  A    between atoms: C2_2  and  C4_4 
REMARK    2  A    between atoms: C7_7  and  C8_8 
REMARK       I    between atoms: C8_8  and  N1_10 
REMARK    3  A    between atoms: N1_10  and  C10_12 
REMARK    4  A    between atoms: C10_12  and  C11_13 
REMARK    5  A    between atoms: C11_13  and  C12_14 
REMARK    6  A    between atoms: C12_14  and  N2_15 
REMARK       I    between atoms: N2_15  and  C13_17 
REMARK    7  A    between atoms: C13_17  and  C14_19 
REMARK    8  A    between atoms: C27_32  and  C29_34 
ROOT
HETATM    1  C4  UNL     1     -12.316  13.982  27.641  1.00  0.00     0.019 C 
HETATM    2  C5  UNL     1     -13.394  14.996  27.889  1.00  0.00     0.010 C 
HETATM    3  C6  UNL     1     -13.013  15.725  29.156  1.00  0.00     0.020 C 
HETATM    4  C7  UNL     1     -11.612  15.275  29.490  1.00  0.00     0.046 C 
HETATM    5  C17 UNL     1     -10.678  16.389  29.892  1.00  0.00     0.020 C 
HETATM    6  C18 UNL     1      -9.667  16.823  28.905  1.00  0.00     0.011 C 
HETATM    7  C19 UNL     1      -8.954  15.730  28.154  1.00  0.00    -0.032 C 
HETATM    8  C20 UNL     1      -8.367  14.676  29.062  1.00  0.00     0.016 C 
HETATM    9  C21 UNL     1     -10.109  15.020  27.433  1.00  0.00     0.000 C 
HETATM   10  C22 UNL     1     -10.692  15.920  26.401  1.00  0.00     0.006 C 
HETATM   11  C23 UNL     1      -9.644  16.740  25.635  1.00  0.00     0.006 C 
HETATM   12  C24 UNL     1      -8.343  16.049  25.736  1.00  0.00    -0.001 C 
HETATM   13  C25 UNL     1      -7.303  16.492  24.743  1.00  0.00    -0.001 C 
HETATM   14  C26 UNL     1      -7.773  16.131  23.376  1.00  0.00     0.024 C 
HETATM   15  C27 UNL     1      -7.299  16.929  22.218  1.00  0.00     0.035 C 
HETATM   16  C28 UNL     1      -6.240  16.140  21.425  1.00  0.00     0.025 C 
HETATM   17  C30 UNL     1      -6.779  18.305  22.560  1.00  0.00     0.019 C 
HETATM   18  C31 UNL     1      -7.379  18.732  23.848  1.00  0.00     0.011 C 
HETATM   19  C32 UNL     1      -6.780  17.858  24.970  1.00  0.00    -0.040 C 
HETATM   20  C33 UNL     1      -5.270  17.962  24.650  1.00  0.00     0.015 C 
HETATM   21  C34 UNL     1      -6.977  18.457  26.305  1.00  0.00     0.010 C 
HETATM   22  C35 UNL     1      -7.671  17.729  27.383  1.00  0.00     0.011 C 
HETATM   23  C36 UNL     1      -7.915  16.262  27.187  1.00  0.00    -0.032 C 
HETATM   24  C37 UNL     1      -6.615  15.577  27.512  1.00  0.00     0.016 C 
HETATM   25  C38 UNL     1     -11.100  14.434  28.395  1.00  0.00     0.016 C 
ENDROOT
BRANCH   4  26
HETATM   26  C8  UNL     1     -11.783  14.509  30.795  1.00  0.00     0.228 C 
HETATM   27  O1  UNL     1     -10.753  14.272  31.469  1.00  0.00    -0.273 OA
HETATM   28  N1  UNL     1     -13.010  14.054  31.297  1.00  0.00    -0.356 N 
HETATM   29  C9  UNL     1     -14.312  14.237  30.744  1.00  0.00     0.152 C 
BRANCH  28  30
HETATM   30  C10 UNL     1     -12.953  13.287  32.557  1.00  0.00     0.127 C 
BRANCH  30  31
HETATM   31  C11 UNL     1     -13.109  14.206  33.761  1.00  0.00     0.039 C 
BRANCH  31  32
HETATM   32  C12 UNL     1     -12.009  13.829  34.721  1.00  0.00     0.124 C 
BRANCH  32  33
HETATM   33  N2  UNL     1     -10.854  14.681  34.536  1.00  0.00    -0.361 N 
HETATM   34  C13 UNL     1     -10.596  15.860  35.274  1.00  0.00     0.221 C 
HETATM   35  O2  UNL     1     -11.405  16.215  36.159  1.00  0.00    -0.273 OA
ATOM     36  H2  UNL     1     -10.177  14.412  33.822  1.00  0.00     0.162 HD
BRANCH  34  37
HETATM   37  C14 UNL     1      -9.396  16.683  35.026  1.00  0.00     0.070 C 
HETATM   38  C15 UNL     1      -8.459  16.574  36.189  1.00  0.00     0.019 C 
HETATM   39  C16 UNL     1      -8.763  16.196  33.747  1.00  0.00     0.019 C 
ENDBRANCH  34  37
ENDBRANCH  32  33
ENDBRANCH  31  32
ENDBRANCH  30  31
ENDBRANCH  28  30
ENDBRANCH   4  26
BRANCH   1  40
HETATM   40  C2  UNL     1     -12.678  12.592  27.999  1.00  0.00    -0.089 C 
HETATM   41  C1  UNL     1     -11.991  11.730  28.688  1.00  0.00     0.014 C 
HETATM   42  C3  UNL     1     -14.044  12.150  27.510  1.00  0.00     0.043 C 
ENDBRANCH   1  40
BRANCH  15  43
HETATM   43  C29 UNL     1      -8.388  17.153  21.231  1.00  0.00     0.239 C 
HETATM   44  N3  UNL     1      -9.617  16.460  21.374  1.00  0.00    -0.061 NA
HETATM   45  O3  UNL     1      -8.265  17.936  20.268  1.00  0.00    -0.276 OA
ENDBRANCH  15  43
TORSDOF 8
ENDMDL
MODEL 2
REMARK VINA RESULT: -10.576850347      1.289      1.649
REMARK  8 active torsions:
REMARK  status: ('A' for Active; 'I' for Inactive)
REMARK    1  A    between atoms: C2_2  and  C4_4 
REMARK    2  A    between atoms: C7_7  and  C8_8 
REMARK       I    between atoms: C8_8  and  N1_10 
REMARK    3  A    between atoms: N1_10  and  C10_12 
REMARK    4  A    between atoms: C10_12  and  C11_13 
REMARK    5  A    between atoms: C11_13  and  C12_14 
REMARK    6  A    between atoms: C12_14  and  N2_15 
REMARK       I    between atoms: N2_15  and  C13_17 
REMARK    7  A    between atoms: C13_17  and  C14_19 
REMARK    8  A    between atoms: C27_32  and  C29_34 
ROOT
HETATM    1  C4  UNL     1     -12.208  14.088  27.687  1.00  0.00     0.019 C 
HETATM    2  C5  UNL     1     -13.312  15.093  27.835  1.00  0.00     0.010 C 
HETATM    3  C6  UNL     1     -12.957  15.944  29.034  1.00  0.00     0.020 C 
HETATM    4  C7  UNL     1     -11.548  15.559  29.414  1.00  0.00     0.046 C 
HETATM    5  C17 UNL     1     -10.644  16.728  29.718  1.00  0.00     0.020 C 
HETATM    6  C18 UNL     1      -9.636  17.095  28.700  1.00  0.00     0.011 C 
HETATM    7  C19 UNL     1      -8.893  15.955  28.056  1.00  0.00    -0.032 C 
HETATM    8  C20 UNL     1      -8.287  15.003  29.058  1.00  0.00     0.016 C 
HETATM    9  C21 UNL     1     -10.025  15.155  27.396  1.00  0.00     0.000 C 
HETATM   10  C22 UNL     1     -10.621  15.944  26.284  1.00  0.00     0.006 C 
HETATM   11  C23 UNL     1      -9.588  16.716  25.452  1.00  0.00     0.006 C 
HETATM   12  C24 UNL     1      -8.271  16.069  25.622  1.00  0.00    -0.001 C 
HETATM   13  C25 UNL     1      -7.235  16.445  24.598  1.00  0.00    -0.001 C 
HETATM   14  C26 UNL     1      -7.687  15.950  23.267  1.00  0.00     0.024 C 
HETATM   15  C27 UNL     1      -7.223  16.652  22.044  1.00  0.00     0.035 C 
HETATM   16  C28 UNL     1      -6.140  15.819  21.331  1.00  0.00     0.025 C 
HETATM   17  C30 UNL     1      -6.738  18.065  22.262  1.00  0.00     0.019 C 
HETATM   18  C31 UNL     1      -7.357  18.592  23.503  1.00  0.00     0.011 C 
HETATM   19  C32 UNL     1      -6.746  17.839  24.703  1.00  0.00    -0.040 C 
HETATM   20  C33 UNL     1      -5.236  17.950  24.382  1.00  0.00     0.015 C 
HETATM   21  C34 UNL     1      -6.967  18.551  25.976  1.00  0.00     0.010 C 
HETATM   22  C35 UNL     1      -7.651  17.907  27.113  1.00  0.00     0.011 C 
HETATM   23  C36 UNL     1      -7.859  16.423  27.050  1.00  0.00    -0.032 C 
HETATM   24  C37 UNL     1      -6.546  15.802  27.442  1.00  0.00     0.016 C 
HETATM   25  C38 UNL     1     -11.009  14.635  28.402  1.00  0.00     0.016 C 
ENDROOT
BRANCH   4  26
HETATM   26  C8  UNL     1     -11.710  14.911  30.783  1.00  0.00     0.228 C 
HETATM   27  O1  UNL     1     -10.685  14.785  31.491  1.00  0.00    -0.273 OA
HETATM   28  N1  UNL     1     -12.926  14.449  31.307  1.00  0.00    -0.356 N 
HETATM   29  C9  UNL     1     -14.224  14.521  30.719  1.00  0.00     0.152 C 
BRANCH  28  30
HETATM   30  C10 UNL     1     -12.859  13.806  32.633  1.00  0.00     0.127 C 
BRANCH  30  31
HETATM   31  C11 UNL     1     -13.433  12.396  32.583  1.00  0.00     0.039 C 
BRANCH  31  32
HETATM   32  C12 UNL     1     -13.527  11.932  34.015  1.00  0.00     0.124 C 
BRANCH  32  33
HETATM   33  N2  UNL     1     -12.906  12.888  34.905  1.00  0.00    -0.361 N 
HETATM   34  C13 UNL     1     -11.779  12.621  35.716  1.00  0.00     0.221 C 
HETATM   35  O2  UNL     1     -11.257  11.486  35.681  1.00  0.00    -0.273 OA
ATOM     36  H2  UNL     1     -13.311  13.824  34.952  1.00  0.00     0.162 HD
BRANCH  34  37
HETATM   37  C14 UNL     1     -11.202  13.649  36.606  1.00  0.00     0.070 C 
HETATM   38  C15 UNL     1     -10.417  14.634  35.797  1.00  0.00     0.019 C 
HETATM   39  C16 UNL     1     -12.340  14.307  37.344  1.00  0.00     0.019 C 
ENDBRANCH  34  37
ENDBRANCH  32  33
ENDBRANCH  31  32
ENDBRANCH  30  31
ENDBRANCH  28  30
ENDBRANCH   4  26
BRANCH   1  40
HETATM   40  C2  UNL     1     -12.539  12.728  28.167  1.00  0.00    -0.089 C 
HETATM   41  C1  UNL     1     -11.900  11.998  29.032  1.00  0.00     0.014 C 
HETATM   42  C3  UNL     1     -13.810  12.142  27.579  1.00  0.00     0.043 C 
ENDBRANCH   1  40
BRANCH  15  43
HETATM   43  C29 UNL     1      -8.310  16.759  21.035  1.00  0.00     0.239 C 
HETATM   44  N3  UNL     1      -8.263  17.788  20.060  1.00  0.00    -0.061 NA
HETATM   45  O3  UNL     1      -9.275  15.969  21.008  1.00  0.00    -0.276 OA
ENDBRANCH  15  43
TORSDOF 8
ENDMDL
MODEL 3
REMARK VINA RESULT: -10.401533887      1.967      9.938
REMARK  8 active torsions:
REMARK  status: ('A' for Active; 'I' for Inactive)
REMARK    1  A    between atoms: C2_2  and  C4_4 
REMARK    2  A    between atoms: C7_7  and  C8_8 
REMARK       I    between atoms: C8_8  and  N1_10 
REMARK    3  A    between atoms: N1_10  and  C10_12 
REMARK    4  A    between atoms: C10_12  and  C11_13 
REMARK    5  A    between atoms: C11_13  and  C12_14 
REMARK    6  A    between atoms: C12_14  and  N2_15 
REMARK       I    between atoms: N2_15  and  C13_17 
REMARK    7  A    between atoms: C13_17  and  C14_19 
REMARK    8  A    between atoms: C27_32  and  C29_34 
ROOT
HETATM    1  C4  UNL     1      -5.767  17.702  27.528  1.00  0.00     0.019 C 
HETATM    2  C5  UNL     1      -6.132  19.128  27.238  1.00  0.00     0.010 C 
HETATM    3  C6  UNL     1      -7.050  19.099  26.037  1.00  0.00     0.020 C 
HETATM    4  C7  UNL     1      -7.376  17.645  25.799  1.00  0.00     0.046 C 
HETATM    5  C17 UNL     1      -8.833  17.370  25.521  1.00  0.00     0.020 C 
HETATM    6  C18 UNL     1      -9.632  16.759  26.604  1.00  0.00     0.011 C 
HETATM    7  C19 UNL     1      -8.978  15.634  27.363  1.00  0.00    -0.032 C 
HETATM    8  C20 UNL     1      -8.424  14.557  26.462  1.00  0.00     0.016 C 
HETATM    9  C21 UNL     1      -7.738  16.317  27.957  1.00  0.00     0.000 C 
HETATM   10  C22 UNL     1      -8.151  17.320  28.977  1.00  0.00     0.006 C 
HETATM   11  C23 UNL     1      -9.319  16.858  29.859  1.00  0.00     0.006 C 
HETATM   12  C24 UNL     1      -9.370  15.382  29.833  1.00  0.00    -0.001 C 
HETATM   13  C25 UNL     1     -10.190  14.750  30.926  1.00  0.00    -0.001 C 
HETATM   14  C26 UNL     1      -9.540  15.045  32.234  1.00  0.00     0.024 C 
HETATM   15  C27 UNL     1     -10.376  15.088  33.459  1.00  0.00     0.035 C 
HETATM   16  C28 UNL     1     -10.153  13.816  34.300  1.00  0.00     0.025 C 
HETATM   17  C30 UNL     1     -11.851  15.304  33.219  1.00  0.00     0.019 C 
HETATM   18  C31 UNL     1     -12.024  15.973  31.906  1.00  0.00     0.011 C 
HETATM   19  C32 UNL     1     -11.649  14.965  30.800  1.00  0.00    -0.040 C 
HETATM   20  C33 UNL     1     -12.459  13.724  31.244  1.00  0.00     0.015 C 
HETATM   21  C34 UNL     1     -12.174  15.368  29.480  1.00  0.00     0.010 C 
HETATM   22  C35 UNL     1     -11.284  15.554  28.319  1.00  0.00     0.011 C 
HETATM   23  C36 UNL     1      -9.877  15.046  28.432  1.00  0.00    -0.032 C 
HETATM   24  C37 UNL     1      -9.950  13.564  28.185  1.00  0.00     0.016 C 
HETATM   25  C38 UNL     1      -6.815  16.837  26.895  1.00  0.00     0.016 C 
ENDROOT
BRANCH   4  26
HETATM   26  C8  UNL     1      -6.729  17.349  24.452  1.00  0.00     0.228 C 
HETATM   27  O1  UNL     1      -6.531  16.148  24.155  1.00  0.00    -0.273 OA
HETATM   28  N1  UNL     1      -6.343  18.324  23.522  1.00  0.00    -0.356 N 
HETATM   29  C9  UNL     1      -6.503  19.738  23.609  1.00  0.00     0.152 C 
BRANCH  28  30
HETATM   30  C10 UNL     1      -5.686  17.829  22.296  1.00  0.00     0.127 C 
BRANCH  30  31
HETATM   31  C11 UNL     1      -6.552  18.090  21.072  1.00  0.00     0.039 C 
BRANCH  31  32
HETATM   32  C12 UNL     1      -6.739  16.753  20.399  1.00  0.00     0.124 C 
BRANCH  32  33
HETATM   33  N2  UNL     1      -7.553  15.878  21.214  1.00  0.00    -0.361 N 
HETATM   34  C13 UNL     1      -8.947  16.020  21.403  1.00  0.00     0.221 C 
HETATM   35  O2  UNL     1      -9.549  16.957  20.836  1.00  0.00    -0.273 OA
ATOM     36  H2  UNL     1      -7.087  15.103  21.687  1.00  0.00     0.162 HD
BRANCH  34  37
HETATM   37  C14 UNL     1      -9.712  15.088  22.256  1.00  0.00     0.070 C 
HETATM   38  C15 UNL     1      -8.770  14.271  23.085  1.00  0.00     0.019 C 
HETATM   39  C16 UNL     1     -10.645  15.908  23.110  1.00  0.00     0.019 C 
ENDBRANCH  34  37
ENDBRANCH  32  33
ENDBRANCH  31  32
ENDBRANCH  30  31
ENDBRANCH  28  30
ENDBRANCH   4  26
BRANCH   1  40
HETATM   40  C2  UNL     1      -4.412  17.307  27.083  1.00  0.00    -0.089 C 
HETATM   41  C1  UNL     1      -3.817  17.582  25.960  1.00  0.00     0.014 C 
HETATM   42  C3  UNL     1      -3.624  16.502  28.099  1.00  0.00     0.043 C 
ENDBRANCH   1  40
BRANCH  15  43
HETATM   43  C29 UNL     1      -9.957  16.190  34.363  1.00  0.00     0.239 C 
HETATM   44  N3  UNL     1     -10.798  16.571  35.440  1.00  0.00    -0.061 NA
HETATM   45  O3  UNL     1      -8.881  16.803  34.215  1.00  0.00    -0.276 OA
ENDBRANCH  15  43
TORSDOF 8
ENDMDL
MODEL 4
REMARK VINA RESULT: -10.354834530      1.604      2.607
REMARK  8 active torsions:
REMARK  status: ('A' for Active; 'I' for Inactive)
REMARK    1  A    between atoms: C2_2  and  C4_4 
REMARK    2  A    between atoms: C7_7  and  C8_8 
REMARK       I    between atoms: C8_8  and  N1_10 
REMARK    3  A    between atoms: N1_10  and  C10_12 
REMARK    4  A    between atoms: C10_12  and  C11_13 
REMARK    5  A    between atoms: C11_13  and  C12_14 
REMARK    6  A    between atoms: C12_14  and  N2_15 
REMARK       I    between atoms: N2_15  and  C13_17 
REMARK    7  A    between atoms: C13_17  and  C14_19 
REMARK    8  A    between atoms: C27_32  and  C29_34 
ROOT
HETATM    1  C4  UNL     1     -12.269  14.240  27.755  1.00  0.00     0.019 C 
HETATM    2  C5  UNL     1     -13.367  15.257  27.859  1.00  0.00     0.010 C 
HETATM    3  C6  UNL     1     -13.020  16.142  29.034  1.00  0.00     0.020 C 
HETATM    4  C7  UNL     1     -11.619  15.760  29.443  1.00  0.00     0.046 C 
HETATM    5  C17 UNL     1     -10.709  16.930  29.721  1.00  0.00     0.020 C 
HETATM    6  C18 UNL     1      -9.687  17.258  28.704  1.00  0.00     0.011 C 
HETATM    7  C19 UNL     1      -8.944  16.093  28.105  1.00  0.00    -0.032 C 
HETATM    8  C20 UNL     1      -8.358  15.168  29.144  1.00  0.00     0.016 C 
HETATM    9  C21 UNL     1     -10.075  15.281  27.457  1.00  0.00     0.000 C 
HETATM   10  C22 UNL     1     -10.653  16.038  26.314  1.00  0.00     0.006 C 
HETATM   11  C23 UNL     1      -9.604  16.777  25.470  1.00  0.00     0.006 C 
HETATM   12  C24 UNL     1      -8.294  16.126  25.676  1.00  0.00    -0.001 C 
HETATM   13  C25 UNL     1      -7.244  16.461  24.653  1.00  0.00    -0.001 C 
HETATM   14  C26 UNL     1      -7.684  15.928  23.333  1.00  0.00     0.024 C 
HETATM   15  C27 UNL     1      -7.201  16.588  22.094  1.00  0.00     0.035 C 
HETATM   16  C28 UNL     1      -6.116  15.725  21.421  1.00  0.00     0.025 C 
HETATM   17  C30 UNL     1      -6.707  18.004  22.273  1.00  0.00     0.019 C 
HETATM   18  C31 UNL     1      -7.337  18.574  23.490  1.00  0.00     0.011 C 
HETATM   19  C32 UNL     1      -6.745  17.854  24.720  1.00  0.00    -0.040 C 
HETATM   20  C33 UNL     1      -5.231  17.944  24.414  1.00  0.00     0.015 C 
HETATM   21  C34 UNL     1      -6.975  18.608  25.968  1.00  0.00     0.010 C 
HETATM   22  C35 UNL     1      -7.677  18.005  27.116  1.00  0.00     0.011 C 
HETATM   23  C36 UNL     1      -7.896  16.521  27.097  1.00  0.00    -0.032 C 
HETATM   24  C37 UNL     1      -6.592  15.904  27.523  1.00  0.00     0.016 C 
HETATM   25  C38 UNL     1     -11.075  14.800  28.467  1.00  0.00     0.016 C 
ENDROOT
BRANCH   4  26
HETATM   26  C8  UNL     1     -11.802  15.156  30.830  1.00  0.00     0.228 C 
HETATM   27  O1  UNL     1     -12.843  14.493  31.042  1.00  0.00    -0.273 OA
HETATM   28  N1  UNL     1     -10.886  15.289  31.883  1.00  0.00    -0.356 N 
HETATM   29  C9  UNL     1      -9.622  15.950  31.876  1.00  0.00     0.152 C 
BRANCH  28  30
HETATM   30  C10 UNL     1     -11.276  14.669  33.165  1.00  0.00     0.127 C 
BRANCH  30  31
HETATM   31  C11 UNL     1     -10.057  14.427  34.044  1.00  0.00     0.039 C 
BRANCH  31  32
HETATM   32  C12 UNL     1     -10.478  13.406  35.071  1.00  0.00     0.124 C 
BRANCH  32  33
HETATM   33  N2  UNL     1     -11.592  12.620  34.585  1.00  0.00    -0.361 N 
HETATM   34  C13 UNL     1     -12.081  11.446  35.204  1.00  0.00     0.221 C 
HETATM   35  O2  UNL     1     -11.534  11.034  36.249  1.00  0.00    -0.273 OA
ATOM     36  H2  UNL     1     -12.059  12.936  33.735  1.00  0.00     0.162 HD
BRANCH  34  37
HETATM   37  C14 UNL     1     -13.222  10.693  34.646  1.00  0.00     0.070 C 
HETATM   38  C15 UNL     1     -13.803  11.442  33.486  1.00  0.00     0.019 C 
HETATM   39  C16 UNL     1     -12.718   9.331  34.240  1.00  0.00     0.019 C 
ENDBRANCH  34  37
ENDBRANCH  32  33
ENDBRANCH  31  32
ENDBRANCH  30  31
ENDBRANCH  28  30
ENDBRANCH   4  26
BRANCH   1  40
HETATM   40  C2  UNL     1     -12.617  12.898  28.274  1.00  0.00    -0.089 C 
HETATM   41  C1  UNL     1     -11.835  12.015  28.823  1.00  0.00     0.014 C 
HETATM   42  C3  UNL     1     -14.088  12.540  28.166  1.00  0.00     0.043 C 
ENDBRANCH   1  40
BRANCH  15  43
HETATM   43  C29 UNL     1      -8.274  16.670  21.070  1.00  0.00     0.239 C 
HETATM   44  N3  UNL     1      -8.251  17.717  20.112  1.00  0.00    -0.061 NA
HETATM   45  O3  UNL     1      -9.209  15.846  21.014  1.00  0.00    -0.276 OA
ENDBRANCH  15  43
TORSDOF 8
ENDMDL
MODEL 5
REMARK VINA RESULT: -10.216738027      1.857     10.414
REMARK  8 active torsions:
REMARK  status: ('A' for Active; 'I' for Inactive)
REMARK    1  A    between atoms: C2_2  and  C4_4 
REMARK    2  A    between atoms: C7_7  and  C8_8 
REMARK       I    between atoms: C8_8  and  N1_10 
REMARK    3  A    between atoms: N1_10  and  C10_12 
REMARK    4  A    between atoms: C10_12  and  C11_13 
REMARK    5  A    between atoms: C11_13  and  C12_14 
REMARK    6  A    between atoms: C12_14  and  N2_15 
REMARK       I    between atoms: N2_15  and  C13_17 
REMARK    7  A    between atoms: C13_17  and  C14_19 
REMARK    8  A    between atoms: C27_32  and  C29_34 
ROOT
HETATM    1  C4  UNL     1      -6.782  17.438  27.824  1.00  0.00     0.019 C 
HETATM    2  C5  UNL     1      -7.153  18.879  27.633  1.00  0.00     0.010 C 
HETATM    3  C6  UNL     1      -8.181  18.912  26.525  1.00  0.00     0.020 C 
HETATM    4  C7  UNL     1      -8.548  17.474  26.255  1.00  0.00     0.046 C 
HETATM    5  C17 UNL     1     -10.029  17.225  26.106  1.00  0.00     0.020 C 
HETATM    6  C18 UNL     1     -10.729  16.574  27.233  1.00  0.00     0.011 C 
HETATM    7  C19 UNL     1     -10.022  15.411  27.876  1.00  0.00    -0.032 C 
HETATM    8  C20 UNL     1      -9.571  14.370  26.880  1.00  0.00     0.016 C 
HETATM    9  C21 UNL     1      -8.722  16.054  28.379  1.00  0.00     0.000 C 
HETATM   10  C22 UNL     1      -9.023  17.014  29.475  1.00  0.00     0.006 C 
HETATM   11  C23 UNL     1     -10.109  16.524  30.444  1.00  0.00     0.006 C 
HETATM   12  C24 UNL     1     -10.182  15.052  30.359  1.00  0.00    -0.001 C 
HETATM   13  C25 UNL     1     -10.903  14.379  31.496  1.00  0.00    -0.001 C 
HETATM   14  C26 UNL     1     -10.128  14.609  32.747  1.00  0.00     0.024 C 
HETATM   15  C27 UNL     1     -10.844  14.605  34.047  1.00  0.00     0.035 C 
HETATM   16  C28 UNL     1     -10.560  13.295  34.807  1.00  0.00     0.025 C 
HETATM   17  C30 UNL     1     -12.333  14.847  33.959  1.00  0.00     0.019 C 
HETATM   18  C31 UNL     1     -12.620  15.575  32.699  1.00  0.00     0.011 C 
HETATM   19  C32 UNL     1     -12.365  14.614  31.519  1.00  0.00    -0.040 C 
HETATM   20  C33 UNL     1     -13.147  13.362  31.984  1.00  0.00     0.015 C 
HETATM   21  C34 UNL     1     -13.007  15.081  30.274  1.00  0.00     0.010 C 
HETATM   22  C35 UNL     1     -12.228  15.310  29.043  1.00  0.00     0.011 C 
HETATM   23  C36 UNL     1     -10.824  14.784  28.999  1.00  0.00    -0.032 C 
HETATM   24  C37 UNL     1     -10.941  13.315  28.695  1.00  0.00     0.016 C 
HETATM   25  C38 UNL     1      -7.897  16.612  27.257  1.00  0.00     0.016 C 
ENDROOT
BRANCH   4  26
HETATM   26  C8  UNL     1      -8.036  17.231  24.842  1.00  0.00     0.228 C 
HETATM   27  O1  UNL     1      -7.690  18.231  24.170  1.00  0.00    -0.273 OA
HETATM   28  N1  UNL     1      -7.921  15.970  24.241  1.00  0.00    -0.356 N 
HETATM   29  C9  UNL     1      -8.204  14.693  24.810  1.00  0.00     0.152 C 
BRANCH  28  30
HETATM   30  C10 UNL     1      -7.449  15.956  22.843  1.00  0.00     0.127 C 
BRANCH  30  31
HETATM   31  C11 UNL     1      -8.589  15.629  21.887  1.00  0.00     0.039 C 
BRANCH  31  32
HETATM   32  C12 UNL     1      -8.928  16.920  21.185  1.00  0.00     0.124 C 
BRANCH  32  33
HETATM   33  N2  UNL     1      -7.760  17.470  20.532  1.00  0.00    -0.361 N 
HETATM   34  C13 UNL     1      -7.376  17.193  19.199  1.00  0.00     0.221 C 
HETATM   35  O2  UNL     1      -8.078  16.423  18.509  1.00  0.00    -0.273 OA
ATOM     36  H2  UNL     1      -7.171  18.104  21.072  1.00  0.00     0.162 HD
BRANCH  34  37
HETATM   37  C14 UNL     1      -6.166  17.790  18.601  1.00  0.00     0.070 C 
HETATM   38  C15 UNL     1      -5.044  17.760  19.593  1.00  0.00     0.019 C 
HETATM   39  C16 UNL     1      -5.836  17.008  17.355  1.00  0.00     0.019 C 
ENDBRANCH  34  37
ENDBRANCH  32  33
ENDBRANCH  31  32
ENDBRANCH  30  31
ENDBRANCH  28  30
ENDBRANCH   4  26
BRANCH   1  40
HETATM   40  C2  UNL     1      -5.480  17.050  27.236  1.00  0.00    -0.089 C 
HETATM   41  C1  UNL     1      -5.173  16.897  25.982  1.00  0.00     0.014 C 
HETATM   42  C3  UNL     1      -4.369  16.837  28.246  1.00  0.00     0.043 C 
ENDBRANCH   1  40
BRANCH  15  43
HETATM   43  C29 UNL     1     -10.326  15.662  34.955  1.00  0.00     0.239 C 
HETATM   44  N3  UNL     1     -11.114  16.091  36.054  1.00  0.00    -0.061 NA
HETATM   45  O3  UNL     1      -9.211  16.195  34.791  1.00  0.00    -0.276 OA
ENDBRANCH  15  43
TORSDOF 8
ENDMDL
